data_image0
_chemical_formula_structural       C2HC3HNH2NO2C2HC3HNH2NO2C2HC3HNH2NO2C7H2NH2NO2C7H2NH2NO2C7H2NH2NO2C7H2NH2NO2C7H2NH2NO2C7H2NH2NO2NC18H12NC18H12NC18H12NC18H12NC18H12NC18H12C7H2NH2NO2C7H2NH2NO2C7H2NH2NO2C2HC3HNH2NO2C2HC3HNH2NO2C2HC3HNH2NO2C2HC3HNH2NO2C2HC3HNH2NO2C2HC3HNH2NO2
_chemical_formula_sum              "C216 H144 N42 O36"
_cell_length_a       68.7607
_cell_length_b       68.7607
_cell_length_c       14.8821
_cell_angle_alpha    90
_cell_angle_beta     90
_cell_angle_gamma    120

_space_group_name_H-M_alt    "P 1"
_space_group_IT_number       1

loop_
  _space_group_symop_operation_xyz
  'x, y, z'

loop_
  _atom_site_type_symbol
  _atom_site_label
  _atom_site_symmetry_multiplicity
  _atom_site_fract_x
  _atom_site_fract_y
  _atom_site_fract_z
  _atom_site_occupancy
  C   C1        1.0  0.98125  0.50693  0.29396  1.0000
  C   C2        1.0  0.95743  0.49414  0.29606  1.0000
  H   H1        1.0  0.94851  0.50008  0.26210  1.0000
  C   C3        1.0  0.06632  0.53417  0.33958  1.0000
  C   C4        1.0  0.05338  0.51701  0.27612  1.0000
  C   C5        1.0  0.02957  0.50579  0.27932  1.0000
  H   H2        1.0  0.02060  0.49348  0.23300  1.0000
  N   N1        1.0  0.99128  0.52634  0.24568  1.0000
  H   H3        1.0  0.98247  0.53149  0.21275  1.0000
  H   H4        1.0  0.00751  0.53566  0.24192  1.0000
  N   N2        1.0  0.06431  0.51059  0.21180  1.0000
  O   O1        1.0  0.05953  0.51324  0.13288  1.0000
  O   O2        1.0  0.05933  0.49047  0.22157  1.0000
  C   C6        1.0  0.50296  0.47631  0.29394  1.0000
  C   C7        1.0  0.51575  0.46528  0.29607  1.0000
  H   H5        1.0  0.50981  0.45042  0.26207  1.0000
  C   C8        1.0  0.47572  0.53413  0.33956  1.0000
  C   C9        1.0  0.49288  0.53836  0.27610  1.0000
  C   C10       1.0  0.50410  0.52577  0.27930  1.0000
  H   H6        1.0  0.51640  0.52910  0.23298  1.0000
  N   N3        1.0  0.48355  0.46693  0.24564  1.0000
  H   H7        1.0  0.47840  0.45296  0.21275  1.0000
  H   H8        1.0  0.47423  0.47384  0.24191  1.0000
  N   N4        1.0  0.49930  0.55570  0.21176  1.0000
  O   O3        1.0  0.49665  0.54826  0.13285  1.0000
  O   O4        1.0  0.51942  0.57084  0.22153  1.0000
  C   C11       1.0  0.53358  0.02862  0.29394  1.0000
  C   C12       1.0  0.54461  0.05244  0.29605  1.0000
  H   H9        1.0  0.55947  0.06136  0.26207  1.0000
  C   C13       1.0  0.47575  0.94356  0.33956  1.0000
  C   C14       1.0  0.47153  0.95650  0.27612  1.0000
  C   C15       1.0  0.48412  0.98031  0.27932  1.0000
  H   H10       1.0  0.48078  0.98928  0.23301  1.0000
  N   N5        1.0  0.54296  0.01859  0.24564  1.0000
  H   H11       1.0  0.55692  0.02740  0.21271  1.0000
  H   H12       1.0  0.53604  0.00236  0.24189  1.0000
  N   N6        1.0  0.45418  0.94557  0.21179  1.0000
  O   O5        1.0  0.46162  0.95036  0.13287  1.0000
  O   O6        1.0  0.43904  0.95056  0.22157  1.0000
  C   C16       1.0  0.33591  0.55927  0.36569  1.0000
  C   C17       1.0  0.32245  0.55095  0.28664  1.0000
  C   C18       1.0  0.30141  0.55004  0.28159  1.0000
  C   C19       1.0  0.29412  0.55987  0.34715  1.0000
  C   C20       1.0  0.27322  0.55966  0.33294  1.0000
  C   C21       1.0  0.26774  0.56706  0.25221  1.0000
  C   C22       1.0  0.24626  0.56505  0.24380  1.0000
  H   H13       1.0  0.24242  0.56956  0.18377  1.0000
  H   H14       1.0  0.29185  0.54322  0.22515  1.0000
  N   N7        1.0  0.28259  0.57705  0.18347  1.0000
  H   H15       1.0  0.29833  0.58158  0.18981  1.0000
  H   H16       1.0  0.27866  0.58276  0.13079  1.0000
  N   N8        1.0  0.33025  0.54482  0.20948  1.0000
  O   O7        1.0  0.33282  0.55729  0.14339  1.0000
  O   O8        1.0  0.31733  0.52472  0.18710  1.0000
  C   C23       1.0  0.45066  0.77866  0.36569  1.0000
  C   C24       1.0  0.45902  0.77354  0.28668  1.0000
  C   C25       1.0  0.45998  0.75343  0.28167  1.0000
  C   C26       1.0  0.45009  0.73628  0.34712  1.0000
  C   C27       1.0  0.45032  0.71560  0.33291  1.0000
  C   C28       1.0  0.44294  0.70273  0.25215  1.0000
  C   C29       1.0  0.44492  0.68324  0.24378  1.0000
  H   H17       1.0  0.44041  0.67489  0.18376  1.0000
  H   H18       1.0  0.46678  0.75069  0.22520  1.0000
  N   N9        1.0  0.43292  0.70756  0.18346  1.0000
  H   H19       1.0  0.42855  0.71891  0.18927  1.0000
  H   H20       1.0  0.42737  0.69805  0.13036  1.0000
  N   N10       1.0  0.46514  0.78745  0.20949  1.0000
  O   O9        1.0  0.45268  0.77755  0.14339  1.0000
  O   O10       1.0  0.48524  0.79466  0.18714  1.0000
  C   C30       1.0  0.23127  0.67396  0.36571  1.0000
  C   C31       1.0  0.23638  0.68744  0.28672  1.0000
  C   C32       1.0  0.25650  0.70848  0.28166  1.0000
  C   C33       1.0  0.27365  0.71577  0.34714  1.0000
  C   C34       1.0  0.29433  0.73668  0.33293  1.0000
  C   C35       1.0  0.30719  0.74218  0.25214  1.0000
  C   C36       1.0  0.32666  0.76367  0.24377  1.0000
  H   H21       1.0  0.33499  0.76752  0.18370  1.0000
  H   H22       1.0  0.25922  0.71805  0.22527  1.0000
  N   N11       1.0  0.30231  0.72735  0.18332  1.0000
  H   H23       1.0  0.29110  0.71161  0.18962  1.0000
  H   H24       1.0  0.31194  0.73129  0.13060  1.0000
  N   N12       1.0  0.22244  0.67965  0.20961  1.0000
  O   O11       1.0  0.23231  0.67709  0.14343  1.0000
  O   O12       1.0  0.21524  0.69256  0.18739  1.0000
  C   C37       1.0  0.67589  0.44907  0.36428  1.0000
  C   C38       1.0  0.68939  0.45743  0.28533  1.0000
  C   C39       1.0  0.71053  0.45855  0.28073  1.0000
  C   C40       1.0  0.71786  0.44879  0.34648  1.0000
  C   C41       1.0  0.73882  0.44909  0.33256  1.0000
  C   C42       1.0  0.74439  0.44173  0.25195  1.0000
  C   C43       1.0  0.76588  0.44375  0.24393  1.0000
  H   H25       1.0  0.76978  0.43929  0.18395  1.0000
  H   H26       1.0  0.72009  0.46535  0.22428  1.0000
  N   N13       1.0  0.72959  0.43167  0.18311  1.0000
  H   H27       1.0  0.71386  0.42724  0.18875  1.0000
  H   H28       1.0  0.73362  0.42613  0.13016  1.0000
  N   N14       1.0  0.68155  0.46338  0.20784  1.0000
  O   O13       1.0  0.67912  0.45090  0.14200  1.0000
  O   O14       1.0  0.69434  0.48349  0.18528  1.0000
  C   C44       1.0  0.56089  0.22882  0.36425  1.0000
  C   C45       1.0  0.55254  0.23397  0.28531  1.0000
  C   C46       1.0  0.55144  0.25400  0.28069  1.0000
  C   C47       1.0  0.56115  0.27107  0.34655  1.0000
  C   C48       1.0  0.56085  0.29173  0.33264  1.0000
  C   C49       1.0  0.56823  0.30466  0.25204  1.0000
  C   C50       1.0  0.56619  0.32413  0.24400  1.0000
  H   H29       1.0  0.57063  0.33248  0.18398  1.0000
  H   H30       1.0  0.54461  0.25675  0.22430  1.0000
  N   N15       1.0  0.57825  0.29990  0.18314  1.0000
  H   H31       1.0  0.58285  0.28873  0.18930  1.0000
  H   H32       1.0  0.58395  0.30959  0.13059  1.0000
  N   N16       1.0  0.54657  0.22017  0.20784  1.0000
  O   O15       1.0  0.55905  0.23022  0.14198  1.0000
  O   O16       1.0  0.52646  0.21286  0.18530  1.0000
  C   C51       1.0  0.78108  0.33401  0.36424  1.0000
  C   C52       1.0  0.77594  0.32050  0.28531  1.0000
  C   C53       1.0  0.75592  0.29935  0.28073  1.0000
  C   C54       1.0  0.73883  0.29202  0.34648  1.0000
  C   C55       1.0  0.71818  0.27106  0.33257  1.0000
  C   C56       1.0  0.70525  0.26550  0.25197  1.0000
  C   C57       1.0  0.68578  0.24400  0.24396  1.0000
  H   H33       1.0  0.67741  0.24010  0.18397  1.0000
  H   H34       1.0  0.75316  0.28980  0.22428  1.0000
  N   N17       1.0  0.70998  0.28029  0.18313  1.0000
  H   H35       1.0  0.72128  0.29602  0.18878  1.0000
  H   H36       1.0  0.70041  0.27626  0.13019  1.0000
  N   N18       1.0  0.78973  0.32834  0.20782  1.0000
  O   O17       1.0  0.77967  0.33075  0.14196  1.0000
  O   O18       1.0  0.79706  0.31555  0.18528  1.0000
  N   N19       1.0  0.16291  0.58232  0.34162  1.0000
  C   C58       1.0  0.17579  0.60531  0.37006  1.0000
  C   C59       1.0  0.13897  0.57053  0.34123  1.0000
  C   C60       1.0  0.17530  0.57178  0.31230  1.0000
  C   C61       1.0  0.19375  0.58334  0.25352  1.0000
  C   C62       1.0  0.21160  0.57882  0.25444  1.0000
  C   C63       1.0  0.21093  0.56116  0.30658  1.0000
  C   C64       1.0  0.19048  0.54735  0.35291  1.0000
  C   C65       1.0  0.17350  0.55311  0.35918  1.0000
  C   C66       1.0  0.17372  0.62234  0.32579  1.0000
  C   C67       1.0  0.19075  0.64506  0.33205  1.0000
  C   C68       1.0  0.21162  0.65163  0.37488  1.0000
  C   C69       1.0  0.21269  0.63442  0.42395  1.0000
  C   C70       1.0  0.19482  0.61209  0.42546  1.0000
  C   C71       1.0  0.12692  0.56751  0.26078  1.0000
  C   C72       1.0  0.10322  0.55589  0.26043  1.0000
  C   C73       1.0  0.09060  0.54632  0.33989  1.0000
  C   C74       1.0  0.10295  0.54955  0.42035  1.0000
  C   C75       1.0  0.12666  0.56154  0.42118  1.0000
  H   H37       1.0  0.18807  0.65659  0.29978  1.0000
  H   H38       1.0  0.16029  0.61814  0.28464  1.0000
  H   H39       1.0  0.19739  0.60023  0.45590  1.0000
  H   H40       1.0  0.22723  0.63738  0.45438  1.0000
  H   H41       1.0  0.19619  0.59759  0.22182  1.0000
  H   H42       1.0  0.22593  0.59001  0.22158  1.0000
  H   H43       1.0  0.13543  0.57410  0.20209  1.0000
  H   H44       1.0  0.09522  0.55475  0.20109  1.0000
  H   H45       1.0  0.09471  0.54289  0.47953  1.0000
  H   H46       1.0  0.13498  0.56343  0.48036  1.0000
  H   H47       1.0  0.16050  0.54445  0.40293  1.0000
  H   H48       1.0  0.18820  0.53362  0.38800  1.0000
  N   N20       1.0  0.42755  0.58256  0.34151  1.0000
  C   C76       1.0  0.40456  0.57244  0.36997  1.0000
  C   C77       1.0  0.43935  0.57042  0.34115  1.0000
  C   C78       1.0  0.43811  0.60551  0.31244  1.0000
  C   C79       1.0  0.42652  0.61243  0.25395  1.0000
  C   C80       1.0  0.43110  0.63480  0.25447  1.0000
  C   C81       1.0  0.44876  0.65178  0.30664  1.0000
  C   C82       1.0  0.46254  0.64512  0.35308  1.0000
  C   C83       1.0  0.45679  0.62238  0.35926  1.0000
  C   C84       1.0  0.38754  0.55336  0.32560  1.0000
  C   C85       1.0  0.36482  0.54768  0.33177  1.0000
  C   C86       1.0  0.35825  0.56195  0.37483  1.0000
  C   C87       1.0  0.37545  0.58020  0.42403  1.0000
  C   C88       1.0  0.39777  0.58466  0.42550  1.0000
  C   C89       1.0  0.44238  0.56140  0.26072  1.0000
  C   C90       1.0  0.45400  0.54931  0.26039  1.0000
  C   C91       1.0  0.46358  0.54627  0.33986  1.0000
  C   C92       1.0  0.46034  0.55539  0.42030  1.0000
  C   C93       1.0  0.44834  0.56710  0.42111  1.0000
  H   H49       1.0  0.35329  0.53346  0.29956  1.0000
  H   H50       1.0  0.39174  0.54413  0.28438  1.0000
  H   H51       1.0  0.40964  0.59908  0.45604  1.0000
  H   H52       1.0  0.37248  0.59176  0.45459  1.0000
  H   H53       1.0  0.41234  0.60062  0.22177  1.0000
  H   H54       1.0  0.41994  0.63796  0.22145  1.0000
  H   H55       1.0  0.43578  0.56330  0.20202  1.0000
  H   H56       1.0  0.45514  0.54245  0.20107  1.0000
  H   H57       1.0  0.46700  0.55382  0.47949  1.0000
  H   H58       1.0  0.44646  0.57354  0.48029  1.0000
  H   H59       1.0  0.46543  0.61804  0.40307  1.0000
  H   H60       1.0  0.47627  0.65657  0.38819  1.0000
  N   N21       1.0  0.42734  0.84697  0.34147  1.0000
  C   C94       1.0  0.43746  0.83409  0.36989  1.0000
  C   C95       1.0  0.43947  0.87091  0.34113  1.0000
  C   C96       1.0  0.40437  0.83456  0.31244  1.0000
  C   C97       1.0  0.39748  0.81609  0.25385  1.0000
  C   C98       1.0  0.37511  0.79828  0.25451  1.0000
  C   C99       1.0  0.35812  0.79896  0.30665  1.0000
  C   C100      1.0  0.36478  0.81940  0.35312  1.0000
  C   C101      1.0  0.38752  0.83639  0.35935  1.0000
  C   C102      1.0  0.45655  0.83619  0.32552  1.0000
  C   C103      1.0  0.46224  0.81915  0.33173  1.0000
  C   C104      1.0  0.44797  0.79830  0.37481  1.0000
  C   C105      1.0  0.42973  0.79725  0.42402  1.0000
  C   C106      1.0  0.42525  0.81511  0.42549  1.0000
  C   C107      1.0  0.44848  0.88296  0.26069  1.0000
  C   C108      1.0  0.46057  0.90666  0.26037  1.0000
  C   C109      1.0  0.46362  0.91928  0.33985  1.0000
  C   C110      1.0  0.45451  0.90692  0.42030  1.0000
  C   C111      1.0  0.44279  0.88321  0.42110  1.0000
  H   H61       1.0  0.47646  0.82185  0.29953  1.0000
  H   H62       1.0  0.46577  0.84961  0.28429  1.0000
  H   H63       1.0  0.41082  0.81254  0.45603  1.0000
  H   H64       1.0  0.41817  0.78272  0.45459  1.0000
  H   H65       1.0  0.40928  0.81373  0.22160  1.0000
  H   H66       1.0  0.37194  0.78399  0.22126  1.0000
  H   H67       1.0  0.44658  0.87445  0.20199  1.0000
  H   H68       1.0  0.46743  0.91467  0.20105  1.0000
  H   H69       1.0  0.45608  0.91515  0.47949  1.0000
  H   H70       1.0  0.43636  0.87489  0.48028  1.0000
  H   H71       1.0  0.39187  0.84937  0.40321  1.0000
  H   H72       1.0  0.35334  0.82168  0.38832  1.0000
  N   N22       1.0  0.84897  0.42595  0.34086  1.0000
  C   C112      1.0  0.83608  0.40288  0.36824  1.0000
  C   C113      1.0  0.87293  0.43785  0.34194  1.0000
  C   C114      1.0  0.83650  0.43654  0.31309  1.0000
  C   C115      1.0  0.81810  0.42516  0.25402  1.0000
  C   C116      1.0  0.80035  0.42980  0.25486  1.0000
  C   C117      1.0  0.80104  0.44739  0.30758  1.0000
  C   C118      1.0  0.82143  0.46098  0.35472  1.0000
  C   C119      1.0  0.83833  0.45510  0.36092  1.0000
  C   C120      1.0  0.83830  0.38605  0.32307  1.0000
  C   C121      1.0  0.82142  0.36325  0.32922  1.0000
  C   C122      1.0  0.80060  0.35644  0.37297  1.0000
  C   C123      1.0  0.79943  0.37351  0.42269  1.0000
  C   C124      1.0  0.81716  0.39589  0.42439  1.0000
  C   C125      1.0  0.88534  0.44475  0.26118  1.0000
  C   C126      1.0  0.90905  0.45649  0.26222  1.0000
  C   C127      1.0  0.92125  0.46172  0.34397  1.0000
  C   C128      1.0  0.90861  0.45493  0.42470  1.0000
  C   C129      1.0  0.88490  0.44312  0.42374  1.0000
  H   H73       1.0  0.82421  0.35186  0.29643  1.0000
  H   H74       1.0  0.85171  0.39045  0.28151  1.0000
  H   H75       1.0  0.81454  0.40767  0.45538  1.0000
  H   H76       1.0  0.78490  0.37039  0.45371  1.0000
  H   H77       1.0  0.81576  0.41109  0.22104  1.0000
  H   H78       1.0  0.78610  0.41880  0.22110  1.0000
  H   H79       1.0  0.87709  0.44111  0.20095  1.0000
  H   H80       1.0  0.91739  0.46091  0.20212  1.0000
  H   H81       1.0  0.91661  0.45882  0.48551  1.0000
  H   H82       1.0  0.87633  0.43853  0.48327  1.0000
  H   H83       1.0  0.85129  0.46359  0.40502  1.0000
  H   H84       1.0  0.82374  0.47464  0.39037  1.0000
  N   N23       1.0  0.58394  0.42501  0.34088  1.0000
  C   C130      1.0  0.60701  0.43520  0.36827  1.0000
  C   C131      1.0  0.57205  0.43707  0.34195  1.0000
  C   C132      1.0  0.57337  0.40196  0.31305  1.0000
  C   C133      1.0  0.58474  0.39493  0.25402  1.0000
  C   C134      1.0  0.58011  0.37254  0.25485  1.0000
  C   C135      1.0  0.56251  0.35563  0.30754  1.0000
  C   C136      1.0  0.54894  0.36244  0.35476  1.0000
  C   C137      1.0  0.55481  0.38522  0.36089  1.0000
  C   C138      1.0  0.62384  0.45426  0.32315  1.0000
  C   C139      1.0  0.64663  0.46016  0.32925  1.0000
  C   C140      1.0  0.65345  0.44616  0.37302  1.0000
  C   C141      1.0  0.63638  0.42792  0.42273  1.0000
  C   C142      1.0  0.61400  0.42325  0.42442  1.0000
  C   C143      1.0  0.56515  0.44259  0.26119  1.0000
  C   C144      1.0  0.55342  0.45456  0.26223  1.0000
  C   C145      1.0  0.54817  0.46152  0.34398  1.0000
  C   C146      1.0  0.55496  0.45567  0.42471  1.0000
  C   C147      1.0  0.56676  0.44376  0.42376  1.0000
  H   H85       1.0  0.65803  0.47434  0.29644  1.0000
  H   H86       1.0  0.61944  0.46325  0.28147  1.0000
  H   H87       1.0  0.60222  0.40886  0.45540  1.0000
  H   H88       1.0  0.63950  0.41651  0.45375  1.0000
  H   H89       1.0  0.59881  0.40665  0.22104  1.0000
  H   H90       1.0  0.59111  0.36929  0.22110  1.0000
  H   H91       1.0  0.56879  0.43799  0.20097  1.0000
  H   H92       1.0  0.54898  0.45847  0.20214  1.0000
  H   H93       1.0  0.55106  0.45976  0.48552  1.0000
  H   H94       1.0  0.57135  0.43978  0.48329  1.0000
  H   H95       1.0  0.54632  0.38970  0.40498  1.0000
  H   H96       1.0  0.53527  0.35109  0.39036  1.0000
  N   N24       1.0  0.58490  0.16090  0.34086  1.0000
  C   C148      1.0  0.57473  0.17380  0.36828  1.0000
  C   C149      1.0  0.57283  0.13694  0.34195  1.0000
  C   C150      1.0  0.60795  0.17337  0.31307  1.0000
  C   C151      1.0  0.61498  0.19175  0.25388  1.0000
  C   C152      1.0  0.63736  0.20951  0.25486  1.0000
  C   C153      1.0  0.65427  0.20883  0.30758  1.0000
  C   C154      1.0  0.64746  0.18845  0.35482  1.0000
  C   C155      1.0  0.62468  0.17153  0.36087  1.0000
  C   C156      1.0  0.55566  0.17157  0.32320  1.0000
  C   C157      1.0  0.54976  0.18846  0.32930  1.0000
  C   C158      1.0  0.56379  0.20929  0.37301  1.0000
  C   C159      1.0  0.58203  0.21046  0.42270  1.0000
  C   C160      1.0  0.58668  0.19273  0.42440  1.0000
  C   C161      1.0  0.56731  0.12453  0.26119  1.0000
  C   C162      1.0  0.55534  0.10082  0.26223  1.0000
  C   C163      1.0  0.54838  0.08862  0.34398  1.0000
  C   C164      1.0  0.55424  0.10127  0.42471  1.0000
  C   C165      1.0  0.56614  0.12498  0.42375  1.0000
  H   H97       1.0  0.53559  0.18569  0.29650  1.0000
  H   H98       1.0  0.54666  0.15818  0.28154  1.0000
  H   H99       1.0  0.60108  0.19534  0.45535  1.0000
  H   H100      1.0  0.59344  0.22499  0.45368  1.0000
  H   H101      1.0  0.60322  0.19408  0.22111  1.0000
  H   H102      1.0  0.64060  0.22376  0.22112  1.0000
  H   H103      1.0  0.57192  0.13278  0.20096  1.0000
  H   H104      1.0  0.55143  0.09248  0.20214  1.0000
  H   H105      1.0  0.55014  0.09327  0.48552  1.0000
  H   H106      1.0  0.57012  0.13354  0.48329  1.0000
  H   H107      1.0  0.62020  0.15858  0.40504  1.0000
  H   H108      1.0  0.65882  0.18614  0.39035  1.0000
  C   C166      1.0  0.94548  0.47378  0.34471  1.0000
  C   C167      1.0  0.95825  0.46602  0.39222  1.0000
  C   C168      1.0  0.98206  0.47868  0.39042  1.0000
  C   C169      1.0  0.99383  0.49906  0.34232  1.0000
  C   C170      1.0  0.01792  0.51096  0.34454  1.0000
  C   C171      1.0  0.03062  0.52792  0.40906  1.0000
  C   C172      1.0  0.05443  0.53912  0.40512  1.0000
  H   H109      1.0  0.06339  0.55157  0.45086  1.0000
  H   H110      1.0  0.99094  0.47276  0.42487  1.0000
  N   N25       1.0  0.02070  0.53379  0.47456  1.0000
  H   H111      1.0  0.00448  0.52657  0.48032  1.0000
  H   H112      1.0  0.02959  0.54536  0.51848  1.0000
  N   N26       1.0  0.94707  0.44525  0.43847  1.0000
  O   O19       1.0  0.95197  0.43131  0.40657  1.0000
  O   O20       1.0  0.95173  0.44765  0.52085  1.0000
  C   C173      1.0  0.53611  0.47369  0.34472  1.0000
  C   C174      1.0  0.54387  0.49421  0.39224  1.0000
  C   C175      1.0  0.53121  0.50537  0.39044  1.0000
  C   C176      1.0  0.51083  0.49676  0.34232  1.0000
  C   C177      1.0  0.49893  0.50894  0.34453  1.0000
  C   C178      1.0  0.48198  0.50470  0.40907  1.0000
  C   C179      1.0  0.47078  0.51731  0.40510  1.0000
  H   H113      1.0  0.45832  0.51382  0.45086  1.0000
  H   H114      1.0  0.53712  0.52016  0.42490  1.0000
  N   N27       1.0  0.47610  0.48891  0.47457  1.0000
  H   H115      1.0  0.48334  0.47993  0.48040  1.0000
  H   H116      1.0  0.46456  0.48625  0.51856  1.0000
  N   N28       1.0  0.56464  0.50381  0.43850  1.0000
  O   O21       1.0  0.57857  0.52264  0.40660  1.0000
  O   O22       1.0  0.56223  0.50606  0.52088  1.0000
  C   C180      1.0  0.53621  0.06439  0.34472  1.0000
  C   C181      1.0  0.51569  0.05163  0.39226  1.0000
  C   C182      1.0  0.50453  0.02781  0.39046  1.0000
  C   C183      1.0  0.51314  0.01605  0.34232  1.0000
  C   C184      1.0  0.50095  0.99196  0.34454  1.0000
  C   C185      1.0  0.50520  0.97925  0.40906  1.0000
  C   C186      1.0  0.49258  0.95544  0.40510  1.0000
  H   H117      1.0  0.49608  0.94648  0.45083  1.0000
  H   H118      1.0  0.48974  0.01894  0.42492  1.0000
  N   N29       1.0  0.52099  0.98917  0.47454  1.0000
  H   H119      1.0  0.52999  0.00539  0.48032  1.0000
  H   H120      1.0  0.52367  0.98028  0.51847  1.0000
  N   N30       1.0  0.50610  0.06281  0.43853  1.0000
  O   O23       1.0  0.48727  0.05792  0.40666  1.0000
  O   O24       1.0  0.50385  0.05815  0.52091  1.0000
  C   C187      1.0  0.30779  0.56901  0.42514  1.0000
  C   C188      1.0  0.32730  0.56712  0.43482  1.0000
  H   H121      1.0  0.33607  0.57276  0.49357  1.0000
  C   C189      1.0  0.23066  0.55869  0.31576  1.0000
  C   C190      1.0  0.23672  0.55207  0.39713  1.0000
  C   C191      1.0  0.25689  0.55126  0.40197  1.0000
  H   H122      1.0  0.26033  0.54574  0.46051  1.0000
  N   N31       1.0  0.30366  0.58056  0.48970  1.0000
  H   H123      1.0  0.31375  0.58735  0.54053  1.0000
  H   H124      1.0  0.29237  0.58493  0.48150  1.0000
  N   N32       1.0  0.22372  0.54774  0.47634  1.0000
  O   O25       1.0  0.23439  0.56168  0.53748  1.0000
  O   O26       1.0  0.21687  0.52825  0.50603  1.0000
  C   C192      1.0  0.44093  0.74079  0.42509  1.0000
  C   C193      1.0  0.44283  0.76219  0.43483  1.0000
  H   H125      1.0  0.43717  0.76531  0.49355  1.0000
  C   C194      1.0  0.45126  0.67400  0.31578  1.0000
  C   C195      1.0  0.45787  0.68667  0.39716  1.0000
  C   C196      1.0  0.45871  0.70767  0.40195  1.0000
  H   H126      1.0  0.46419  0.71661  0.46055  1.0000
  N   N33       1.0  0.42939  0.72510  0.48961  1.0000
  H   H127      1.0  0.42250  0.72839  0.54015  1.0000
  H   H128      1.0  0.42493  0.70943  0.48111  1.0000
  N   N34       1.0  0.46216  0.67799  0.47641  1.0000
  O   O27       1.0  0.44821  0.67474  0.53748  1.0000
  O   O28       1.0  0.48165  0.69062  0.50619  1.0000
  C   C197      1.0  0.26915  0.70209  0.42507  1.0000
  C   C198      1.0  0.24775  0.68257  0.43478  1.0000
  H   H129      1.0  0.24464  0.67379  0.49350  1.0000
  C   C199      1.0  0.33591  0.77924  0.31579  1.0000
  C   C200      1.0  0.32325  0.77316  0.39720  1.0000
  C   C201      1.0  0.30227  0.75299  0.40202  1.0000
  H   H130      1.0  0.29332  0.74953  0.46059  1.0000
  N   N35       1.0  0.28484  0.70621  0.48955  1.0000
  H   H131      1.0  0.28156  0.69611  0.54033  1.0000
  H   H132      1.0  0.30050  0.71750  0.48130  1.0000
  N   N36       1.0  0.33193  0.78614  0.47645  1.0000
  O   O29       1.0  0.33520  0.77544  0.53748  1.0000
  O   O30       1.0  0.31929  0.79298  0.50629  1.0000
  C   C202      1.0  0.70418  0.43964  0.42443  1.0000
  C   C203      1.0  0.68461  0.44143  0.43381  1.0000
  H   H133      1.0  0.67584  0.43581  0.49256  1.0000
  C   C204      1.0  0.78137  0.45001  0.31623  1.0000
  C   C205      1.0  0.77524  0.45664  0.39742  1.0000
  C   C206      1.0  0.75510  0.45752  0.40176  1.0000
  H   H134      1.0  0.75159  0.46300  0.46025  1.0000
  N   N37       1.0  0.70837  0.42819  0.48926  1.0000
  H   H135      1.0  0.69818  0.42131  0.53975  1.0000
  H   H136      1.0  0.71962  0.42377  0.48097  1.0000
  N   N38       1.0  0.78812  0.46091  0.47692  1.0000
  O   O31       1.0  0.77734  0.44698  0.53793  1.0000
  O   O32       1.0  0.79500  0.48041  0.50659  1.0000
  C   C207      1.0  0.57029  0.26653  0.42451  1.0000
  C   C208      1.0  0.56852  0.24517  0.43381  1.0000
  H   H137      1.0  0.57412  0.24201  0.49258  1.0000
  C   C209      1.0  0.55991  0.33335  0.31627  1.0000
  C   C210      1.0  0.55328  0.32060  0.39744  1.0000
  C   C211      1.0  0.55243  0.29959  0.40184  1.0000
  H   H138      1.0  0.54691  0.29058  0.46025  1.0000
  N   N39       1.0  0.58173  0.28216  0.48937  1.0000
  H   H139      1.0  0.58853  0.27882  0.54009  1.0000
  H   H140      1.0  0.58607  0.29781  0.48148  1.0000
  N   N40       1.0  0.54897  0.32919  0.47692  1.0000
  O   O33       1.0  0.56290  0.33235  0.53799  1.0000
  O   O34       1.0  0.52947  0.31654  0.50651  1.0000
  C   C212      1.0  0.74336  0.30570  0.42443  1.0000
  C   C213      1.0  0.76472  0.32528  0.43380  1.0000
  H   H141      1.0  0.76787  0.33405  0.49254  1.0000
  C   C214      1.0  0.67656  0.22850  0.31623  1.0000
  C   C215      1.0  0.68930  0.23463  0.39742  1.0000
  C   C216      1.0  0.71032  0.25478  0.40178  1.0000
  H   H142      1.0  0.71932  0.25829  0.46026  1.0000
  N   N41       1.0  0.72773  0.30151  0.48927  1.0000
  H   H143      1.0  0.73103  0.31170  0.53976  1.0000
  H   H144      1.0  0.71206  0.29026  0.48100  1.0000
  N   N42       1.0  0.68071  0.22175  0.47692  1.0000
  O   O35       1.0  0.67755  0.23253  0.53794  1.0000
  O   O36       1.0  0.69334  0.21489  0.50657  1.0000
