data_image0
_chemical_formula_structural       C18H17C2NCOCH3CNCOCH3C3NC3NC5NC4NC35H25NCHNC2H
_chemical_formula_sum              "C78 H50 N8 O2"
_cell_length_a       29.9078
_cell_length_b       29.9076
_cell_length_c       14.8476
_cell_angle_alpha    90
_cell_angle_beta     90
_cell_angle_gamma    89.9283

_space_group_name_H-M_alt    "P 1"
_space_group_IT_number       1

loop_
  _space_group_symop_operation_xyz
  'x, y, z'

loop_
  _atom_site_type_symbol
  _atom_site_label
  _atom_site_symmetry_multiplicity
  _atom_site_fract_x
  _atom_site_fract_y
  _atom_site_fract_z
  _atom_site_occupancy
  C   C1        1.0  0.91215  0.96377  0.34520  1.0000
  C   C2        1.0  0.01219  0.77107  0.26317  1.0000
  C   C3        1.0  0.01149  0.81814  0.26356  1.0000
  C   C4        1.0  0.03951  0.67420  0.28568  1.0000
  C   C5        1.0  0.03983  0.62713  0.28420  1.0000
  C   C6        1.0  0.01110  0.60205  0.34053  1.0000
  C   C7        1.0  0.77131  0.01385  0.26551  1.0000
  C   C8        1.0  0.81839  0.01336  0.26478  1.0000
  C   C9        1.0  0.62651  0.98898  0.27679  1.0000
  C   C10       1.0  0.67359  0.98827  0.27613  1.0000
  C   C11       1.0  0.01419  0.19648  0.26425  1.0000
  C   C12       1.0  0.01445  0.24356  0.26495  1.0000
  C   C13       1.0  0.98966  0.38839  0.27621  1.0000
  C   C14       1.0  0.98883  0.34131  0.27566  1.0000
  C   C15       1.0  0.19685  0.01100  0.26401  1.0000
  C   C16       1.0  0.24392  0.01148  0.26384  1.0000
  C   C17       1.0  0.34063  0.03874  0.28733  1.0000
  C   C18       1.0  0.38770  0.03907  0.28595  1.0000
  H   H1        1.0  0.40346  0.06158  0.24496  1.0000
  H   H2        1.0  0.32400  0.06093  0.24691  1.0000
  H   H3        1.0  0.25998  0.01307  0.20308  1.0000
  H   H4        1.0  0.18010  0.01293  0.20401  1.0000
  H   H5        1.0  0.01957  0.17999  0.20478  1.0000
  H   H6        1.0  0.02073  0.25981  0.20565  1.0000
  H   H7        1.0  0.91805  0.85592  0.34304  1.0000
  H   H8        1.0  0.83488  0.01858  0.20527  1.0000
  H   H9        1.0  0.75506  0.02014  0.20619  1.0000
  H   H10       1.0  0.68931  0.97255  0.22371  1.0000
  H   H11       1.0  0.60993  0.97402  0.22456  1.0000
  H   H12       1.0  0.01298  0.83497  0.20357  1.0000
  H   H13       1.0  0.01350  0.75508  0.20230  1.0000
  H   H14       1.0  0.06214  0.61133  0.24271  1.0000
  H   H15       1.0  0.06150  0.69081  0.24487  1.0000
  H   H16       1.0  0.97301  0.32564  0.22336  1.0000
  H   H17       1.0  0.97468  0.40501  0.22400  1.0000
  C   C19       1.0  0.01101  0.55437  0.33968  1.0000
  C   C20       1.0  0.00998  0.46021  0.34786  1.0000
  N   N1        1.0  0.01203  0.48276  0.26829  1.0000
  C   C21       1.0  0.01247  0.52805  0.26033  1.0000
  O   O1        1.0  0.01421  0.54595  0.17566  1.0000
  C   C22       1.0  0.97089  0.55119  0.13507  1.0000
  H   H18       1.0  0.97547  0.56567  0.06834  1.0000
  H   H19       1.0  0.94973  0.57380  0.17424  1.0000
  H   H20       1.0  0.95405  0.51901  0.12721  1.0000
  C   C23       1.0  0.46049  0.00994  0.34087  1.0000
  N   N2        1.0  0.53203  0.01123  0.26930  1.0000
  C   C24       1.0  0.48674  0.01164  0.26146  1.0000
  O   O2        1.0  0.46878  0.01365  0.17687  1.0000
  C   C25       1.0  0.46339  0.97044  0.13594  1.0000
  H   H21       1.0  0.44889  0.97523  0.06927  1.0000
  H   H22       1.0  0.44073  0.94932  0.17498  1.0000
  H   H23       1.0  0.49551  0.95343  0.12789  1.0000
  C   C26       1.0  0.12407  0.92436  0.34577  1.0000
  C   C27       1.0  0.09159  0.89159  0.34599  1.0000
  C   C28       1.0  0.04973  0.91241  0.34613  1.0000
  N   N3        1.0  0.05844  0.95691  0.34630  1.0000
  C   C29       1.0  0.10287  0.96603  0.34606  1.0000
  C   C30       1.0  0.12526  0.00801  0.34602  1.0000
  C   C31       1.0  0.10352  0.05027  0.34572  1.0000
  N   N4        1.0  0.05911  0.05875  0.34447  1.0000
  C   C32       1.0  0.05024  0.10310  0.34485  1.0000
  C   C33       1.0  0.09174  0.12445  0.34670  1.0000
  C   C34       1.0  0.12454  0.09194  0.34705  1.0000
  C   C35       1.0  0.00778  0.12447  0.34435  1.0000
  C   C36       1.0  0.96601  0.10166  0.34430  1.0000
  N   N5        1.0  0.95727  0.05715  0.34432  1.0000
  C   C37       1.0  0.91284  0.04802  0.34450  1.0000
  C   C38       1.0  0.89167  0.08971  0.34470  1.0000
  C   C39       1.0  0.92415  0.12247  0.34406  1.0000
  C   C40       1.0  0.89040  0.00604  0.34481  1.0000
  N   N6        1.0  0.95658  0.95531  0.34615  1.0000
  C   C41       1.0  0.96548  0.91097  0.34575  1.0000
  C   C42       1.0  0.92400  0.88956  0.34431  1.0000
  C   C43       1.0  0.89119  0.92206  0.34385  1.0000
  C   C44       1.0  0.00795  0.88963  0.34600  1.0000
  C   C45       1.0  0.00859  0.84191  0.34549  1.0000
  C   C46       1.0  0.00632  0.81760  0.42685  1.0000
  C   C47       1.0  0.00694  0.77052  0.42612  1.0000
  C   C48       1.0  0.00991  0.74620  0.34435  1.0000
  C   C49       1.0  0.01053  0.69824  0.34363  1.0000
  C   C50       1.0  0.98269  0.62594  0.39968  1.0000
  C   C51       1.0  0.98224  0.67303  0.40083  1.0000
  C   C52       1.0  0.84264  0.00624  0.34509  1.0000
  C   C53       1.0  0.81873  0.99944  0.42590  1.0000
  C   C54       1.0  0.77165  0.99973  0.42621  1.0000
  C   C55       1.0  0.74683  0.00705  0.34616  1.0000
  C   C56       1.0  0.69880  0.00761  0.34687  1.0000
  C   C57       1.0  0.67463  0.02768  0.41832  1.0000
  C   C58       1.0  0.62755  0.02798  0.41951  1.0000
  C   C59       1.0  0.60243  0.00850  0.34889  1.0000
  C   C60       1.0  0.00722  0.17223  0.34459  1.0000
  C   C61       1.0  0.00764  0.26803  0.34563  1.0000
  C   C62       1.0  0.00044  0.24320  0.42570  1.0000
  C   C63       1.0  0.00035  0.19612  0.42541  1.0000
  C   C64       1.0  0.00822  0.31605  0.34634  1.0000
  C   C65       1.0  0.02845  0.34016  0.41761  1.0000
  C   C66       1.0  0.02889  0.38724  0.41867  1.0000
  C   C67       1.0  0.00939  0.41242  0.34810  1.0000
  C   C68       1.0  0.17298  0.00787  0.34577  1.0000
  C   C69       1.0  0.19719  0.00512  0.42723  1.0000
  C   C70       1.0  0.24429  0.00553  0.42671  1.0000
  C   C71       1.0  0.26869  0.00881  0.34510  1.0000
  C   C72       1.0  0.31664  0.00946  0.34461  1.0000
  C   C73       1.0  0.41281  0.01007  0.34178  1.0000
  C   C74       1.0  0.38897  0.98141  0.40040  1.0000
  C   C75       1.0  0.34189  0.98094  0.40139  1.0000
  H   H24       1.0  0.40575  0.95965  0.44157  1.0000
  H   H25       1.0  0.32618  0.95863  0.44295  1.0000
  H   H26       1.0  0.26058  0.00436  0.48720  1.0000
  H   H27       1.0  0.18071  0.00311  0.48741  1.0000
  H   H28       1.0  0.15769  0.91816  0.34543  1.0000
  H   H29       1.0  0.09810  0.85803  0.34586  1.0000
  H   H30       1.0  0.03562  0.97952  0.34670  1.0000
  H   H31       1.0  0.98008  0.03454  0.34419  1.0000
  H   H32       1.0  0.15812  0.09821  0.34878  1.0000
  H   H33       1.0  0.09776  0.15808  0.34813  1.0000
  H   H34       1.0  0.99515  0.17938  0.48464  1.0000
  H   H35       1.0  0.99451  0.25920  0.48543  1.0000
  H   H36       1.0  0.91761  0.15603  0.34384  1.0000
  H   H37       1.0  0.85807  0.09597  0.34516  1.0000
  H   H38       1.0  0.85762  0.91575  0.34210  1.0000
  H   H39       1.0  0.83546  0.99402  0.48508  1.0000
  H   H40       1.0  0.75566  0.99375  0.48591  1.0000
  H   H41       1.0  0.61183  0.04378  0.47180  1.0000
  H   H42       1.0  0.69112  0.04323  0.46991  1.0000
  H   H43       1.0  0.96014  0.68876  0.44286  1.0000
  H   H44       1.0  0.96113  0.60921  0.44127  1.0000
  H   H45       1.0  0.00599  0.75413  0.48659  1.0000
  H   H46       1.0  0.00436  0.83404  0.48722  1.0000
  H   H47       1.0  0.04407  0.32361  0.46911  1.0000
  H   H48       1.0  0.04484  0.40290  0.47081  1.0000
  N   N7        1.0  0.00815  0.53193  0.41927  1.0000
  C   C76       1.0  0.00779  0.48669  0.42660  1.0000
  H   H49       1.0  0.00486  0.47275  0.48910  1.0000
  N   N8        1.0  0.48298  0.00687  0.42037  1.0000
  C   C77       1.0  0.52821  0.00650  0.42757  1.0000
  C   C78       1.0  0.55464  0.00897  0.34878  1.0000
  H   H50       1.0  0.54221  0.00347  0.49001  1.0000
