data_image0
_chemical_formula_structural       C4HC4H3NHC4HC4H3NHC4HC4H3NHCNCNCNC18H12C3O3CNCNCNC18H12C3O3CNC2NC2H3CH3NHCNC2NC2H3CH3NHCNC2NC2H3CH3NH
_chemical_formula_sum              "C90 H60 N18 O6"
_cell_length_a       44.0696
_cell_length_b       44.0692
_cell_length_c       15.1017
_cell_angle_alpha    90
_cell_angle_beta     90
_cell_angle_gamma    120

_space_group_name_H-M_alt    "P 1"
_space_group_IT_number       1

loop_
  _space_group_symop_operation_xyz
  'x, y, z'

loop_
  _atom_site_type_symbol
  _atom_site_label
  _atom_site_symmetry_multiplicity
  _atom_site_fract_x
  _atom_site_fract_y
  _atom_site_fract_z
  _atom_site_occupancy
  C   C1        1.0  0.53798  0.44830  0.30707  1.0000
  C   C2        1.0  0.50422  0.48765  0.32200  1.0000
  C   C3        1.0  0.51204  0.48014  0.23643  1.0000
  C   C4        1.0  0.52890  0.46020  0.23010  1.0000
  H   H1        1.0  0.53503  0.45458  0.16912  1.0000
  C   C5        1.0  0.45936  0.53771  0.26794  1.0000
  C   C6        1.0  0.47726  0.51906  0.25547  1.0000
  C   C7        1.0  0.48535  0.51183  0.17038  1.0000
  C   C8        1.0  0.50269  0.49252  0.16092  1.0000
  H   H2        1.0  0.47849  0.52031  0.11485  1.0000
  H   H3        1.0  0.50811  0.48733  0.09870  1.0000
  H   H4        1.0  0.45226  0.54680  0.21393  1.0000
  N   N1        1.0  0.55421  0.42913  0.29782  1.0000
  H   H5        1.0  0.54257  0.40839  0.26026  1.0000
  C   C9        1.0  0.54328  0.08799  0.30710  1.0000
  C   C10       1.0  0.50392  0.01488  0.32204  1.0000
  C   C11       1.0  0.51143  0.03021  0.23646  1.0000
  C   C12       1.0  0.53138  0.06701  0.23014  1.0000
  H   H6        1.0  0.53700  0.07876  0.16915  1.0000
  C   C13       1.0  0.45387  0.91995  0.26797  1.0000
  C   C14       1.0  0.47251  0.95651  0.25551  1.0000
  C   C15       1.0  0.47974  0.97183  0.17042  1.0000
  C   C16       1.0  0.49905  0.00848  0.16095  1.0000
  H   H7        1.0  0.47128  0.95649  0.11488  1.0000
  H   H8        1.0  0.50425  0.01909  0.09874  1.0000
  H   H9        1.0  0.44479  0.90376  0.21397  1.0000
  N   N2        1.0  0.56245  0.12340  0.29785  1.0000
  H   H10       1.0  0.58320  0.13250  0.26032  1.0000
  C   C17       1.0  0.90359  0.45356  0.30700  1.0000
  C   C18       1.0  0.97670  0.48735  0.32197  1.0000
  C   C19       1.0  0.96138  0.47953  0.23639  1.0000
  C   C20       1.0  0.92458  0.46265  0.23004  1.0000
  H   H11       1.0  0.91284  0.45653  0.16905  1.0000
  C   C21       1.0  0.07163  0.53226  0.26796  1.0000
  C   C22       1.0  0.03507  0.51433  0.25547  1.0000
  C   C23       1.0  0.01976  0.50624  0.17037  1.0000
  C   C24       1.0  0.98312  0.48889  0.16089  1.0000
  H   H12       1.0  0.03510  0.51313  0.11485  1.0000
  H   H13       1.0  0.97251  0.48349  0.09866  1.0000
  H   H14       1.0  0.08783  0.53937  0.21397  1.0000
  N   N3        1.0  0.86819  0.43731  0.29769  1.0000
  H   H15       1.0  0.85904  0.44896  0.26033  1.0000
  C   C25       1.0  0.29244  0.64896  0.32564  1.0000
  N   N4        1.0  0.30739  0.62847  0.32571  1.0000
  C   C26       1.0  0.34262  0.64180  0.32565  1.0000
  N   N5        1.0  0.36311  0.67724  0.32567  1.0000
  C   C27       1.0  0.34978  0.69914  0.32560  1.0000
  N   N6        1.0  0.31433  0.68419  0.32566  1.0000
  C   C28       1.0  0.35746  0.61962  0.32615  1.0000
  C   C29       1.0  0.33608  0.58266  0.32867  1.0000
  C   C30       1.0  0.35089  0.56086  0.32879  1.0000
  C   C31       1.0  0.38763  0.57529  0.32763  1.0000
  C   C32       1.0  0.40905  0.61215  0.32448  1.0000
  C   C33       1.0  0.39424  0.63389  0.32381  1.0000
  C   C34       1.0  0.25543  0.63413  0.32615  1.0000
  C   C35       1.0  0.23291  0.59735  0.32383  1.0000
  C   C36       1.0  0.19635  0.58254  0.32453  1.0000
  C   C37       1.0  0.18093  0.60397  0.32765  1.0000
  C   C38       1.0  0.20324  0.64071  0.32878  1.0000
  C   C39       1.0  0.23985  0.65551  0.32866  1.0000
  C   C40       1.0  0.37196  0.73615  0.32607  1.0000
  C   C41       1.0  0.35769  0.75867  0.32370  1.0000
  C   C42       1.0  0.37944  0.79522  0.32441  1.0000
  C   C43       1.0  0.41629  0.81065  0.32757  1.0000
  C   C44       1.0  0.43072  0.78834  0.32871  1.0000
  C   C45       1.0  0.40892  0.75173  0.32860  1.0000
  H   H16       1.0  0.18120  0.55588  0.32029  1.0000
  H   H17       1.0  0.24276  0.58071  0.32083  1.0000
  H   H18       1.0  0.19308  0.65710  0.33084  1.0000
  H   H19       1.0  0.25494  0.68223  0.33023  1.0000
  H   H20       1.0  0.33121  0.74882  0.32072  1.0000
  H   H21       1.0  0.36793  0.81038  0.32019  1.0000
  H   H22       1.0  0.42056  0.73665  0.33019  1.0000
  H   H23       1.0  0.45728  0.79851  0.33082  1.0000
  H   H24       1.0  0.41087  0.66038  0.32083  1.0000
  H   H25       1.0  0.43572  0.62366  0.32029  1.0000
  H   H26       1.0  0.33450  0.53430  0.33086  1.0000
  H   H27       1.0  0.30936  0.57102  0.33025  1.0000
  C   C46       1.0  0.14399  0.58898  0.32519  1.0000
  C   C47       1.0  0.43823  0.84759  0.32515  1.0000
  C   C48       1.0  0.40263  0.55336  0.32517  1.0000
  O   O1        1.0  0.38459  0.52209  0.28314  1.0000
  O   O2        1.0  0.46951  0.86082  0.28315  1.0000
  O   O3        1.0  0.13077  0.60702  0.28317  1.0000
  C   C49       1.0  0.69745  0.34425  0.32582  1.0000
  N   N7        1.0  0.68256  0.36480  0.32576  1.0000
  C   C50       1.0  0.64734  0.35152  0.32576  1.0000
  N   N8        1.0  0.62679  0.31607  0.32570  1.0000
  C   C51       1.0  0.64007  0.29414  0.32576  1.0000
  N   N9        1.0  0.67552  0.30903  0.32576  1.0000
  C   C52       1.0  0.63255  0.37372  0.32549  1.0000
  C   C53       1.0  0.65378  0.41055  0.31673  1.0000
  C   C54       1.0  0.63896  0.43235  0.31647  1.0000
  C   C55       1.0  0.60235  0.41806  0.32405  1.0000
  C   C56       1.0  0.58114  0.38136  0.33389  1.0000
  C   C57       1.0  0.59595  0.35962  0.33441  1.0000
  C   C58       1.0  0.73444  0.35903  0.32560  1.0000
  C   C59       1.0  0.75694  0.39563  0.33458  1.0000
  C   C60       1.0  0.79349  0.41042  0.33414  1.0000
  C   C61       1.0  0.80897  0.38921  0.32420  1.0000
  C   C62       1.0  0.78665  0.35260  0.31658  1.0000
  C   C63       1.0  0.75003  0.33779  0.31682  1.0000
  C   C64       1.0  0.61786  0.25715  0.32549  1.0000
  C   C65       1.0  0.63197  0.23465  0.33440  1.0000
  C   C66       1.0  0.61023  0.19810  0.33394  1.0000
  C   C67       1.0  0.57353  0.18261  0.32409  1.0000
  C   C68       1.0  0.55924  0.20493  0.31651  1.0000
  C   C69       1.0  0.58104  0.24155  0.31674  1.0000
  H   H28       1.0  0.80858  0.43688  0.34335  1.0000
  H   H29       1.0  0.74708  0.41210  0.34258  1.0000
  H   H30       1.0  0.79681  0.33633  0.30954  1.0000
  H   H31       1.0  0.73493  0.31120  0.31016  1.0000
  H   H32       1.0  0.65831  0.24452  0.34243  1.0000
  H   H33       1.0  0.62160  0.18302  0.34321  1.0000
  H   H34       1.0  0.56954  0.25664  0.31014  1.0000
  H   H35       1.0  0.53280  0.19476  0.30955  1.0000
  H   H36       1.0  0.57949  0.33328  0.34244  1.0000
  H   H37       1.0  0.55469  0.36999  0.34319  1.0000
  H   H38       1.0  0.65523  0.45879  0.30951  1.0000
  H   H39       1.0  0.68037  0.42205  0.31013  1.0000
  C   C70       1.0  0.84593  0.40410  0.32613  1.0000
  C   C71       1.0  0.55147  0.14565  0.32613  1.0000
  C   C72       1.0  0.58745  0.44012  0.32606  1.0000
  O   O4        1.0  0.60661  0.47245  0.36222  1.0000
  O   O5        1.0  0.51912  0.13248  0.36218  1.0000
  O   O6        1.0  0.85911  0.38492  0.36213  1.0000
  C   C73       1.0  0.52883  0.45587  0.39111  1.0000
  N   N10       1.0  0.51266  0.47516  0.39432  1.0000
  C   C74       1.0  0.48701  0.50711  0.33159  1.0000
  C   C75       1.0  0.45120  0.54423  0.35391  1.0000
  N   N11       1.0  0.47942  0.51442  0.41322  1.0000
  C   C76       1.0  0.46253  0.53263  0.42784  1.0000
  C   C77       1.0  0.53387  0.44295  0.47723  1.0000
  H   H40       1.0  0.54401  0.42503  0.47040  1.0000
  H   H41       1.0  0.50882  0.42898  0.51186  1.0000
  H   H42       1.0  0.55212  0.46515  0.51771  1.0000
  C   C78       1.0  0.45564  0.53821  0.52054  1.0000
  H   H43       1.0  0.46545  0.52617  0.56713  1.0000
  H   H44       1.0  0.42749  0.52667  0.53103  1.0000
  H   H45       1.0  0.46859  0.56621  0.53483  1.0000
  N   N12       1.0  0.43404  0.56259  0.36357  1.0000
  H   H46       1.0  0.44447  0.58260  0.40365  1.0000
  C   C79       1.0  0.53570  0.07128  0.39115  1.0000
  N   N13       1.0  0.51640  0.03581  0.39436  1.0000
  C   C80       1.0  0.48445  0.97822  0.33162  1.0000
  C   C81       1.0  0.44736  0.90528  0.35395  1.0000
  N   N14       1.0  0.47715  0.96331  0.41326  1.0000
  C   C82       1.0  0.45895  0.92822  0.42787  1.0000
  C   C83       1.0  0.54861  0.08923  0.47727  1.0000
  H   H47       1.0  0.56654  0.11728  0.47045  1.0000
  H   H48       1.0  0.56256  0.07814  0.51192  1.0000
  H   H49       1.0  0.52641  0.08529  0.51773  1.0000
  C   C84       1.0  0.45337  0.91575  0.52058  1.0000
  H   H50       1.0  0.46540  0.93759  0.56717  1.0000
  H   H51       1.0  0.46493  0.89915  0.53108  1.0000
  H   H52       1.0  0.42537  0.90068  0.53486  1.0000
  N   N15       1.0  0.42902  0.86976  0.36362  1.0000
  H   H53       1.0  0.40898  0.86017  0.40360  1.0000
  C   C85       1.0  0.92029  0.46271  0.39105  1.0000
  N   N16       1.0  0.95576  0.47889  0.39427  1.0000
  C   C86       1.0  0.01336  0.50456  0.33158  1.0000
  C   C87       1.0  0.08629  0.54042  0.35395  1.0000
  N   N17       1.0  0.02826  0.51216  0.41322  1.0000
  C   C88       1.0  0.06335  0.52906  0.42786  1.0000
  C   C89       1.0  0.90234  0.45767  0.47715  1.0000
  H   H54       1.0  0.87429  0.44756  0.47032  1.0000
  H   H55       1.0  0.91343  0.48273  0.51179  1.0000
  H   H56       1.0  0.90627  0.43942  0.51764  1.0000
  C   C90       1.0  0.07580  0.53594  0.52058  1.0000
  H   H57       1.0  0.05396  0.52612  0.56715  1.0000
  H   H58       1.0  0.09240  0.56409  0.53109  1.0000
  H   H59       1.0  0.09087  0.52301  0.53486  1.0000
  N   N18       1.0  0.12181  0.55758  0.36365  1.0000
  H   H60       1.0  0.13139  0.54713  0.40365  1.0000
