data_image0
_chemical_formula_structural       C13H9C13H9C13H9C13H9C8H3NO2C8H3NO2C8H3NO2C2HC2HC2H4C2HC2HC2H4C2HC2HC2H4C17H12C17H12C17H12C17H12C2HC2HC2H4C2HC2HC2H4C2HC2HC2H4C8H3NO2C8H3NO2C8H3NO2
_chemical_formula_sum              "C204 H138 N6 O12"
_cell_length_a       68.8852
_cell_length_b       68.8685
_cell_length_c       14.9783
_cell_angle_alpha    90
_cell_angle_beta     90
_cell_angle_gamma    120.004

_space_group_name_H-M_alt    "P 1"
_space_group_IT_number       1

loop_
  _space_group_symop_operation_xyz
  'x, y, z'

loop_
  _atom_site_type_symbol
  _atom_site_label
  _atom_site_symmetry_multiplicity
  _atom_site_fract_x
  _atom_site_fract_y
  _atom_site_fract_z
  _atom_site_occupancy
  C   C1        1.0  0.92517  0.86489  0.33483  1.0000
  C   C2        1.0  0.94642  0.91277  0.33499  1.0000
  C   C3        1.0  0.92288  0.89936  0.34231  1.0000
  C   C4        1.0  0.91245  0.87581  0.34282  1.0000
  C   C5        1.0  0.95631  0.93596  0.33077  1.0000
  C   C6        1.0  0.05524  0.02088  0.33114  1.0000
  C   C7        1.0  0.09182  0.02404  0.34287  1.0000
  C   C8        1.0  0.12629  0.06078  0.33525  1.0000
  C   C9        1.0  0.11536  0.03715  0.34345  1.0000
  C   C10       1.0  0.97036  0.03496  0.33116  1.0000
  C   C11       1.0  0.93347  0.03200  0.32674  1.0000
  C   C12       1.0  0.93038  0.06602  0.33508  1.0000
  C   C13       1.0  0.92037  0.04245  0.32666  1.0000
  H   H1        1.0  0.89533  0.86668  0.34642  1.0000
  H   H2        1.0  0.91307  0.90662  0.34674  1.0000
  H   H3        1.0  0.92563  0.01496  0.31915  1.0000
  H   H4        1.0  0.08455  0.00696  0.34742  1.0000
  H   H5        1.0  0.12448  0.02914  0.34706  1.0000
  H   H6        1.0  0.90335  0.03261  0.32069  1.0000
  H   H7        1.0  0.04903  0.00838  0.28716  1.0000
  H   H8        1.0  0.95002  0.94218  0.28679  1.0000
  H   H9        1.0  0.98291  0.04131  0.28739  1.0000
  C   C14       1.0  0.50924  0.34258  0.34745  1.0000
  C   C15       1.0  0.47886  0.29576  0.32705  1.0000
  C   C16       1.0  0.50120  0.30364  0.35412  1.0000
  C   C17       1.0  0.51613  0.32671  0.36463  1.0000
  C   C18       1.0  0.46484  0.27298  0.31508  1.0000
  C   C19       1.0  0.36597  0.18613  0.31976  1.0000
  C   C20       1.0  0.33010  0.18288  0.28466  1.0000
  C   C21       1.0  0.29466  0.14939  0.32591  1.0000
  C   C22       1.0  0.30652  0.17074  0.28513  1.0000
  C   C23       1.0  0.45117  0.17636  0.32794  1.0000
  C   C24       1.0  0.48720  0.18206  0.28107  1.0000
  C   C25       1.0  0.50066  0.15704  0.33358  1.0000
  C   C26       1.0  0.50385  0.17596  0.28410  1.0000
  H   H10       1.0  0.53233  0.33185  0.38271  1.0000
  H   H11       1.0  0.50687  0.29267  0.36607  1.0000
  H   H12       1.0  0.49031  0.19614  0.24623  1.0000
  H   H13       1.0  0.33804  0.19828  0.25430  1.0000
  H   H14       1.0  0.29805  0.17774  0.25571  1.0000
  H   H15       1.0  0.51870  0.18599  0.25209  1.0000
  H   H16       1.0  0.37276  0.19442  0.26329  1.0000
  H   H17       1.0  0.46890  0.26568  0.26690  1.0000
  H   H18       1.0  0.43995  0.17101  0.27881  1.0000
  C   C27       1.0  0.64845  0.16706  0.34755  1.0000
  C   C28       1.0  0.69527  0.18358  0.32727  1.0000
  C   C29       1.0  0.68734  0.19803  0.35407  1.0000
  C   C30       1.0  0.66427  0.18983  0.36452  1.0000
  C   C31       1.0  0.71806  0.19240  0.31548  1.0000
  C   C32       1.0  0.80491  0.18024  0.31958  1.0000
  C   C33       1.0  0.80822  0.14767  0.28400  1.0000
  C   C34       1.0  0.84166  0.14567  0.32573  1.0000
  C   C35       1.0  0.82036  0.13623  0.28449  1.0000
  C   C36       1.0  0.81472  0.27520  0.32786  1.0000
  C   C37       1.0  0.80904  0.30553  0.28077  1.0000
  C   C38       1.0  0.83400  0.34400  0.33352  1.0000
  C   C39       1.0  0.81513  0.32829  0.28386  1.0000
  H   H19       1.0  0.65909  0.20087  0.38245  1.0000
  H   H20       1.0  0.69828  0.21468  0.36592  1.0000
  H   H21       1.0  0.79498  0.29457  0.24589  1.0000
  H   H22       1.0  0.79287  0.14025  0.25331  1.0000
  H   H23       1.0  0.81341  0.12079  0.25472  1.0000
  H   H24       1.0  0.80510  0.33310  0.25178  1.0000
  H   H25       1.0  0.79670  0.17882  0.26299  1.0000
  H   H26       1.0  0.72537  0.20374  0.26727  1.0000
  H   H27       1.0  0.81990  0.26930  0.27825  1.0000
  C   C40       1.0  0.82400  0.48184  0.34764  1.0000
  C   C41       1.0  0.80746  0.51214  0.32743  1.0000
  C   C42       1.0  0.79303  0.48975  0.35420  1.0000
  C   C43       1.0  0.80122  0.47487  0.36463  1.0000
  C   C44       1.0  0.79863  0.52610  0.31566  1.0000
  C   C45       1.0  0.81088  0.62515  0.31980  1.0000
  C   C46       1.0  0.84351  0.66104  0.28477  1.0000
  C   C47       1.0  0.84545  0.69648  0.32589  1.0000
  C   C48       1.0  0.85495  0.68463  0.28520  1.0000
  C   C49       1.0  0.71585  0.53998  0.32782  1.0000
  C   C50       1.0  0.68551  0.50398  0.28070  1.0000
  C   C51       1.0  0.64705  0.49047  0.33347  1.0000
  C   C52       1.0  0.66276  0.48732  0.28378  1.0000
  H   H28       1.0  0.79019  0.45865  0.38251  1.0000
  H   H29       1.0  0.77637  0.48403  0.36604  1.0000
  H   H30       1.0  0.69647  0.50089  0.24576  1.0000
  H   H31       1.0  0.85097  0.65310  0.25448  1.0000
  H   H32       1.0  0.87043  0.69310  0.25584  1.0000
  H   H33       1.0  0.65794  0.47247  0.25166  1.0000
  H   H34       1.0  0.81238  0.61837  0.26332  1.0000
  H   H35       1.0  0.78727  0.52202  0.26749  1.0000
  H   H36       1.0  0.72173  0.55117  0.27858  1.0000
  C   C53       1.0  0.27075  0.13692  0.32410  1.0000
  C   C54       1.0  0.25903  0.13346  0.24307  1.0000
  C   C55       1.0  0.23533  0.12088  0.23876  1.0000
  C   C56       1.0  0.22260  0.11209  0.31866  1.0000
  C   C57       1.0  0.19835  0.09926  0.32108  1.0000
  C   C58       1.0  0.18466  0.10355  0.26319  1.0000
  C   C59       1.0  0.16115  0.09102  0.26783  1.0000
  C   C60       1.0  0.15021  0.07390  0.33206  1.0000
  H   H37       1.0  0.19156  0.11644  0.21842  1.0000
  H   H38       1.0  0.15207  0.09443  0.22282  1.0000
  H   H39       1.0  0.26790  0.13943  0.18491  1.0000
  N   N1        1.0  0.22478  0.11576  0.15395  1.0000
  O   O1        1.0  0.22912  0.13314  0.11081  1.0000
  O   O2        1.0  0.23028  0.10407  0.10750  1.0000
  C   C61       1.0  0.85414  0.13425  0.32392  1.0000
  C   C62       1.0  0.85776  0.12615  0.24279  1.0000
  C   C63       1.0  0.87036  0.11504  0.23850  1.0000
  C   C64       1.0  0.87899  0.11094  0.31850  1.0000
  C   C65       1.0  0.89184  0.09954  0.32094  1.0000
  C   C66       1.0  0.88768  0.08167  0.26261  1.0000
  C   C67       1.0  0.90024  0.07072  0.26718  1.0000
  C   C68       1.0  0.91724  0.07680  0.33189  1.0000
  H   H40       1.0  0.87489  0.07577  0.21738  1.0000
  H   H41       1.0  0.89694  0.05833  0.22181  1.0000
  H   H42       1.0  0.85188  0.12914  0.18459  1.0000
  N   N2        1.0  0.87564  0.10978  0.15369  1.0000
  O   O3        1.0  0.85835  0.09681  0.10993  1.0000
  O   O4        1.0  0.88741  0.12706  0.10784  1.0000
  C   C69       1.0  0.85687  0.72040  0.32400  1.0000
  C   C70       1.0  0.86514  0.73211  0.24297  1.0000
  C   C71       1.0  0.87629  0.75581  0.23862  1.0000
  C   C72       1.0  0.88022  0.76856  0.31849  1.0000
  C   C73       1.0  0.89163  0.79282  0.32084  1.0000
  C   C74       1.0  0.90965  0.80651  0.26309  1.0000
  C   C75       1.0  0.92059  0.83002  0.26760  1.0000
  C   C76       1.0  0.91438  0.84097  0.33169  1.0000
  H   H43       1.0  0.91565  0.79961  0.21836  1.0000
  H   H44       1.0  0.93310  0.83911  0.22266  1.0000
  H   H45       1.0  0.86230  0.72324  0.18486  1.0000
  N   N3        1.0  0.88177  0.76636  0.15381  1.0000
  O   O5        1.0  0.89482  0.76201  0.11083  1.0000
  O   O6        1.0  0.86461  0.76087  0.10722  1.0000
  C   C77       1.0  0.54962  0.14967  0.27156  1.0000
  C   C78       1.0  0.53071  0.15244  0.26444  1.0000
  H   H46       1.0  0.52587  0.15483  0.20265  1.0000
  C   C79       1.0  0.61051  0.14891  0.28204  1.0000
  C   C80       1.0  0.58802  0.14419  0.28418  1.0000
  H   H47       1.0  0.61675  0.14614  0.22439  1.0000
  C   C81       1.0  0.57386  0.13610  0.20259  1.0000
  C   C82       1.0  0.56156  0.14955  0.18868  1.0000
  H   H48       1.0  0.56151  0.11836  0.21144  1.0000
  H   H49       1.0  0.58365  0.13763  0.14278  1.0000
  H   H50       1.0  0.54978  0.14188  0.13331  1.0000
  H   H51       1.0  0.57360  0.16685  0.17021  1.0000
  C   C83       1.0  0.84136  0.40035  0.27153  1.0000
  C   C84       1.0  0.83860  0.37867  0.26441  1.0000
  H   H52       1.0  0.83622  0.37145  0.20261  1.0000
  C   C85       1.0  0.84213  0.46203  0.28202  1.0000
  C   C86       1.0  0.84686  0.44427  0.28417  1.0000
  H   H53       1.0  0.84492  0.47106  0.22442  1.0000
  C   C87       1.0  0.85493  0.43818  0.20257  1.0000
  C   C88       1.0  0.84148  0.41243  0.18866  1.0000
  H   H54       1.0  0.87267  0.44357  0.21138  1.0000
  H   H55       1.0  0.85340  0.44644  0.14276  1.0000
  H   H56       1.0  0.84914  0.40830  0.13327  1.0000
  H   H57       1.0  0.82419  0.40717  0.17021  1.0000
  C   C89       1.0  0.59073  0.44148  0.27147  1.0000
  C   C90       1.0  0.61239  0.46041  0.26436  1.0000
  H   H58       1.0  0.61960  0.46528  0.20255  1.0000
  C   C91       1.0  0.52911  0.38052  0.28188  1.0000
  C   C92       1.0  0.54686  0.40302  0.28405  1.0000
  H   H59       1.0  0.52004  0.37430  0.22432  1.0000
  C   C93       1.0  0.55291  0.41722  0.20255  1.0000
  C   C94       1.0  0.57865  0.42955  0.18857  1.0000
  H   H60       1.0  0.54749  0.42955  0.21155  1.0000
  H   H61       1.0  0.54464  0.40744  0.14272  1.0000
  H   H62       1.0  0.58274  0.44136  0.13328  1.0000
  H   H63       1.0  0.58392  0.41753  0.16993  1.0000
  C   C95       1.0  0.94875  0.87843  0.32730  1.0000
  C   C96       1.0  0.95923  0.90198  0.32733  1.0000
  C   C97       1.0  0.97331  0.95016  0.38370  1.0000
  C   C98       1.0  0.98331  0.97341  0.37970  1.0000
  C   C99       1.0  0.97045  0.98424  0.38036  1.0000
  C   C100      1.0  0.98075  0.00789  0.37981  1.0000
  C   C101      1.0  0.00445  0.02076  0.38053  1.0000
  C   C102      1.0  0.01779  0.01046  0.37990  1.0000
  C   C103      1.0  0.00696  0.98675  0.38045  1.0000
  C   C104      1.0  0.04103  0.02370  0.38397  1.0000
  C   C105      1.0  0.07842  0.03418  0.33544  1.0000
  C   C106      1.0  0.08922  0.05777  0.32760  1.0000
  C   C107      1.0  0.11277  0.07084  0.32756  1.0000
  C   C108      1.0  0.96751  0.01789  0.38381  1.0000
  C   C109      1.0  0.95704  0.04482  0.33536  1.0000
  C   C110      1.0  0.96713  0.06834  0.34350  1.0000
  C   C111      1.0  0.95399  0.07874  0.34400  1.0000
  H   H64       1.0  0.95860  0.87123  0.32202  1.0000
  H   H65       1.0  0.97629  0.91118  0.32036  1.0000
  H   H66       1.0  0.01643  0.97908  0.38252  1.0000
  H   H67       1.0  0.95330  0.97476  0.38234  1.0000
  H   H68       1.0  0.01212  0.03791  0.38263  1.0000
  H   H69       1.0  0.11997  0.08788  0.32215  1.0000
  H   H70       1.0  0.08003  0.06565  0.32053  1.0000
  H   H71       1.0  0.96196  0.09586  0.34822  1.0000
  H   H72       1.0  0.98419  0.07816  0.34864  1.0000
  H   H73       1.0  0.04735  0.03626  0.42775  1.0000
  H   H74       1.0  0.97954  0.94384  0.42751  1.0000
  H   H75       1.0  0.95489  0.01159  0.42735  1.0000
  C   C112      1.0  0.48688  0.33460  0.31932  1.0000
  C   C113      1.0  0.47179  0.31144  0.30982  1.0000
  C   C114      1.0  0.44874  0.26014  0.37395  1.0000
  C   C115      1.0  0.43776  0.23686  0.37245  1.0000
  C   C116      1.0  0.45017  0.22558  0.37617  1.0000
  C   C117      1.0  0.43941  0.20194  0.38021  1.0000
  C   C118      1.0  0.41573  0.18947  0.38254  1.0000
  C   C119      1.0  0.40296  0.20037  0.37972  1.0000
  C   C120      1.0  0.41412  0.22406  0.37548  1.0000
  C   C121      1.0  0.37982  0.18793  0.38661  1.0000
  C   C122      1.0  0.34264  0.17406  0.32476  1.0000
  C   C123      1.0  0.33079  0.15262  0.36500  1.0000
  C   C124      1.0  0.30719  0.14058  0.36626  1.0000
  C   C125      1.0  0.45246  0.19183  0.38607  1.0000
  C   C126      1.0  0.46685  0.16941  0.32773  1.0000
  C   C127      1.0  0.46330  0.15034  0.37629  1.0000
  C   C128      1.0  0.48005  0.14431  0.37932  1.0000
  H   H76       1.0  0.48138  0.34562  0.30611  1.0000
  H   H77       1.0  0.45574  0.30615  0.28907  1.0000
  H   H78       1.0  0.40496  0.23207  0.37562  1.0000
  H   H79       1.0  0.46735  0.23476  0.37687  1.0000
  H   H80       1.0  0.40776  0.17235  0.38765  1.0000
  H   H81       1.0  0.29922  0.12495  0.39447  1.0000
  H   H82       1.0  0.33920  0.14535  0.39250  1.0000
  H   H83       1.0  0.47705  0.13048  0.41554  1.0000
  H   H84       1.0  0.44873  0.14098  0.41114  1.0000
  H   H85       1.0  0.37350  0.18000  0.44400  1.0000
  H   H86       1.0  0.44546  0.26736  0.42476  1.0000
  H   H87       1.0  0.46469  0.19792  0.43138  1.0000
  C   C129      1.0  0.65647  0.15270  0.31964  1.0000
  C   C130      1.0  0.67964  0.16081  0.31016  1.0000
  C   C131      1.0  0.73090  0.18905  0.37403  1.0000
  C   C132      1.0  0.75418  0.20132  0.37248  1.0000
  C   C133      1.0  0.76549  0.22502  0.37618  1.0000
  C   C134      1.0  0.78912  0.23786  0.38020  1.0000
  C   C135      1.0  0.80156  0.22662  0.38249  1.0000
  C   C136      1.0  0.79063  0.20294  0.37968  1.0000
  C   C137      1.0  0.76694  0.19044  0.37542  1.0000
  C   C138      1.0  0.80303  0.19221  0.38659  1.0000
  C   C139      1.0  0.81697  0.16897  0.32456  1.0000
  C   C140      1.0  0.83835  0.17850  0.36529  1.0000
  C   C141      1.0  0.85040  0.16695  0.36650  1.0000
  C   C142      1.0  0.79927  0.26102  0.38607  1.0000
  C   C143      1.0  0.82166  0.29783  0.32766  1.0000
  C   C144      1.0  0.84068  0.31335  0.37641  1.0000
  C   C145      1.0  0.84671  0.33613  0.37941  1.0000
  H   H88       1.0  0.64548  0.13615  0.30657  1.0000
  H   H89       1.0  0.68497  0.15007  0.28965  1.0000
  H   H90       1.0  0.75891  0.17326  0.37561  1.0000
  H   H91       1.0  0.75634  0.23305  0.37696  1.0000
  H   H92       1.0  0.81868  0.23574  0.38757  1.0000
  H   H93       1.0  0.86598  0.17457  0.39513  1.0000
  H   H94       1.0  0.84558  0.19416  0.39314  1.0000
  H   H95       1.0  0.86051  0.34696  0.41574  1.0000
  H   H96       1.0  0.85003  0.30814  0.41134  1.0000
  H   H97       1.0  0.81088  0.19373  0.44412  1.0000
  H   H98       1.0  0.72368  0.17850  0.42472  1.0000
  H   H99       1.0  0.79331  0.26720  0.43176  1.0000
  C   C146      1.0  0.83835  0.50423  0.31972  1.0000
  C   C147      1.0  0.83023  0.51928  0.31033  1.0000
  C   C148      1.0  0.80197  0.54231  0.37412  1.0000
  C   C149      1.0  0.78971  0.55332  0.37249  1.0000
  C   C150      1.0  0.76602  0.54093  0.37620  1.0000
  C   C151      1.0  0.75318  0.55172  0.38018  1.0000
  C   C152      1.0  0.76442  0.57541  0.38249  1.0000
  C   C153      1.0  0.78809  0.58816  0.37970  1.0000
  C   C154      1.0  0.80059  0.57697  0.37550  1.0000
  C   C155      1.0  0.79881  0.61130  0.38663  1.0000
  C   C156      1.0  0.82215  0.64849  0.32479  1.0000
  C   C157      1.0  0.81254  0.66034  0.36492  1.0000
  C   C158      1.0  0.82410  0.68395  0.36618  1.0000
  C   C159      1.0  0.73002  0.53870  0.38601  1.0000
  C   C160      1.0  0.69322  0.52431  0.32760  1.0000
  C   C161      1.0  0.67771  0.52781  0.37643  1.0000
  C   C162      1.0  0.65493  0.51105  0.37944  1.0000
  H   H100      1.0  0.85489  0.50979  0.30662  1.0000
  H   H101      1.0  0.84096  0.53535  0.28976  1.0000
  H   H102      1.0  0.81776  0.58612  0.37571  1.0000
  H   H103      1.0  0.75799  0.52375  0.37695  1.0000
  H   H104      1.0  0.75529  0.58340  0.38757  1.0000
  H   H105      1.0  0.81643  0.69192  0.39426  1.0000
  H   H106      1.0  0.79685  0.65192  0.39234  1.0000
  H   H107      1.0  0.64411  0.51402  0.41582  1.0000
  H   H108      1.0  0.68293  0.54237  0.41140  1.0000
  H   H109      1.0  0.79721  0.61762  0.44400  1.0000
  H   H110      1.0  0.81259  0.54570  0.42464  1.0000
  H   H111      1.0  0.72386  0.52650  0.43147  1.0000
  C   C163      1.0  0.23448  0.11448  0.39983  1.0000
  C   C164      1.0  0.25814  0.12686  0.40185  1.0000
  H   H112      1.0  0.26631  0.12882  0.46121  1.0000
  C   C165      1.0  0.16371  0.07040  0.39370  1.0000
  C   C166      1.0  0.18739  0.08307  0.38984  1.0000
  H   H113      1.0  0.15622  0.05878  0.44342  1.0000
  C   C167      1.0  0.20113  0.08023  0.45979  1.0000
  C   C168      1.0  0.22185  0.10323  0.48273  1.0000
  H   H114      1.0  0.20664  0.06887  0.43453  1.0000
  H   H115      1.0  0.19150  0.07292  0.52088  1.0000
  H   H116      1.0  0.23229  0.10054  0.53053  1.0000
  H   H117      1.0  0.21639  0.11397  0.51461  1.0000
  C   C169      1.0  0.87644  0.12027  0.39981  1.0000
  C   C170      1.0  0.86404  0.13154  0.40182  1.0000
  H   H118      1.0  0.86196  0.13763  0.46126  1.0000
  C   C171      1.0  0.92058  0.09366  0.39399  1.0000
  C   C172      1.0  0.90789  0.10465  0.39014  1.0000
  H   H119      1.0  0.93212  0.09771  0.44402  1.0000
  C   C173      1.0  0.91057  0.12108  0.46051  1.0000
  C   C174      1.0  0.88752  0.11873  0.48291  1.0000
  H   H120      1.0  0.92196  0.13801  0.43585  1.0000
  H   H121      1.0  0.91777  0.11865  0.52170  1.0000
  H   H122      1.0  0.89010  0.13176  0.53107  1.0000
  H   H123      1.0  0.87673  0.10246  0.51420  1.0000
  C   C175      1.0  0.87069  0.75669  0.39963  1.0000
  C   C176      1.0  0.85941  0.73301  0.40171  1.0000
  H   H124      1.0  0.85318  0.72486  0.46107  1.0000
  C   C177      1.0  0.89735  0.82746  0.39325  1.0000
  C   C178      1.0  0.88636  0.80378  0.38948  1.0000
  H   H125      1.0  0.89321  0.83496  0.44291  1.0000
  C   C179      1.0  0.86976  0.79003  0.45937  1.0000
  C   C180      1.0  0.87204  0.76932  0.48247  1.0000
  H   H126      1.0  0.85290  0.78451  0.43399  1.0000
  H   H127      1.0  0.87206  0.79968  0.52042  1.0000
  H   H128      1.0  0.85890  0.75889  0.53023  1.0000
  H   H129      1.0  0.88823  0.77480  0.51443  1.0000
  C   C181      1.0  0.51838  0.15203  0.34041  1.0000
  C   C182      1.0  0.52470  0.14726  0.42360  1.0000
  C   C183      1.0  0.54391  0.14495  0.43309  1.0000
  C   C184      1.0  0.55756  0.14772  0.35718  1.0000
  C   C185      1.0  0.57923  0.14917  0.36153  1.0000
  C   C186      1.0  0.59410  0.15965  0.43400  1.0000
  C   C187      1.0  0.61644  0.16445  0.43122  1.0000
  C   C188      1.0  0.62508  0.15934  0.35497  1.0000
  H   H130      1.0  0.58958  0.16583  0.48704  1.0000
  H   H131      1.0  0.62670  0.17277  0.48405  1.0000
  H   H132      1.0  0.51574  0.14631  0.47961  1.0000
  N   N4        1.0  0.54869  0.13876  0.51702  1.0000
  O   O7        1.0  0.55122  0.15251  0.57752  1.0000
  O   O8        1.0  0.53344  0.11962  0.54049  1.0000
  C   C189      1.0  0.83899  0.36675  0.34037  1.0000
  C   C190      1.0  0.84375  0.37783  0.42357  1.0000
  C   C191      1.0  0.84607  0.39936  0.43307  1.0000
  C   C192      1.0  0.84330  0.41024  0.35716  1.0000
  C   C193      1.0  0.84188  0.43048  0.36146  1.0000
  C   C194      1.0  0.83139  0.43487  0.43394  1.0000
  C   C195      1.0  0.82660  0.45242  0.43120  1.0000
  C   C196      1.0  0.83172  0.46618  0.35499  1.0000
  H   H133      1.0  0.82521  0.42416  0.48696  1.0000
  H   H134      1.0  0.81829  0.45437  0.48406  1.0000
  H   H135      1.0  0.84471  0.36983  0.47958  1.0000
  N   N5        1.0  0.85226  0.41032  0.51700  1.0000
  O   O9        1.0  0.83852  0.39912  0.57751  1.0000
  O   O10       1.0  0.87139  0.41420  0.54046  1.0000
  C   C197      1.0  0.62432  0.47271  0.34034  1.0000
  C   C198      1.0  0.61325  0.46636  0.42357  1.0000
  C   C199      1.0  0.59174  0.44714  0.43304  1.0000
  C   C200      1.0  0.58086  0.43350  0.35710  1.0000
  C   C201      1.0  0.56064  0.41181  0.36135  1.0000
  C   C202      1.0  0.55629  0.39692  0.43370  1.0000
  C   C203      1.0  0.53872  0.37458  0.43100  1.0000
  C   C204      1.0  0.52495  0.36595  0.35482  1.0000
  H   H136      1.0  0.56696  0.40146  0.48682  1.0000
  H   H137      1.0  0.53675  0.36432  0.48389  1.0000
  H   H138      1.0  0.62125  0.47532  0.47958  1.0000
  N   N6        1.0  0.58078  0.44233  0.51699  1.0000
  O   O11       1.0  0.59200  0.43979  0.57743  1.0000
  O   O12       1.0  0.57689  0.45757  0.54056  1.0000
