data_image0
_chemical_formula_structural       C2H4NC2H3C4HCNHNC3H3CHC4H2NHC8H3CNCNHCHC6H6N2C6H6N2C6H6N2C6H6N2C6H6N2C3H3CHC4H3CH3CHC4H3CH3CHC4H3CH2CHC4H3CH3CHC4H3CH3CHC4H3CH3CHC4H3CH3CHC4H3CH3CH2C12H5CNC2NHN2C12H5CNC2NHN2C12H5CNC2NHN2C12H5CNC2NHN2C12H5CNC2NHN2C2H3C4H3CH3CHC4H3CH3CHC4H3CH2C4H3CH3CHC4H3CH3CHC4H3CH3CHC4H3CH3CHC4H3CH3CH
_chemical_formula_sum              "C234 H198 N36"
_cell_length_a       77.1457
_cell_length_b       77.1457
_cell_length_c       14.911
_cell_angle_alpha    90
_cell_angle_beta     90
_cell_angle_gamma    120

_space_group_name_H-M_alt    "P 1"
_space_group_IT_number       1

loop_
  _space_group_symop_operation_xyz
  'x, y, z'

loop_
  _atom_site_type_symbol
  _atom_site_label
  _atom_site_symmetry_multiplicity
  _atom_site_fract_x
  _atom_site_fract_y
  _atom_site_fract_z
  _atom_site_occupancy
  C   C1        1.0  0.09050  0.56031  0.34271  1.0000
  C   C2        1.0  0.11160  0.57122  0.34395  1.0000
  H   H1        1.0  0.08296  0.56805  0.34489  1.0000
  H   H2        1.0  0.11844  0.58648  0.34770  1.0000
  H   H3        1.0  0.16604  0.63211  0.29349  1.0000
  H   H4        1.0  0.16647  0.53468  0.33382  1.0000
  N   N1        1.0  0.15474  0.59323  0.34809  1.0000
  C   C3        1.0  0.01514  0.51367  0.26034  1.0000
  C   C4        1.0  0.02714  0.52528  0.17981  1.0000
  H   H5        1.0  0.01887  0.52232  0.11738  1.0000
  H   H6        1.0  0.03908  0.52189  0.16741  1.0000
  H   H7        1.0  0.03384  0.54129  0.19267  1.0000
  C   C5        1.0  0.12315  0.56156  0.34043  1.0000
  C   C6        1.0  0.11240  0.54036  0.33511  1.0000
  C   C7        1.0  0.09128  0.52943  0.33367  1.0000
  C   C8        1.0  0.07991  0.53915  0.33804  1.0000
  H   H8        1.0  0.08418  0.51414  0.32986  1.0000
  C   C9        1.0  0.14465  0.57275  0.34318  1.0000
  N   N2        1.0  0.15588  0.56349  0.34265  1.0000
  H   H9        1.0  0.11986  0.53252  0.33230  1.0000
  N   N3        1.0  0.05990  0.52774  0.33611  1.0000
  C   C10       1.0  0.02544  0.51671  0.34369  1.0000
  C   C11       1.0  0.01485  0.50612  0.42227  1.0000
  C   C12       1.0  0.02554  0.50916  0.51046  1.0000
  H   H10       1.0  0.04159  0.51954  0.50856  1.0000
  H   H11       1.0  0.02368  0.49496  0.53425  1.0000
  H   H12       1.0  0.01939  0.51499  0.56017  1.0000
  C   C13       1.0  0.04562  0.53153  0.34969  1.0000
  H   H13       1.0  0.04866  0.54524  0.36604  1.0000
  C   C14       1.0  0.18659  0.62557  0.35859  1.0000
  C   C15       1.0  0.17994  0.63817  0.32202  1.0000
  C   C16       1.0  0.19270  0.65917  0.31919  1.0000
  C   C17       1.0  0.21246  0.66819  0.35264  1.0000
  H   H14       1.0  0.18768  0.66781  0.28956  1.0000
  H   H15       1.0  0.18867  0.52130  0.33047  1.0000
  N   N4        1.0  0.22452  0.68803  0.34653  1.0000
  H   H16       1.0  0.23290  0.52660  0.16570  1.0000
  C   C18       1.0  0.18903  0.56523  0.34587  1.0000
  C   C19       1.0  0.21867  0.65574  0.39427  1.0000
  C   C20       1.0  0.20607  0.63489  0.39634  1.0000
  C   C21       1.0  0.21015  0.57773  0.35172  1.0000
  C   C22       1.0  0.22311  0.56991  0.34978  1.0000
  C   C23       1.0  0.21556  0.54919  0.34194  1.0000
  C   C24       1.0  0.19458  0.53642  0.33638  1.0000
  C   C25       1.0  0.18155  0.54436  0.33838  1.0000
  H   H17       1.0  0.21151  0.62655  0.42549  1.0000
  H   H18       1.0  0.23261  0.66172  0.42214  1.0000
  H   H19       1.0  0.21661  0.59293  0.35722  1.0000
  C   C26       1.0  0.17629  0.57383  0.34689  1.0000
  N   N5        1.0  0.18499  0.59399  0.35229  1.0000
  C   C27       1.0  0.17505  0.60427  0.35354  1.0000
  N   N6        1.0  0.22928  0.54360  0.33960  1.0000
  H   H20       1.0  0.23046  0.51916  0.49512  1.0000
  C   C28       1.0  0.22963  0.52720  0.33276  1.0000
  H   H21       1.0  0.21715  0.51405  0.32689  1.0000
  C   C29       1.0  0.38187  0.56249  0.35847  1.0000
  C   C30       1.0  0.44714  0.53165  0.34272  1.0000
  C   C31       1.0  0.43623  0.54185  0.34394  1.0000
  C   C32       1.0  0.36927  0.54322  0.32206  1.0000
  C   C33       1.0  0.34828  0.53499  0.31918  1.0000
  C   C34       1.0  0.33925  0.54574  0.35259  1.0000
  H   H22       1.0  0.43939  0.51637  0.34489  1.0000
  H   H23       1.0  0.42097  0.53343  0.34768  1.0000
  H   H24       1.0  0.37533  0.53537  0.29366  1.0000
  H   H25       1.0  0.33963  0.52131  0.28979  1.0000
  H   H26       1.0  0.48615  0.66884  0.33046  1.0000
  H   H27       1.0  0.47277  0.63325  0.33380  1.0000
  N   N7        1.0  0.41422  0.56298  0.34804  1.0000
  N   N8        1.0  0.31941  0.53794  0.34653  1.0000
  C   C35       1.0  0.44496  0.82085  0.35848  1.0000
  C   C36       1.0  0.47579  0.91695  0.34273  1.0000
  C   C37       1.0  0.46560  0.89584  0.34395  1.0000
  C   C38       1.0  0.46423  0.82752  0.32209  1.0000
  C   C39       1.0  0.47246  0.81475  0.31923  1.0000
  C   C40       1.0  0.46171  0.79498  0.35262  1.0000
  H   H28       1.0  0.49108  0.92448  0.34491  1.0000
  H   H29       1.0  0.47402  0.88900  0.34771  1.0000
  H   H30       1.0  0.47207  0.84141  0.29360  1.0000
  H   H31       1.0  0.48613  0.81978  0.28975  1.0000
  H   H32       1.0  0.33861  0.81877  0.33050  1.0000
  H   H33       1.0  0.37419  0.84098  0.33386  1.0000
  N   N9        1.0  0.44447  0.85271  0.34802  1.0000
  N   N10       1.0  0.46951  0.78293  0.34655  1.0000
  C   C41       1.0  0.82236  0.38042  0.35552  1.0000
  C   C42       1.0  0.91843  0.44566  0.33516  1.0000
  C   C43       1.0  0.89733  0.43476  0.33554  1.0000
  C   C44       1.0  0.82900  0.36782  0.31877  1.0000
  C   C45       1.0  0.81624  0.34683  0.31596  1.0000
  C   C46       1.0  0.79651  0.33780  0.34988  1.0000
  H   H34       1.0  0.92596  0.43790  0.33425  1.0000
  H   H35       1.0  0.89046  0.41948  0.33428  1.0000
  H   H36       1.0  0.84285  0.37389  0.28985  1.0000
  H   H37       1.0  0.82124  0.33819  0.28619  1.0000
  H   H38       1.0  0.82025  0.48466  0.32769  1.0000
  H   H39       1.0  0.84246  0.47129  0.33084  1.0000
  N   N11       1.0  0.85422  0.41277  0.34512  1.0000
  N   N12       1.0  0.78446  0.31795  0.34401  1.0000
  C   C47       1.0  0.62704  0.44342  0.35548  1.0000
  C   C48       1.0  0.56179  0.47424  0.33518  1.0000
  C   C49       1.0  0.57269  0.46403  0.33552  1.0000
  C   C50       1.0  0.63963  0.46265  0.31877  1.0000
  C   C51       1.0  0.66062  0.47089  0.31599  1.0000
  C   C52       1.0  0.66966  0.46019  0.34986  1.0000
  H   H40       1.0  0.56955  0.48953  0.33418  1.0000
  H   H41       1.0  0.58797  0.47245  0.33419  1.0000
  H   H42       1.0  0.63356  0.47044  0.28986  1.0000
  H   H43       1.0  0.66926  0.48453  0.28620  1.0000
  H   H44       1.0  0.52279  0.33705  0.32774  1.0000
  H   H45       1.0  0.53616  0.37264  0.33084  1.0000
  N   N13       1.0  0.59468  0.44292  0.34510  1.0000
  N   N14       1.0  0.68950  0.46800  0.34399  1.0000
  C   C53       1.0  0.56402  0.18507  0.35553  1.0000
  C   C54       1.0  0.53320  0.08900  0.33522  1.0000
  C   C55       1.0  0.54340  0.11011  0.33557  1.0000
  C   C56       1.0  0.54478  0.17843  0.31879  1.0000
  C   C57       1.0  0.53654  0.19119  0.31601  1.0000
  C   C58       1.0  0.54724  0.21093  0.34988  1.0000
  H   H46       1.0  0.51791  0.08148  0.33425  1.0000
  H   H47       1.0  0.53499  0.11698  0.33425  1.0000
  H   H48       1.0  0.53699  0.16458  0.28987  1.0000
  H   H49       1.0  0.52291  0.18620  0.28619  1.0000
  H   H50       1.0  0.67038  0.18720  0.32782  1.0000
  H   H51       1.0  0.63480  0.16499  0.33096  1.0000
  N   N15       1.0  0.56452  0.15322  0.34513  1.0000
  N   N16       1.0  0.53944  0.22297  0.34401  1.0000
  C   C59       1.0  0.98347  0.48921  0.33406  1.0000
  C   C60       1.0  0.99408  0.49979  0.25535  1.0000
  C   C61       1.0  0.98338  0.49670  0.16737  1.0000
  H   H52       1.0  0.96736  0.48617  0.16887  1.0000
  H   H53       1.0  0.98970  0.49103  0.11766  1.0000
  H   H54       1.0  0.98509  0.51090  0.14422  1.0000
  C   C62       1.0  0.96335  0.47438  0.32778  1.0000
  H   H55       1.0  0.96034  0.46056  0.31393  1.0000
  C   C63       1.0  0.51824  0.49573  0.33409  1.0000
  C   C64       1.0  0.50766  0.49575  0.25537  1.0000
  C   C65       1.0  0.49378  0.50294  0.26034  1.0000
  C   C66       1.0  0.48218  0.50333  0.17980  1.0000
  H   H56       1.0  0.48514  0.49802  0.11738  1.0000
  H   H57       1.0  0.48556  0.51865  0.16741  1.0000
  H   H58       1.0  0.46616  0.49401  0.19264  1.0000
  C   C67       1.0  0.51075  0.48815  0.16740  1.0000
  H   H59       1.0  0.52129  0.48266  0.16892  1.0000
  H   H60       1.0  0.51643  0.50013  0.11770  1.0000
  H   H61       1.0  0.49656  0.47566  0.14423  1.0000
  C   C68       1.0  0.53307  0.49044  0.32783  1.0000
  H   H62       1.0  0.54689  0.50125  0.31404  1.0000
  C   C69       1.0  0.51172  0.02397  0.33410  1.0000
  C   C70       1.0  0.51169  0.01337  0.25537  1.0000
  C   C71       1.0  0.50450  0.99230  0.26035  1.0000
  C   C72       1.0  0.50412  0.98031  0.17981  1.0000
  H   H63       1.0  0.50943  0.98858  0.11739  1.0000
  H   H64       1.0  0.48879  0.96836  0.16741  1.0000
  H   H65       1.0  0.51343  0.97361  0.19265  1.0000
  C   C73       1.0  0.51929  0.02407  0.16741  1.0000
  H   H66       1.0  0.52477  0.04009  0.16892  1.0000
  H   H67       1.0  0.50730  0.01775  0.11770  1.0000
  H   H68       1.0  0.53178  0.02237  0.14422  1.0000
  C   C74       1.0  0.51701  0.04409  0.32787  1.0000
  H   H69       1.0  0.50619  0.04710  0.31412  1.0000
  C   C75       1.0  0.28884  0.53788  0.33204  1.0000
  C   C76       1.0  0.27894  0.53602  0.24872  1.0000
  C   C77       1.0  0.25852  0.53140  0.24857  1.0000
  C   C78       1.0  0.28981  0.53927  0.16096  1.0000
  H   H70       1.0  0.30499  0.54185  0.16690  1.0000
  H   H71       1.0  0.29081  0.55221  0.12644  1.0000
  H   H72       1.0  0.28183  0.52609  0.11842  1.0000
  C   C79       1.0  0.24849  0.53040  0.16052  1.0000
  H   H73       1.0  0.24855  0.51897  0.11768  1.0000
  H   H74       1.0  0.25643  0.54485  0.12662  1.0000
  C   C80       1.0  0.30966  0.54728  0.33351  1.0000
  H   H75       1.0  0.31704  0.56204  0.32456  1.0000
  C   C81       1.0  0.46956  0.75242  0.33206  1.0000
  C   C82       1.0  0.47142  0.74438  0.24874  1.0000
  C   C83       1.0  0.47605  0.72859  0.24858  1.0000
  C   C84       1.0  0.46817  0.75200  0.16098  1.0000
  H   H76       1.0  0.46559  0.76460  0.16692  1.0000
  H   H77       1.0  0.45523  0.74006  0.12646  1.0000
  H   H78       1.0  0.48136  0.75720  0.11844  1.0000
  C   C85       1.0  0.47705  0.71956  0.16053  1.0000
  H   H79       1.0  0.48085  0.70777  0.16571  1.0000
  H   H80       1.0  0.48847  0.73105  0.11768  1.0000
  H   H81       1.0  0.46260  0.71305  0.12664  1.0000
  C   C86       1.0  0.46017  0.76385  0.33353  1.0000
  H   H82       1.0  0.44540  0.75646  0.32462  1.0000
  C   C87       1.0  0.25504  0.71861  0.33206  1.0000
  C   C88       1.0  0.26306  0.72849  0.24872  1.0000
  C   C89       1.0  0.27885  0.74891  0.24856  1.0000
  C   C90       1.0  0.25544  0.71761  0.16099  1.0000
  H   H83       1.0  0.24285  0.70243  0.16696  1.0000
  H   H84       1.0  0.26738  0.71662  0.12646  1.0000
  H   H85       1.0  0.25024  0.72559  0.11845  1.0000
  C   C91       1.0  0.28787  0.75895  0.16051  1.0000
  H   H86       1.0  0.29966  0.77453  0.16567  1.0000
  H   H87       1.0  0.27637  0.75887  0.11768  1.0000
  H   H88       1.0  0.29438  0.75101  0.12658  1.0000
  C   C92       1.0  0.24360  0.69778  0.33361  1.0000
  H   H89       1.0  0.25099  0.69039  0.32478  1.0000
  C   C93       1.0  0.72010  0.46807  0.33017  1.0000
  C   C94       1.0  0.73002  0.46993  0.24693  1.0000
  C   C95       1.0  0.75044  0.47456  0.24701  1.0000
  C   C96       1.0  0.71918  0.46668  0.15908  1.0000
  H   H90       1.0  0.70400  0.46409  0.16486  1.0000
  H   H91       1.0  0.71820  0.45373  0.12463  1.0000
  H   H92       1.0  0.72718  0.47985  0.11654  1.0000
  C   C97       1.0  0.76051  0.47557  0.15906  1.0000
  H   H93       1.0  0.77609  0.47936  0.16439  1.0000
  H   H94       1.0  0.76046  0.48699  0.11618  1.0000
  H   H95       1.0  0.75258  0.46112  0.12514  1.0000
  C   C98       1.0  0.69927  0.45866  0.33145  1.0000
  H   H96       1.0  0.69190  0.44389  0.32282  1.0000
  C   C99       1.0  0.53939  0.25350  0.33017  1.0000
  C   C100      1.0  0.53751  0.26156  0.24694  1.0000
  C   C101      1.0  0.53288  0.27735  0.24702  1.0000
  C   C102      1.0  0.54077  0.25398  0.15908  1.0000
  H   H97       1.0  0.54336  0.24138  0.16486  1.0000
  H   H98       1.0  0.55371  0.26594  0.12463  1.0000
  H   H99       1.0  0.52759  0.24880  0.11656  1.0000
  C   C103      1.0  0.53188  0.28642  0.15908  1.0000
  H   H100      1.0  0.52809  0.29821  0.16441  1.0000
  H   H101      1.0  0.52045  0.27494  0.11619  1.0000
  H   H102      1.0  0.54633  0.29294  0.12516  1.0000
  C   C104      1.0  0.54879  0.24207  0.33144  1.0000
  H   H103      1.0  0.56356  0.24947  0.32277  1.0000
  C   C105      1.0  0.75394  0.28736  0.33019  1.0000
  C   C106      1.0  0.74587  0.27743  0.24696  1.0000
  C   C107      1.0  0.73009  0.25701  0.24701  1.0000
  C   C108      1.0  0.75346  0.28827  0.15910  1.0000
  H   H104      1.0  0.76605  0.30345  0.16488  1.0000
  H   H105      1.0  0.74150  0.28925  0.12463  1.0000
  H   H106      1.0  0.75864  0.28027  0.11659  1.0000
  C   C109      1.0  0.72102  0.24694  0.15907  1.0000
  H   H107      1.0  0.70924  0.23136  0.16440  1.0000
  H   H108      1.0  0.73250  0.24699  0.11619  1.0000
  H   H109      1.0  0.71450  0.25486  0.12514  1.0000
  C   C110      1.0  0.76536  0.30819  0.33147  1.0000
  H   H110      1.0  0.75796  0.31556  0.32282  1.0000
  H   H111      1.0  0.23822  0.57959  0.35379  1.0000
  C   C111      1.0  0.44588  0.56305  0.34042  1.0000
  C   C112      1.0  0.44222  0.62526  0.34587  1.0000
  C   C113      1.0  0.46708  0.57350  0.33513  1.0000
  C   C114      1.0  0.47802  0.56331  0.33369  1.0000
  C   C115      1.0  0.46829  0.54222  0.33804  1.0000
  C   C116      1.0  0.35171  0.56441  0.39410  1.0000
  C   C117      1.0  0.37256  0.57266  0.39614  1.0000
  C   C118      1.0  0.42972  0.63388  0.35175  1.0000
  C   C119      1.0  0.43755  0.65467  0.34982  1.0000
  C   C120      1.0  0.45826  0.66784  0.34197  1.0000
  C   C121      1.0  0.47103  0.65963  0.33639  1.0000
  C   C122      1.0  0.46310  0.63866  0.33838  1.0000
  H   H112      1.0  0.49331  0.57151  0.32990  1.0000
  H   H113      1.0  0.38089  0.58644  0.42522  1.0000
  H   H114      1.0  0.34573  0.57238  0.42192  1.0000
  H   H115      1.0  0.41452  0.62515  0.35725  1.0000
  H   H116      1.0  0.42786  0.66010  0.35383  1.0000
  C   C123      1.0  0.43362  0.60393  0.34688  1.0000
  N   N17       1.0  0.41346  0.59247  0.35224  1.0000
  C   C124      1.0  0.40318  0.57225  0.35348  1.0000
  C   C125      1.0  0.43469  0.57336  0.34316  1.0000
  N   N18       1.0  0.44396  0.59386  0.34265  1.0000
  H   H117      1.0  0.47493  0.58880  0.33233  1.0000
  N   N19       1.0  0.46385  0.68714  0.33962  1.0000
  N   N20       1.0  0.47971  0.53362  0.33615  1.0000
  C   C126      1.0  0.44440  0.88430  0.34041  1.0000
  C   C127      1.0  0.38218  0.81841  0.34578  1.0000
  C   C128      1.0  0.43394  0.89504  0.33509  1.0000
  C   C129      1.0  0.44414  0.91617  0.33365  1.0000
  C   C130      1.0  0.46522  0.92753  0.33802  1.0000
  C   C131      1.0  0.44304  0.78877  0.39411  1.0000
  C   C132      1.0  0.43479  0.80136  0.39619  1.0000
  C   C133      1.0  0.37356  0.79729  0.35157  1.0000
  C   C134      1.0  0.35278  0.78434  0.34963  1.0000
  C   C135      1.0  0.33961  0.79188  0.34184  1.0000
  C   C136      1.0  0.34782  0.81286  0.33637  1.0000
  C   C137      1.0  0.36879  0.82590  0.33837  1.0000
  H   H118      1.0  0.43594  0.92326  0.32984  1.0000
  H   H119      1.0  0.42101  0.79592  0.42526  1.0000
  H   H120      1.0  0.43508  0.77482  0.42200  1.0000
  H   H121      1.0  0.38230  0.79083  0.35701  1.0000
  H   H122      1.0  0.34735  0.76922  0.35358  1.0000
  C   C138      1.0  0.40352  0.83115  0.34681  1.0000
  N   N21       1.0  0.41498  0.82245  0.35219  1.0000
  C   C139      1.0  0.43520  0.83239  0.35345  1.0000
  C   C140      1.0  0.43408  0.86279  0.34313  1.0000
  N   N22       1.0  0.41359  0.85156  0.34259  1.0000
  H   H123      1.0  0.41865  0.88759  0.33227  1.0000
  N   N23       1.0  0.32031  0.77817  0.33951  1.0000
  N   N24       1.0  0.47382  0.94755  0.33611  1.0000
  C   C141      1.0  0.88581  0.44445  0.33835  1.0000
  C   C142      1.0  0.81994  0.44078  0.34499  1.0000
  C   C143      1.0  0.89658  0.46568  0.34054  1.0000
  C   C144      1.0  0.91771  0.47660  0.34047  1.0000
  C   C145      1.0  0.92905  0.46684  0.33755  1.0000
  C   C146      1.0  0.79034  0.35024  0.39177  1.0000
  C   C147      1.0  0.80292  0.37110  0.39372  1.0000
  C   C148      1.0  0.79884  0.42830  0.35222  1.0000
  C   C149      1.0  0.78587  0.43612  0.35040  1.0000
  C   C150      1.0  0.79339  0.45681  0.34133  1.0000
  C   C151      1.0  0.81436  0.46956  0.33461  1.0000
  C   C152      1.0  0.82740  0.46164  0.33650  1.0000
  H   H124      1.0  0.92482  0.49191  0.34282  1.0000
  H   H125      1.0  0.79751  0.37943  0.42314  1.0000
  H   H126      1.0  0.77643  0.34426  0.42007  1.0000
  H   H127      1.0  0.79239  0.41312  0.35858  1.0000
  H   H128      1.0  0.77077  0.42644  0.35526  1.0000
  C   C153      1.0  0.83267  0.43218  0.34537  1.0000
  N   N25       1.0  0.82397  0.41201  0.35010  1.0000
  C   C154      1.0  0.83391  0.40172  0.35063  1.0000
  C   C155      1.0  0.86430  0.43325  0.34084  1.0000
  N   N26       1.0  0.85308  0.44252  0.34107  1.0000
  H   H129      1.0  0.88914  0.47354  0.34324  1.0000
  N   N27       1.0  0.77967  0.46238  0.33881  1.0000
  N   N28       1.0  0.94906  0.47824  0.33933  1.0000
  C   C156      1.0  0.56300  0.44283  0.33837  1.0000
  C   C157      1.0  0.56667  0.38062  0.34498  1.0000
  C   C158      1.0  0.54177  0.43237  0.34060  1.0000
  C   C159      1.0  0.53085  0.44257  0.34054  1.0000
  C   C160      1.0  0.54061  0.46368  0.33761  1.0000
  C   C161      1.0  0.65721  0.44156  0.39172  1.0000
  C   C162      1.0  0.63636  0.43330  0.39366  1.0000
  C   C163      1.0  0.57915  0.37200  0.35221  1.0000
  C   C164      1.0  0.57133  0.35122  0.35043  1.0000
  C   C165      1.0  0.55064  0.33805  0.34137  1.0000
  C   C166      1.0  0.53789  0.34626  0.33461  1.0000
  C   C167      1.0  0.54581  0.36723  0.33651  1.0000
  H   H130      1.0  0.51554  0.43438  0.34291  1.0000
  H   H131      1.0  0.62803  0.41955  0.42304  1.0000
  H   H132      1.0  0.66319  0.43364  0.41996  1.0000
  H   H133      1.0  0.59433  0.38074  0.35857  1.0000
  H   H134      1.0  0.58100  0.34579  0.35529  1.0000
  C   C168      1.0  0.57527  0.40196  0.34534  1.0000
  N   N29       1.0  0.59544  0.41342  0.35007  1.0000
  C   C169      1.0  0.60573  0.43365  0.35059  1.0000
  C   C170      1.0  0.57420  0.43252  0.34083  1.0000
  N   N30       1.0  0.56493  0.41202  0.34106  1.0000
  H   H135      1.0  0.53391  0.41707  0.34331  1.0000
  N   N31       1.0  0.54506  0.31875  0.33888  1.0000
  N   N32       1.0  0.52921  0.47229  0.33937  1.0000
  C   C171      1.0  0.56461  0.12164  0.33837  1.0000
  C   C172      1.0  0.62681  0.18751  0.34491  1.0000
  C   C173      1.0  0.57507  0.11086  0.34059  1.0000
  C   C174      1.0  0.56487  0.08973  0.34051  1.0000
  C   C175      1.0  0.54377  0.07840  0.33762  1.0000
  C   C176      1.0  0.56587  0.21710  0.39178  1.0000
  C   C177      1.0  0.57413  0.20451  0.39374  1.0000
  C   C178      1.0  0.63543  0.20861  0.35204  1.0000
  C   C179      1.0  0.65621  0.22157  0.35023  1.0000
  C   C180      1.0  0.66938  0.21405  0.34126  1.0000
  C   C181      1.0  0.66117  0.19309  0.33462  1.0000
  C   C182      1.0  0.64021  0.18005  0.33651  1.0000
  H   H136      1.0  0.57306  0.08262  0.34285  1.0000
  H   H137      1.0  0.58788  0.20993  0.42312  1.0000
  H   H138      1.0  0.57379  0.23101  0.42003  1.0000
  H   H139      1.0  0.62668  0.21505  0.35833  1.0000
  H   H140      1.0  0.66164  0.23668  0.35503  1.0000
  C   C183      1.0  0.60547  0.17477  0.34532  1.0000
  N   N33       1.0  0.59401  0.18347  0.35008  1.0000
  C   C184      1.0  0.57378  0.17353  0.35064  1.0000
  C   C185      1.0  0.57491  0.14314  0.34084  1.0000
  N   N34       1.0  0.59541  0.15437  0.34104  1.0000
  H   H141      1.0  0.59037  0.11830  0.34324  1.0000
  N   N35       1.0  0.68868  0.22778  0.33876  1.0000
  N   N36       1.0  0.53516  0.05838  0.33937  1.0000
  C   C186      1.0  0.99377  0.49230  0.41742  1.0000
  C   C187      1.0  0.98281  0.48130  0.50105  1.0000
  H   H142      1.0  0.96677  0.47140  0.49307  1.0000
  H   H143      1.0  0.98457  0.49199  0.55315  1.0000
  H   H144      1.0  0.98883  0.47203  0.52525  1.0000
  C   C188      1.0  0.49074  0.51019  0.34370  1.0000
  C   C189      1.0  0.50132  0.51019  0.42229  1.0000
  C   C190      1.0  0.51515  0.50294  0.41746  1.0000
  C   C191      1.0  0.49827  0.51784  0.51047  1.0000
  H   H145      1.0  0.48789  0.52350  0.50856  1.0000
  H   H146      1.0  0.51247  0.53018  0.53428  1.0000
  H   H147      1.0  0.49244  0.50586  0.56018  1.0000
  C   C192      1.0  0.52613  0.50297  0.50109  1.0000
  H   H148      1.0  0.53604  0.49683  0.49312  1.0000
  H   H149      1.0  0.51544  0.49404  0.55318  1.0000
  H   H150      1.0  0.53540  0.51826  0.52530  1.0000
  C   C193      1.0  0.47592  0.51555  0.34967  1.0000
  H   H151      1.0  0.46219  0.50487  0.36588  1.0000
  C   C194      1.0  0.49725  0.98201  0.34370  1.0000
  C   C195      1.0  0.49725  0.99259  0.42230  1.0000
  C   C196      1.0  0.50451  0.01367  0.41747  1.0000
  C   C197      1.0  0.48960  0.98190  0.51047  1.0000
  H   H152      1.0  0.48393  0.96584  0.50856  1.0000
  H   H153      1.0  0.47726  0.98375  0.53428  1.0000
  H   H154      1.0  0.50158  0.98804  0.56019  1.0000
  C   C198      1.0  0.50448  0.02462  0.50111  1.0000
  H   H155      1.0  0.51062  0.04067  0.49315  1.0000
  H   H156      1.0  0.51340  0.02286  0.55321  1.0000
  H   H157      1.0  0.48918  0.01861  0.52532  1.0000
  C   C199      1.0  0.49189  0.96182  0.34968  1.0000
  H   H158      1.0  0.50257  0.95878  0.36598  1.0000
  C   C200      1.0  0.24821  0.52833  0.33180  1.0000
  C   C201      1.0  0.25758  0.52847  0.41467  1.0000
  C   C202      1.0  0.27818  0.53369  0.41496  1.0000
  C   C203      1.0  0.28932  0.53538  0.50054  1.0000
  H   H159      1.0  0.28060  0.53196  0.56185  1.0000
  H   H160      1.0  0.30183  0.55062  0.50808  1.0000
  H   H161      1.0  0.29516  0.52510  0.49794  1.0000
  C   C204      1.0  0.24624  0.52374  0.50160  1.0000
  H   H162      1.0  0.25299  0.53688  0.54515  1.0000
  H   H163      1.0  0.24666  0.51136  0.53487  1.0000
  C   C205      1.0  0.47912  0.72134  0.33180  1.0000
  C   C206      1.0  0.47898  0.73058  0.41467  1.0000
  C   C207      1.0  0.47376  0.74596  0.41498  1.0000
  C   C208      1.0  0.47207  0.75540  0.50056  1.0000
  H   H164      1.0  0.47549  0.75011  0.56186  1.0000
  H   H165      1.0  0.45683  0.75267  0.50811  1.0000
  H   H166      1.0  0.48235  0.77153  0.49796  1.0000
  C   C209      1.0  0.48371  0.72396  0.50160  1.0000
  H   H167      1.0  0.48829  0.71276  0.49512  1.0000
  H   H168      1.0  0.47058  0.71758  0.54515  1.0000
  H   H169      1.0  0.49610  0.73677  0.53487  1.0000
  C   C210      1.0  0.48025  0.70389  0.33278  1.0000
  H   H170      1.0  0.49340  0.70457  0.32689  1.0000
  C   C211      1.0  0.28610  0.75923  0.33177  1.0000
  C   C212      1.0  0.27688  0.74985  0.41467  1.0000
  C   C213      1.0  0.26150  0.72925  0.41499  1.0000
  C   C214      1.0  0.25206  0.71813  0.50058  1.0000
  H   H171      1.0  0.25736  0.72684  0.56188  1.0000
  H   H172      1.0  0.25479  0.70561  0.50814  1.0000
  H   H173      1.0  0.23594  0.71228  0.49799  1.0000
  C   C215      1.0  0.28351  0.76120  0.50160  1.0000
  H   H174      1.0  0.29470  0.77698  0.49511  1.0000
  H   H175      1.0  0.28989  0.75445  0.54513  1.0000
  H   H176      1.0  0.27070  0.76078  0.53488  1.0000
  C   C216      1.0  0.30356  0.77781  0.33273  1.0000
  H   H177      1.0  0.30287  0.79028  0.32695  1.0000
  C   C217      1.0  0.76071  0.47763  0.33034  1.0000
  C   C218      1.0  0.75130  0.47747  0.41312  1.0000
  C   C219      1.0  0.73070  0.47225  0.41321  1.0000
  C   C220      1.0  0.71953  0.47055  0.49866  1.0000
  H   H178      1.0  0.72822  0.47398  0.56005  1.0000
  H   H179      1.0  0.70702  0.45531  0.50614  1.0000
  H   H180      1.0  0.71367  0.48082  0.49593  1.0000
  C   C221      1.0  0.76261  0.48219  0.50015  1.0000
  H   H181      1.0  0.77839  0.48677  0.49382  1.0000
  H   H182      1.0  0.75584  0.46906  0.54368  1.0000
  H   H183      1.0  0.76217  0.49458  0.53336  1.0000
  C   C222      1.0  0.77930  0.47877  0.33149  1.0000
  H   H184      1.0  0.79177  0.49191  0.32524  1.0000
  C   C223      1.0  0.52982  0.28456  0.33035  1.0000
  C   C224      1.0  0.52997  0.27529  0.41312  1.0000
  C   C225      1.0  0.53519  0.25992  0.41320  1.0000
  C   C226      1.0  0.53689  0.25044  0.49864  1.0000
  H   H185      1.0  0.53347  0.25570  0.56004  1.0000
  H   H186      1.0  0.55214  0.25318  0.50613  1.0000
  H   H187      1.0  0.52663  0.23432  0.49591  1.0000
  C   C227      1.0  0.52524  0.28188  0.50015  1.0000
  H   H188      1.0  0.52066  0.29307  0.49383  1.0000
  H   H189      1.0  0.53838  0.28824  0.54369  1.0000
  H   H190      1.0  0.51286  0.26905  0.53336  1.0000
  C   C228      1.0  0.52868  0.30201  0.33151  1.0000
  H   H191      1.0  0.51554  0.30133  0.32510  1.0000
  C   C229      1.0  0.72288  0.24674  0.33033  1.0000
  C   C230      1.0  0.73214  0.25615  0.41311  1.0000
  C   C231      1.0  0.74751  0.27675  0.41320  1.0000
  C   C232      1.0  0.75699  0.28792  0.49866  1.0000
  H   H192      1.0  0.75173  0.27923  0.56004  1.0000
  H   H193      1.0  0.75425  0.30043  0.50616  1.0000
  H   H194      1.0  0.77311  0.29378  0.49592  1.0000
  C   C233      1.0  0.72555  0.24484  0.50015  1.0000
  H   H195      1.0  0.71435  0.22906  0.49382  1.0000
  H   H196      1.0  0.71919  0.25161  0.54368  1.0000
  H   H197      1.0  0.73837  0.24528  0.53336  1.0000
  C   C234      1.0  0.70543  0.22814  0.33150  1.0000
  H   H198      1.0  0.70611  0.21568  0.32528  1.0000
