data_image0
_chemical_formula_structural       C8H4C2HC5H3C2NC7NCHCHC6SiC10H12C2NC3NHCH4C2H5C8H4C2HC5H3C2NC7NCHCHC6SiC10H12C2NC3NHCH4C2H5C8H4C2HC5H3C2NC7NCHCHC6SiC10H12C2NC3NHCH4C2H5C8H4C2HC5H3C2NC7NCHCHC6SiC10H12C2NC3NHCH4C2H5
_chemical_formula_sum              "C200 H128 N16 Si4"
_cell_length_a       32.669
_cell_length_b       32.6694
_cell_length_c       15.0947
_cell_angle_alpha    90
_cell_angle_beta     90
_cell_angle_gamma    90.0519

_space_group_name_H-M_alt    "P 1"
_space_group_IT_number       1

loop_
  _space_group_symop_operation_xyz
  'x, y, z'

loop_
  _atom_site_type_symbol
  _atom_site_label
  _atom_site_symmetry_multiplicity
  _atom_site_fract_x
  _atom_site_fract_y
  _atom_site_fract_z
  _atom_site_occupancy
  C   C1        1.0  0.04870  0.03572  0.00077  1.0000
  C   C2        1.0  0.07899  0.03545  0.06679  1.0000
  C   C3        1.0  0.09573  0.49801  0.09645  1.0000
  C   C4        1.0  0.07790  0.46092  0.06752  1.0000
  C   C5        1.0  0.04787  0.46135  0.00099  1.0000
  C   C6        1.0  0.41450  0.46136  0.06458  1.0000
  C   C7        1.0  0.39653  0.99849  0.09278  1.0000
  C   C8        1.0  0.41369  0.03583  0.06351  1.0000
  H   H1        1.0  0.09268  0.06262  0.08334  1.0000
  H   H2        1.0  0.09096  0.43342  0.08369  1.0000
  H   H3        1.0  0.40126  0.43389  0.08065  1.0000
  H   H4        1.0  0.39979  0.06302  0.07878  1.0000
  C   C9        1.0  0.99739  0.29111  0.25557  1.0000
  C   C10       1.0  0.99736  0.33423  0.26502  1.0000
  H   H5        1.0  0.99733  0.35244  0.20982  1.0000
  C   C11       1.0  0.49789  0.13980  0.33557  1.0000
  C   C12       1.0  0.49770  0.16015  0.25269  1.0000
  C   C13       1.0  0.49756  0.20354  0.24951  1.0000
  C   C14       1.0  0.49745  0.22686  0.17045  1.0000
  C   C15       1.0  0.99738  0.27018  0.17344  1.0000
  H   H6        1.0  0.49745  0.21248  0.11027  1.0000
  H   H7        1.0  0.99733  0.28630  0.11537  1.0000
  H   H8        1.0  0.49770  0.14346  0.19533  1.0000
  C   C16       1.0  0.13871  0.99726  0.10559  1.0000
  C   C17       1.0  0.16102  0.99704  0.18622  1.0000
  N   N1        1.0  0.20274  0.99673  0.18207  1.0000
  C   C18       1.0  0.22464  0.99647  0.10526  1.0000
  C   C19       1.0  0.20323  0.99639  0.02344  1.0000
  C   C20       1.0  0.16049  0.99679  0.02478  1.0000
  C   C21       1.0  0.26785  0.99657  0.10439  1.0000
  C   C22       1.0  0.33198  0.99751  0.18161  1.0000
  C   C23       1.0  0.35365  0.99767  0.10086  1.0000
  C   C24       1.0  0.33136  0.99709  0.02088  1.0000
  N   N2        1.0  0.29032  0.99702  0.18051  1.0000
  C   C25       1.0  0.28857  0.99654  0.02154  1.0000
  H   H9        1.0  0.34709  0.99791  0.24086  1.0000
  C   C26       1.0  0.14215  0.99722  0.27531  1.0000
  H   H10       1.0  0.10878  0.99746  0.27278  1.0000
  C   C27       1.0  0.49724  0.39501  0.36234  1.0000
  C   C28       1.0  0.45992  0.41318  0.38825  1.0000
  C   C29       1.0  0.45992  0.44576  0.44891  1.0000
  C   C30       1.0  0.49710  0.46020  0.48576  1.0000
  C   C31       1.0  0.03438  0.44588  0.44932  1.0000
  C   C32       1.0  0.03451  0.41313  0.38909  1.0000
  Si  Si1       1.0  0.49699  0.99891  0.55643  1.0000
  C   C33       1.0  0.49739  0.03710  0.48438  1.0000
  C   C34       1.0  0.03472  0.05010  0.44590  1.0000
  C   C35       1.0  0.03504  0.08002  0.37910  1.0000
  C   C36       1.0  0.49801  0.09711  0.34805  1.0000
  C   C37       1.0  0.46062  0.08016  0.37787  1.0000
  C   C38       1.0  0.46038  0.05031  0.44486  1.0000
  C   C39       1.0  0.45835  0.99884  0.62739  1.0000
  C   C40       1.0  0.03511  0.49866  0.62868  1.0000
  C   C41       1.0  0.44522  0.46161  0.66626  1.0000
  C   C42       1.0  0.44447  0.03596  0.66522  1.0000
  H   H11       1.0  0.03882  0.06348  0.64440  1.0000
  H   H12       1.0  0.03738  0.43376  0.64481  1.0000
  H   H13       1.0  0.45580  0.43397  0.64403  1.0000
  H   H14       1.0  0.45457  0.06367  0.64227  1.0000
  H   H15       1.0  0.43259  0.04029  0.46757  1.0000
  H   H16       1.0  0.43334  0.09343  0.36078  1.0000
  H   H17       1.0  0.06249  0.09307  0.36224  1.0000
  H   H18       1.0  0.06230  0.03987  0.46926  1.0000
  H   H19       1.0  0.06203  0.45667  0.47116  1.0000
  H   H20       1.0  0.43223  0.45657  0.47030  1.0000
  H   H21       1.0  0.43261  0.39926  0.37381  1.0000
  H   H22       1.0  0.06189  0.39940  0.37453  1.0000
  C   C43       1.0  0.99738  0.35231  0.35047  1.0000
  C   C44       1.0  0.99733  0.32669  0.42675  1.0000
  N   N3        1.0  0.99739  0.28596  0.41417  1.0000
  C   C45       1.0  0.99744  0.26756  0.33415  1.0000
  C   C46       1.0  0.49755  0.22481  0.33139  1.0000
  C   C47       1.0  0.49789  0.16342  0.41393  1.0000
  N   N4        1.0  0.49771  0.20434  0.40921  1.0000
  H   H23       1.0  0.49798  0.15027  0.47550  1.0000
  C   C48       1.0  0.99719  0.33888  0.52153  1.0000
  H   H24       1.0  0.99707  0.37174  0.53204  1.0000
  H   H25       1.0  0.02434  0.32653  0.55413  1.0000
  H   H26       1.0  0.47006  0.32631  0.55386  1.0000
  H   H27       1.0  0.14498  0.99690  0.63225  1.0000
  C   C49       1.0  0.26689  0.99622  0.60760  1.0000
  C   C50       1.0  0.22416  0.99615  0.60856  1.0000
  H   H28       1.0  0.28182  0.99625  0.54799  1.0000
  H   H29       1.0  0.20867  0.99613  0.54960  1.0000
  H   H30       1.0  0.34651  0.99721  0.62793  1.0000
  H   H31       1.0  0.15223  0.02431  0.31156  1.0000
  H   H32       1.0  0.15179  0.46999  0.31162  1.0000
  C   C51       1.0  0.04871  0.53572  0.00077  1.0000
  C   C52       1.0  0.07899  0.53545  0.06679  1.0000
  C   C53       1.0  0.09572  0.99801  0.09645  1.0000
  C   C54       1.0  0.07789  0.96092  0.06753  1.0000
  C   C55       1.0  0.04786  0.96135  0.00100  1.0000
  C   C56       1.0  0.41449  0.96135  0.06458  1.0000
  C   C57       1.0  0.39654  0.49849  0.09278  1.0000
  C   C58       1.0  0.41370  0.53583  0.06351  1.0000
  H   H33       1.0  0.09268  0.56262  0.08334  1.0000
  H   H34       1.0  0.09096  0.93342  0.08370  1.0000
  H   H35       1.0  0.40126  0.93389  0.08065  1.0000
  H   H36       1.0  0.39980  0.56302  0.07878  1.0000
  C   C59       1.0  0.99739  0.79111  0.25557  1.0000
  C   C60       1.0  0.99736  0.83423  0.26502  1.0000
  H   H37       1.0  0.99733  0.85244  0.20982  1.0000
  C   C61       1.0  0.49789  0.63980  0.33557  1.0000
  C   C62       1.0  0.49770  0.66015  0.25269  1.0000
  C   C63       1.0  0.49756  0.70354  0.24951  1.0000
  C   C64       1.0  0.49745  0.72686  0.17045  1.0000
  C   C65       1.0  0.99738  0.77018  0.17344  1.0000
  H   H38       1.0  0.49745  0.71248  0.11027  1.0000
  H   H39       1.0  0.99733  0.78631  0.11537  1.0000
  H   H40       1.0  0.49770  0.64346  0.19533  1.0000
  C   C66       1.0  0.13871  0.49726  0.10559  1.0000
  C   C67       1.0  0.16102  0.49705  0.18622  1.0000
  N   N5        1.0  0.20274  0.49673  0.18208  1.0000
  C   C68       1.0  0.22465  0.49647  0.10527  1.0000
  C   C69       1.0  0.20324  0.49639  0.02345  1.0000
  C   C70       1.0  0.16049  0.49679  0.02479  1.0000
  C   C71       1.0  0.26786  0.49657  0.10439  1.0000
  C   C72       1.0  0.33198  0.49750  0.18161  1.0000
  C   C73       1.0  0.35365  0.49767  0.10087  1.0000
  C   C74       1.0  0.33137  0.49709  0.02088  1.0000
  N   N6        1.0  0.29033  0.49702  0.18051  1.0000
  C   C75       1.0  0.28858  0.49654  0.02154  1.0000
  H   H41       1.0  0.34709  0.49791  0.24087  1.0000
  C   C76       1.0  0.14216  0.49721  0.27531  1.0000
  H   H42       1.0  0.10879  0.49746  0.27278  1.0000
  C   C77       1.0  0.49723  0.89501  0.36234  1.0000
  C   C78       1.0  0.45992  0.91317  0.38825  1.0000
  C   C79       1.0  0.45992  0.94575  0.44891  1.0000
  C   C80       1.0  0.49709  0.96020  0.48576  1.0000
  C   C81       1.0  0.03438  0.94588  0.44932  1.0000
  C   C82       1.0  0.03451  0.91313  0.38909  1.0000
  Si  Si2       1.0  0.49700  0.49891  0.55642  1.0000
  C   C83       1.0  0.49739  0.53710  0.48438  1.0000
  C   C84       1.0  0.03472  0.55010  0.44589  1.0000
  C   C85       1.0  0.03505  0.58003  0.37910  1.0000
  C   C86       1.0  0.49801  0.59711  0.34804  1.0000
  C   C87       1.0  0.46062  0.58016  0.37787  1.0000
  C   C88       1.0  0.46038  0.55031  0.44486  1.0000
  C   C89       1.0  0.45836  0.49884  0.62739  1.0000
  C   C90       1.0  0.03511  0.99866  0.62868  1.0000
  C   C91       1.0  0.44522  0.96161  0.66626  1.0000
  C   C92       1.0  0.44448  0.53596  0.66522  1.0000
  H   H43       1.0  0.03883  0.56348  0.64440  1.0000
  H   H44       1.0  0.03738  0.93376  0.64481  1.0000
  H   H45       1.0  0.45579  0.93397  0.64403  1.0000
  H   H46       1.0  0.45457  0.56367  0.64227  1.0000
  H   H47       1.0  0.43260  0.54029  0.46757  1.0000
  H   H48       1.0  0.43334  0.59343  0.36079  1.0000
  H   H49       1.0  0.06249  0.59307  0.36223  1.0000
  H   H50       1.0  0.06230  0.53987  0.46925  1.0000
  H   H51       1.0  0.06202  0.95668  0.47116  1.0000
  H   H52       1.0  0.43222  0.95657  0.47030  1.0000
  H   H53       1.0  0.43261  0.89926  0.37381  1.0000
  H   H54       1.0  0.06188  0.89941  0.37454  1.0000
  C   C93       1.0  0.99738  0.85231  0.35048  1.0000
  C   C94       1.0  0.99733  0.82669  0.42675  1.0000
  N   N7        1.0  0.99739  0.78596  0.41417  1.0000
  C   C95       1.0  0.99744  0.76757  0.33415  1.0000
  C   C96       1.0  0.49755  0.72481  0.33139  1.0000
  C   C97       1.0  0.49789  0.66342  0.41393  1.0000
  N   N8        1.0  0.49771  0.70434  0.40921  1.0000
  H   H55       1.0  0.49798  0.65027  0.47550  1.0000
  C   C98       1.0  0.99719  0.83888  0.52153  1.0000
  H   H56       1.0  0.99707  0.87174  0.53205  1.0000
  H   H57       1.0  0.02434  0.82653  0.55413  1.0000
  H   H58       1.0  0.47006  0.82631  0.55386  1.0000
  H   H59       1.0  0.14499  0.49690  0.63225  1.0000
  C   C99       1.0  0.26689  0.49622  0.60760  1.0000
  C   C100      1.0  0.22417  0.49615  0.60856  1.0000
  H   H60       1.0  0.28183  0.49625  0.54799  1.0000
  H   H61       1.0  0.20868  0.49613  0.54961  1.0000
  H   H62       1.0  0.34652  0.49721  0.62793  1.0000
  H   H63       1.0  0.15224  0.52431  0.31157  1.0000
  H   H64       1.0  0.15178  0.96999  0.31162  1.0000
  C   C101      1.0  0.54870  0.03572  0.00077  1.0000
  C   C102      1.0  0.57899  0.03545  0.06679  1.0000
  C   C103      1.0  0.59572  0.49801  0.09645  1.0000
  C   C104      1.0  0.57789  0.46092  0.06752  1.0000
  C   C105      1.0  0.54787  0.46135  0.00099  1.0000
  C   C106      1.0  0.91450  0.46136  0.06458  1.0000
  C   C107      1.0  0.89653  0.99849  0.09278  1.0000
  C   C108      1.0  0.91369  0.03583  0.06351  1.0000
  H   H65       1.0  0.59268  0.06262  0.08334  1.0000
  H   H66       1.0  0.59096  0.43342  0.08369  1.0000
  H   H67       1.0  0.90126  0.43389  0.08065  1.0000
  H   H68       1.0  0.89979  0.06302  0.07878  1.0000
  C   C109      1.0  0.49739  0.29111  0.25557  1.0000
  C   C110      1.0  0.49736  0.33423  0.26502  1.0000
  H   H69       1.0  0.49733  0.35244  0.20982  1.0000
  C   C111      1.0  0.99789  0.13980  0.33557  1.0000
  C   C112      1.0  0.99770  0.16015  0.25269  1.0000
  C   C113      1.0  0.99756  0.20354  0.24951  1.0000
  C   C114      1.0  0.99745  0.22686  0.17045  1.0000
  C   C115      1.0  0.49738  0.27018  0.17344  1.0000
  H   H70       1.0  0.99745  0.21248  0.11027  1.0000
  H   H71       1.0  0.49733  0.28630  0.11537  1.0000
  H   H72       1.0  0.99770  0.14346  0.19533  1.0000
  C   C116      1.0  0.63871  0.99726  0.10559  1.0000
  C   C117      1.0  0.66102  0.99704  0.18622  1.0000
  N   N9        1.0  0.70274  0.99673  0.18207  1.0000
  C   C118      1.0  0.72464  0.99647  0.10526  1.0000
  C   C119      1.0  0.70323  0.99639  0.02344  1.0000
  C   C120      1.0  0.66049  0.99679  0.02478  1.0000
  C   C121      1.0  0.76785  0.99657  0.10439  1.0000
  C   C122      1.0  0.83198  0.99751  0.18161  1.0000
  C   C123      1.0  0.85365  0.99767  0.10086  1.0000
  C   C124      1.0  0.83136  0.99709  0.02088  1.0000
  N   N10       1.0  0.79032  0.99702  0.18051  1.0000
  C   C125      1.0  0.78857  0.99654  0.02154  1.0000
  H   H73       1.0  0.84709  0.99791  0.24086  1.0000
  C   C126      1.0  0.64215  0.99722  0.27531  1.0000
  H   H74       1.0  0.60878  0.99746  0.27278  1.0000
  C   C127      1.0  0.99723  0.39501  0.36234  1.0000
  C   C128      1.0  0.95992  0.41318  0.38825  1.0000
  C   C129      1.0  0.95992  0.44576  0.44891  1.0000
  C   C130      1.0  0.99710  0.46020  0.48576  1.0000
  C   C131      1.0  0.53438  0.44588  0.44932  1.0000
  C   C132      1.0  0.53451  0.41313  0.38909  1.0000
  Si  Si3       1.0  0.99699  0.99891  0.55643  1.0000
  C   C133      1.0  0.99739  0.03710  0.48438  1.0000
  C   C134      1.0  0.53472  0.05010  0.44590  1.0000
  C   C135      1.0  0.53504  0.08002  0.37910  1.0000
  C   C136      1.0  0.99801  0.09711  0.34805  1.0000
  C   C137      1.0  0.96062  0.08016  0.37787  1.0000
  C   C138      1.0  0.96038  0.05031  0.44486  1.0000
  C   C139      1.0  0.95835  0.99884  0.62739  1.0000
  C   C140      1.0  0.53511  0.49866  0.62868  1.0000
  C   C141      1.0  0.94522  0.46161  0.66626  1.0000
  C   C142      1.0  0.94447  0.03596  0.66522  1.0000
  H   H75       1.0  0.53882  0.06348  0.64440  1.0000
  H   H76       1.0  0.53738  0.43376  0.64481  1.0000
  H   H77       1.0  0.95580  0.43397  0.64403  1.0000
  H   H78       1.0  0.95457  0.06367  0.64227  1.0000
  H   H79       1.0  0.93259  0.04029  0.46757  1.0000
  H   H80       1.0  0.93334  0.09343  0.36078  1.0000
  H   H81       1.0  0.56249  0.09307  0.36224  1.0000
  H   H82       1.0  0.56230  0.03987  0.46926  1.0000
  H   H83       1.0  0.56203  0.45667  0.47116  1.0000
  H   H84       1.0  0.93223  0.45657  0.47030  1.0000
  H   H85       1.0  0.93261  0.39926  0.37381  1.0000
  H   H86       1.0  0.56188  0.39940  0.37453  1.0000
  C   C143      1.0  0.49738  0.35231  0.35047  1.0000
  C   C144      1.0  0.49733  0.32669  0.42675  1.0000
  N   N11       1.0  0.49739  0.28596  0.41417  1.0000
  C   C145      1.0  0.49744  0.26756  0.33415  1.0000
  C   C146      1.0  0.99755  0.22481  0.33139  1.0000
  C   C147      1.0  0.99789  0.16342  0.41393  1.0000
  N   N12       1.0  0.99771  0.20434  0.40921  1.0000
  H   H87       1.0  0.99798  0.15027  0.47550  1.0000
  C   C148      1.0  0.49719  0.33888  0.52153  1.0000
  H   H88       1.0  0.49707  0.37174  0.53204  1.0000
  H   H89       1.0  0.52434  0.32653  0.55413  1.0000
  H   H90       1.0  0.97006  0.32631  0.55386  1.0000
  H   H91       1.0  0.64498  0.99690  0.63225  1.0000
  C   C149      1.0  0.76689  0.99622  0.60760  1.0000
  C   C150      1.0  0.72416  0.99615  0.60856  1.0000
  H   H92       1.0  0.78182  0.99625  0.54799  1.0000
  H   H93       1.0  0.70867  0.99613  0.54960  1.0000
  H   H94       1.0  0.84651  0.99721  0.62793  1.0000
  H   H95       1.0  0.65224  0.02431  0.31156  1.0000
  H   H96       1.0  0.65179  0.46999  0.31162  1.0000
  C   C151      1.0  0.54871  0.53572  0.00077  1.0000
  C   C152      1.0  0.57899  0.53545  0.06679  1.0000
  C   C153      1.0  0.59572  0.99801  0.09645  1.0000
  C   C154      1.0  0.57789  0.96092  0.06753  1.0000
  C   C155      1.0  0.54786  0.96135  0.00100  1.0000
  C   C156      1.0  0.91449  0.96135  0.06458  1.0000
  C   C157      1.0  0.89654  0.49849  0.09278  1.0000
  C   C158      1.0  0.91370  0.53583  0.06351  1.0000
  H   H97       1.0  0.59268  0.56262  0.08334  1.0000
  H   H98       1.0  0.59096  0.93342  0.08370  1.0000
  H   H99       1.0  0.90126  0.93389  0.08065  1.0000
  H   H100      1.0  0.89980  0.56302  0.07878  1.0000
  C   C159      1.0  0.49739  0.79111  0.25557  1.0000
  C   C160      1.0  0.49736  0.83423  0.26502  1.0000
  H   H101      1.0  0.49733  0.85244  0.20982  1.0000
  C   C161      1.0  0.99789  0.63980  0.33557  1.0000
  C   C162      1.0  0.99770  0.66015  0.25269  1.0000
  C   C163      1.0  0.99756  0.70354  0.24951  1.0000
  C   C164      1.0  0.99745  0.72686  0.17045  1.0000
  C   C165      1.0  0.49738  0.77018  0.17344  1.0000
  H   H102      1.0  0.99745  0.71248  0.11027  1.0000
  H   H103      1.0  0.49733  0.78631  0.11537  1.0000
  H   H104      1.0  0.99770  0.64346  0.19533  1.0000
  C   C166      1.0  0.63871  0.49726  0.10559  1.0000
  C   C167      1.0  0.66102  0.49705  0.18622  1.0000
  N   N13       1.0  0.70274  0.49673  0.18208  1.0000
  C   C168      1.0  0.72465  0.49647  0.10527  1.0000
  C   C169      1.0  0.70324  0.49639  0.02345  1.0000
  C   C170      1.0  0.66050  0.49679  0.02479  1.0000
  C   C171      1.0  0.76786  0.49657  0.10439  1.0000
  C   C172      1.0  0.83198  0.49750  0.18161  1.0000
  C   C173      1.0  0.85365  0.49767  0.10087  1.0000
  C   C174      1.0  0.83137  0.49709  0.02088  1.0000
  N   N14       1.0  0.79033  0.49702  0.18051  1.0000
  C   C175      1.0  0.78858  0.49654  0.02154  1.0000
  H   H105      1.0  0.84709  0.49791  0.24087  1.0000
  C   C176      1.0  0.64216  0.49721  0.27531  1.0000
  H   H106      1.0  0.60879  0.49746  0.27278  1.0000
  C   C177      1.0  0.99723  0.89501  0.36234  1.0000
  C   C178      1.0  0.95992  0.91317  0.38825  1.0000
  C   C179      1.0  0.95992  0.94575  0.44891  1.0000
  C   C180      1.0  0.99709  0.96020  0.48576  1.0000
  C   C181      1.0  0.53438  0.94588  0.44932  1.0000
  C   C182      1.0  0.53451  0.91313  0.38909  1.0000
  Si  Si4       1.0  0.99700  0.49891  0.55642  1.0000
  C   C183      1.0  0.99739  0.53710  0.48438  1.0000
  C   C184      1.0  0.53472  0.55010  0.44589  1.0000
  C   C185      1.0  0.53505  0.58003  0.37910  1.0000
  C   C186      1.0  0.99801  0.59711  0.34804  1.0000
  C   C187      1.0  0.96062  0.58016  0.37787  1.0000
  C   C188      1.0  0.96038  0.55031  0.44486  1.0000
  C   C189      1.0  0.95836  0.49884  0.62739  1.0000
  C   C190      1.0  0.53511  0.99866  0.62868  1.0000
  C   C191      1.0  0.94522  0.96161  0.66626  1.0000
  C   C192      1.0  0.94447  0.53596  0.66522  1.0000
  H   H107      1.0  0.53883  0.56348  0.64440  1.0000
  H   H108      1.0  0.53738  0.93376  0.64481  1.0000
  H   H109      1.0  0.95579  0.93397  0.64403  1.0000
  H   H110      1.0  0.95457  0.56367  0.64227  1.0000
  H   H111      1.0  0.93260  0.54029  0.46757  1.0000
  H   H112      1.0  0.93334  0.59343  0.36079  1.0000
  H   H113      1.0  0.56249  0.59307  0.36223  1.0000
  H   H114      1.0  0.56230  0.53987  0.46925  1.0000
  H   H115      1.0  0.56202  0.95668  0.47116  1.0000
  H   H116      1.0  0.93223  0.95657  0.47030  1.0000
  H   H117      1.0  0.93261  0.89926  0.37381  1.0000
  H   H118      1.0  0.56188  0.89941  0.37454  1.0000
  C   C193      1.0  0.49738  0.85231  0.35048  1.0000
  C   C194      1.0  0.49733  0.82669  0.42675  1.0000
  N   N15       1.0  0.49740  0.78596  0.41417  1.0000
  C   C195      1.0  0.49744  0.76757  0.33415  1.0000
  C   C196      1.0  0.99755  0.72481  0.33139  1.0000
  C   C197      1.0  0.99789  0.66342  0.41393  1.0000
  N   N16       1.0  0.99770  0.70434  0.40921  1.0000
  H   H119      1.0  0.99798  0.65027  0.47550  1.0000
  C   C198      1.0  0.49719  0.83888  0.52153  1.0000
  H   H120      1.0  0.49707  0.87174  0.53205  1.0000
  H   H121      1.0  0.52434  0.82653  0.55413  1.0000
  H   H122      1.0  0.97006  0.82631  0.55386  1.0000
  H   H123      1.0  0.64499  0.49690  0.63225  1.0000
  C   C199      1.0  0.76689  0.49622  0.60760  1.0000
  C   C200      1.0  0.72417  0.49615  0.60856  1.0000
  H   H124      1.0  0.78183  0.49625  0.54799  1.0000
  H   H125      1.0  0.70868  0.49613  0.54961  1.0000
  H   H126      1.0  0.84652  0.49721  0.62793  1.0000
  H   H127      1.0  0.65224  0.52431  0.31157  1.0000
  H   H128      1.0  0.65178  0.96999  0.31162  1.0000
