data_image0
_chemical_formula_structural       C7H2NHC3H2NHC3H2NHC5H3C2O3C5H3C2O3C3HCH3NHC3HCH3NHC3HCH3NHC7H2NHC3H2NHC3H2NHC5H3C2O3C5H3C2O3C3HCH3NHC3HCH3NHC3HCH3NHC7H2NHC3H2NHC3H2NHC5H3C2O3C5H3C2O3C3HCH3NHC3HCH3NHC3HCH3NHC7H2NHC3H2NHC3H2NHC5H3C2O3C5H3C2O3C3HCH3NHC3HCH3NHC3HCH3NH
_chemical_formula_sum              "C156 H120 N24 O24"
_cell_length_a       43.8389
_cell_length_b       43.8389
_cell_length_c       15.0504
_cell_angle_alpha    90
_cell_angle_beta     90
_cell_angle_gamma    120

_space_group_name_H-M_alt    "P 1"
_space_group_IT_number       1

loop_
  _space_group_symop_operation_xyz
  'x, y, z'

loop_
  _atom_site_type_symbol
  _atom_site_label
  _atom_site_symmetry_multiplicity
  _atom_site_fract_x
  _atom_site_fract_y
  _atom_site_fract_z
  _atom_site_occupancy
  C   C1        1.0  0.19180  0.32311  0.41180  1.0000
  C   C2        1.0  0.21933  0.31506  0.40315  1.0000
  C   C3        1.0  0.30568  0.17687  0.24295  1.0000
  C   C4        1.0  0.28072  0.18811  0.25634  1.0000
  C   C5        1.0  0.27050  0.23648  0.29482  1.0000
  C   C6        1.0  0.25732  0.28445  0.30659  1.0000
  C   C7        1.0  0.27536  0.26925  0.26614  1.0000
  H   H1        1.0  0.25950  0.30639  0.27701  1.0000
  H   H2        1.0  0.29065  0.28142  0.21169  1.0000
  N   N1        1.0  0.28840  0.22235  0.25348  1.0000
  H   H3        1.0  0.30794  0.23808  0.21528  1.0000
  C   C8        1.0  0.25935  0.03319  0.29481  1.0000
  C   C9        1.0  0.21137  0.47203  0.30652  1.0000
  C   C10       1.0  0.22659  0.00528  0.26607  1.0000
  H   H4        1.0  0.18944  0.45227  0.27693  1.0000
  H   H5        1.0  0.21440  0.00840  0.21166  1.0000
  N   N2        1.0  0.27347  0.06523  0.25351  1.0000
  H   H6        1.0  0.25775  0.06903  0.21530  1.0000
  C   C11       1.0  0.46263  0.22532  0.29494  1.0000
  C   C12       1.0  0.02376  0.23844  0.30684  1.0000
  C   C13       1.0  0.49055  0.22049  0.26622  1.0000
  H   H7        1.0  0.04354  0.23630  0.27716  1.0000
  H   H8        1.0  0.48742  0.20516  0.21184  1.0000
  N   N3        1.0  0.43060  0.20743  0.25359  1.0000
  H   H9        1.0  0.42680  0.18791  0.21534  1.0000
  C   C14       1.0  0.17270  0.36784  0.41173  1.0000
  C   C15       1.0  0.13733  0.33997  0.41162  1.0000
  C   C16       1.0  0.12796  0.30401  0.41185  1.0000
  C   C17       1.0  0.15583  0.29651  0.41166  1.0000
  C   C18       1.0  0.19930  0.35848  0.41168  1.0000
  H   H10       1.0  0.14957  0.27083  0.40622  1.0000
  H   H11       1.0  0.22498  0.37789  0.40604  1.0000
  H   H12       1.0  0.11791  0.34624  0.40617  1.0000
  C   C19       1.0  0.18075  0.40342  0.40310  1.0000
  C   C20       1.0  0.09238  0.27648  0.40327  1.0000
  O   O1        1.0  0.25273  0.34195  0.39061  1.0000
  O   O2        1.0  0.15387  0.40993  0.39042  1.0000
  O   O3        1.0  0.08588  0.24308  0.39078  1.0000
  C   C21       1.0  0.31896  0.12799  0.24305  1.0000
  C   C22       1.0  0.35528  0.15346  0.24227  1.0000
  C   C23       1.0  0.36784  0.19014  0.24302  1.0000
  C   C24       1.0  0.34236  0.20099  0.24231  1.0000
  C   C25       1.0  0.29483  0.14055  0.24226  1.0000
  H   H13       1.0  0.35090  0.22723  0.24815  1.0000
  H   H14       1.0  0.26859  0.12285  0.24807  1.0000
  H   H15       1.0  0.37299  0.14493  0.24821  1.0000
  C   C26       1.0  0.30771  0.09179  0.25643  1.0000
  C   C27       1.0  0.40403  0.21510  0.25652  1.0000
  O   O4        1.0  0.24654  0.16323  0.27022  1.0000
  O   O5        1.0  0.33260  0.08249  0.27027  1.0000
  O   O6        1.0  0.41333  0.24928  0.27039  1.0000
  C   C28       1.0  0.24885  0.22103  0.37016  1.0000
  C   C29       1.0  0.23089  0.23620  0.41308  1.0000
  C   C30       1.0  0.23462  0.26852  0.38035  1.0000
  H   H16       1.0  0.24723  0.19887  0.39698  1.0000
  C   C31       1.0  0.20951  0.21818  0.49348  1.0000
  H   H17       1.0  0.21172  0.19545  0.51391  1.0000
  H   H18       1.0  0.18173  0.20880  0.48039  1.0000
  H   H19       1.0  0.21822  0.23656  0.54924  1.0000
  N   N4        1.0  0.21483  0.28214  0.41401  1.0000
  H   H20       1.0  0.19496  0.26653  0.45080  1.0000
  C   C32       1.0  0.27478  0.02698  0.37017  1.0000
  C   C33       1.0  0.25962  0.49384  0.41303  1.0000
  C   C34       1.0  0.22730  0.46526  0.38028  1.0000
  H   H21       1.0  0.29695  0.04751  0.39699  1.0000
  C   C35       1.0  0.27764  0.49048  0.49343  1.0000
  H   H22       1.0  0.30036  0.51541  0.51388  1.0000
  H   H23       1.0  0.28701  0.47207  0.48032  1.0000
  H   H24       1.0  0.25925  0.48080  0.54919  1.0000
  N   N5        1.0  0.21368  0.43184  0.41394  1.0000
  H   H25       1.0  0.22929  0.42759  0.45073  1.0000
  C   C36       1.0  0.46883  0.24696  0.37032  1.0000
  C   C37       1.0  0.00196  0.26493  0.41321  1.0000
  C   C38       1.0  0.03053  0.26116  0.38054  1.0000
  H   H26       1.0  0.44830  0.24861  0.39711  1.0000
  C   C39       1.0  0.00533  0.28632  0.49358  1.0000
  H   H27       1.0  0.98039  0.28413  0.51401  1.0000
  H   H28       1.0  0.02374  0.31410  0.48044  1.0000
  H   H29       1.0  0.01500  0.27763  0.54935  1.0000
  N   N6        1.0  0.06396  0.28098  0.41412  1.0000
  H   H30       1.0  0.06822  0.30086  0.45085  1.0000
  C   C40       1.0  0.19180  0.82311  0.41180  1.0000
  C   C41       1.0  0.21933  0.81506  0.40315  1.0000
  C   C42       1.0  0.30568  0.67687  0.24295  1.0000
  C   C43       1.0  0.28072  0.68811  0.25634  1.0000
  C   C44       1.0  0.27050  0.73648  0.29482  1.0000
  C   C45       1.0  0.25732  0.78445  0.30659  1.0000
  C   C46       1.0  0.27536  0.76925  0.26614  1.0000
  H   H31       1.0  0.25950  0.80639  0.27701  1.0000
  H   H32       1.0  0.29065  0.78142  0.21169  1.0000
  N   N7        1.0  0.28840  0.72235  0.25348  1.0000
  H   H33       1.0  0.30794  0.73808  0.21528  1.0000
  C   C47       1.0  0.25935  0.53319  0.29481  1.0000
  C   C48       1.0  0.21138  0.97203  0.30652  1.0000
  C   C49       1.0  0.22659  0.50528  0.26607  1.0000
  H   H34       1.0  0.18944  0.95227  0.27693  1.0000
  H   H35       1.0  0.21440  0.50840  0.21166  1.0000
  N   N8        1.0  0.27347  0.56523  0.25351  1.0000
  H   H36       1.0  0.25775  0.56903  0.21530  1.0000
  C   C50       1.0  0.46262  0.72532  0.29494  1.0000
  C   C51       1.0  0.02376  0.73843  0.30684  1.0000
  C   C52       1.0  0.49055  0.72049  0.26622  1.0000
  H   H37       1.0  0.04354  0.73631  0.27716  1.0000
  H   H38       1.0  0.48742  0.70516  0.21184  1.0000
  N   N9        1.0  0.43060  0.70743  0.25359  1.0000
  H   H39       1.0  0.42681  0.68791  0.21534  1.0000
  C   C53       1.0  0.17270  0.86784  0.41173  1.0000
  C   C54       1.0  0.13732  0.83997  0.41162  1.0000
  C   C55       1.0  0.12796  0.80401  0.41185  1.0000
  C   C56       1.0  0.15583  0.79651  0.41166  1.0000
  C   C57       1.0  0.19931  0.85849  0.41168  1.0000
  H   H40       1.0  0.14957  0.77083  0.40622  1.0000
  H   H41       1.0  0.22498  0.87789  0.40604  1.0000
  H   H42       1.0  0.11791  0.84624  0.40617  1.0000
  C   C58       1.0  0.18075  0.90342  0.40310  1.0000
  C   C59       1.0  0.09238  0.77648  0.40327  1.0000
  O   O7        1.0  0.25273  0.84195  0.39061  1.0000
  O   O8        1.0  0.15387  0.90993  0.39042  1.0000
  O   O9        1.0  0.08588  0.74308  0.39078  1.0000
  C   C60       1.0  0.31896  0.62799  0.24305  1.0000
  C   C61       1.0  0.35528  0.65346  0.24227  1.0000
  C   C62       1.0  0.36784  0.69014  0.24302  1.0000
  C   C63       1.0  0.34236  0.70099  0.24231  1.0000
  C   C64       1.0  0.29483  0.64055  0.24226  1.0000
  H   H43       1.0  0.35090  0.72723  0.24815  1.0000
  H   H44       1.0  0.26859  0.62285  0.24807  1.0000
  H   H45       1.0  0.37299  0.64493  0.24821  1.0000
  C   C65       1.0  0.30771  0.59179  0.25643  1.0000
  C   C66       1.0  0.40403  0.71510  0.25652  1.0000
  O   O10       1.0  0.24654  0.66323  0.27022  1.0000
  O   O11       1.0  0.33260  0.58249  0.27027  1.0000
  O   O12       1.0  0.41333  0.74928  0.27039  1.0000
  C   C67       1.0  0.24885  0.72103  0.37016  1.0000
  C   C68       1.0  0.23089  0.73620  0.41308  1.0000
  C   C69       1.0  0.23462  0.76852  0.38035  1.0000
  H   H46       1.0  0.24723  0.69887  0.39698  1.0000
  C   C70       1.0  0.20951  0.71818  0.49348  1.0000
  H   H47       1.0  0.21172  0.69544  0.51391  1.0000
  H   H48       1.0  0.18174  0.70880  0.48039  1.0000
  H   H49       1.0  0.21822  0.73656  0.54924  1.0000
  N   N10       1.0  0.21483  0.78214  0.41401  1.0000
  H   H50       1.0  0.19497  0.76653  0.45080  1.0000
  C   C71       1.0  0.27478  0.52698  0.37017  1.0000
  C   C72       1.0  0.25962  0.99384  0.41303  1.0000
  C   C73       1.0  0.22730  0.96526  0.38028  1.0000
  H   H51       1.0  0.29695  0.54751  0.39699  1.0000
  C   C74       1.0  0.27764  0.99048  0.49343  1.0000
  H   H52       1.0  0.30036  0.01541  0.51388  1.0000
  H   H53       1.0  0.28701  0.97207  0.48032  1.0000
  H   H54       1.0  0.25925  0.98080  0.54919  1.0000
  N   N11       1.0  0.21368  0.93184  0.41394  1.0000
  H   H55       1.0  0.22929  0.92759  0.45073  1.0000
  C   C75       1.0  0.46883  0.74696  0.37032  1.0000
  C   C76       1.0  0.00196  0.76493  0.41321  1.0000
  C   C77       1.0  0.03053  0.76116  0.38054  1.0000
  H   H56       1.0  0.44830  0.74861  0.39711  1.0000
  C   C78       1.0  0.00533  0.78632  0.49358  1.0000
  H   H57       1.0  0.98039  0.78413  0.51401  1.0000
  H   H58       1.0  0.02374  0.81410  0.48044  1.0000
  H   H59       1.0  0.01500  0.77763  0.54935  1.0000
  N   N12       1.0  0.06396  0.78098  0.41412  1.0000
  H   H60       1.0  0.06822  0.80086  0.45085  1.0000
  C   C79       1.0  0.69180  0.32311  0.41180  1.0000
  C   C80       1.0  0.71933  0.31506  0.40315  1.0000
  C   C81       1.0  0.80568  0.17687  0.24295  1.0000
  C   C82       1.0  0.78072  0.18811  0.25634  1.0000
  C   C83       1.0  0.77050  0.23648  0.29482  1.0000
  C   C84       1.0  0.75732  0.28445  0.30659  1.0000
  C   C85       1.0  0.77536  0.26925  0.26614  1.0000
  H   H61       1.0  0.75950  0.30639  0.27701  1.0000
  H   H62       1.0  0.79065  0.28142  0.21169  1.0000
  N   N13       1.0  0.78840  0.22235  0.25348  1.0000
  H   H63       1.0  0.80793  0.23808  0.21528  1.0000
  C   C86       1.0  0.75935  0.03319  0.29481  1.0000
  C   C87       1.0  0.71137  0.47203  0.30652  1.0000
  C   C88       1.0  0.72659  0.00528  0.26607  1.0000
  H   H64       1.0  0.68944  0.45227  0.27693  1.0000
  H   H65       1.0  0.71440  0.00840  0.21166  1.0000
  N   N14       1.0  0.77347  0.06523  0.25351  1.0000
  H   H66       1.0  0.75775  0.06903  0.21530  1.0000
  C   C89       1.0  0.96262  0.22532  0.29494  1.0000
  C   C90       1.0  0.52376  0.23844  0.30684  1.0000
  C   C91       1.0  0.99055  0.22049  0.26622  1.0000
  H   H67       1.0  0.54354  0.23630  0.27716  1.0000
  H   H68       1.0  0.98742  0.20516  0.21184  1.0000
  N   N15       1.0  0.93060  0.20743  0.25359  1.0000
  H   H69       1.0  0.92681  0.18791  0.21534  1.0000
  C   C92       1.0  0.67270  0.36784  0.41173  1.0000
  C   C93       1.0  0.63733  0.33997  0.41162  1.0000
  C   C94       1.0  0.62796  0.30401  0.41185  1.0000
  C   C95       1.0  0.65583  0.29651  0.41166  1.0000
  C   C96       1.0  0.69930  0.35848  0.41168  1.0000
  H   H70       1.0  0.64957  0.27083  0.40622  1.0000
  H   H71       1.0  0.72498  0.37789  0.40604  1.0000
  H   H72       1.0  0.61791  0.34624  0.40617  1.0000
  C   C97       1.0  0.68075  0.40342  0.40310  1.0000
  C   C98       1.0  0.59238  0.27648  0.40327  1.0000
  O   O13       1.0  0.75272  0.34195  0.39061  1.0000
  O   O14       1.0  0.65387  0.40993  0.39042  1.0000
  O   O15       1.0  0.58588  0.24308  0.39078  1.0000
  C   C99       1.0  0.81896  0.12799  0.24305  1.0000
  C   C100      1.0  0.85528  0.15346  0.24227  1.0000
  C   C101      1.0  0.86784  0.19014  0.24302  1.0000
  C   C102      1.0  0.84236  0.20099  0.24231  1.0000
  C   C103      1.0  0.79483  0.14055  0.24226  1.0000
  H   H73       1.0  0.85090  0.22723  0.24815  1.0000
  H   H74       1.0  0.76859  0.12285  0.24807  1.0000
  H   H75       1.0  0.87299  0.14493  0.24821  1.0000
  C   C104      1.0  0.80771  0.09179  0.25643  1.0000
  C   C105      1.0  0.90403  0.21510  0.25652  1.0000
  O   O16       1.0  0.74653  0.16323  0.27022  1.0000
  O   O17       1.0  0.83259  0.08249  0.27027  1.0000
  O   O18       1.0  0.91333  0.24928  0.27039  1.0000
  C   C106      1.0  0.74885  0.22103  0.37016  1.0000
  C   C107      1.0  0.73089  0.23620  0.41308  1.0000
  C   C108      1.0  0.73462  0.26852  0.38035  1.0000
  H   H76       1.0  0.74723  0.19887  0.39698  1.0000
  C   C109      1.0  0.70951  0.21818  0.49348  1.0000
  H   H77       1.0  0.71172  0.19545  0.51391  1.0000
  H   H78       1.0  0.68173  0.20880  0.48039  1.0000
  H   H79       1.0  0.71822  0.23656  0.54924  1.0000
  N   N16       1.0  0.71483  0.28214  0.41401  1.0000
  H   H80       1.0  0.69497  0.26653  0.45080  1.0000
  C   C110      1.0  0.77478  0.02698  0.37017  1.0000
  C   C111      1.0  0.75962  0.49384  0.41303  1.0000
  C   C112      1.0  0.72730  0.46526  0.38028  1.0000
  H   H81       1.0  0.79694  0.04751  0.39699  1.0000
  C   C113      1.0  0.77764  0.49048  0.49343  1.0000
  H   H82       1.0  0.80036  0.51541  0.51388  1.0000
  H   H83       1.0  0.78701  0.47207  0.48032  1.0000
  H   H84       1.0  0.75925  0.48080  0.54919  1.0000
  N   N17       1.0  0.71368  0.43184  0.41394  1.0000
  H   H85       1.0  0.72929  0.42759  0.45073  1.0000
  C   C114      1.0  0.96883  0.24696  0.37032  1.0000
  C   C115      1.0  0.50196  0.26493  0.41321  1.0000
  C   C116      1.0  0.53053  0.26116  0.38054  1.0000
  H   H86       1.0  0.94830  0.24861  0.39711  1.0000
  C   C117      1.0  0.50533  0.28632  0.49358  1.0000
  H   H87       1.0  0.48039  0.28413  0.51401  1.0000
  H   H88       1.0  0.52374  0.31410  0.48044  1.0000
  H   H89       1.0  0.51500  0.27763  0.54935  1.0000
  N   N18       1.0  0.56396  0.28098  0.41412  1.0000
  H   H90       1.0  0.56822  0.30086  0.45085  1.0000
  C   C118      1.0  0.69180  0.82311  0.41180  1.0000
  C   C119      1.0  0.71933  0.81506  0.40315  1.0000
  C   C120      1.0  0.80568  0.67687  0.24295  1.0000
  C   C121      1.0  0.78072  0.68811  0.25634  1.0000
  C   C122      1.0  0.77050  0.73648  0.29482  1.0000
  C   C123      1.0  0.75732  0.78445  0.30659  1.0000
  C   C124      1.0  0.77536  0.76925  0.26614  1.0000
  H   H91       1.0  0.75950  0.80639  0.27701  1.0000
  H   H92       1.0  0.79065  0.78142  0.21169  1.0000
  N   N19       1.0  0.78840  0.72235  0.25348  1.0000
  H   H93       1.0  0.80793  0.73808  0.21528  1.0000
  C   C125      1.0  0.75935  0.53319  0.29481  1.0000
  C   C126      1.0  0.71137  0.97203  0.30652  1.0000
  C   C127      1.0  0.72659  0.50528  0.26607  1.0000
  H   H94       1.0  0.68944  0.95227  0.27693  1.0000
  H   H95       1.0  0.71440  0.50840  0.21166  1.0000
  N   N20       1.0  0.77347  0.56523  0.25351  1.0000
  H   H96       1.0  0.75775  0.56903  0.21530  1.0000
  C   C128      1.0  0.96262  0.72532  0.29494  1.0000
  C   C129      1.0  0.52376  0.73843  0.30684  1.0000
  C   C130      1.0  0.99055  0.72049  0.26622  1.0000
  H   H97       1.0  0.54354  0.73631  0.27716  1.0000
  H   H98       1.0  0.98742  0.70516  0.21184  1.0000
  N   N21       1.0  0.93060  0.70743  0.25359  1.0000
  H   H99       1.0  0.92680  0.68791  0.21534  1.0000
  C   C131      1.0  0.67270  0.86784  0.41173  1.0000
  C   C132      1.0  0.63733  0.83997  0.41162  1.0000
  C   C133      1.0  0.62796  0.80401  0.41185  1.0000
  C   C134      1.0  0.65584  0.79651  0.41166  1.0000
  C   C135      1.0  0.69931  0.85849  0.41168  1.0000
  H   H100      1.0  0.64957  0.77083  0.40622  1.0000
  H   H101      1.0  0.72498  0.87789  0.40604  1.0000
  H   H102      1.0  0.61791  0.84624  0.40617  1.0000
  C   C136      1.0  0.68075  0.90342  0.40310  1.0000
  C   C137      1.0  0.59238  0.77648  0.40327  1.0000
  O   O19       1.0  0.75273  0.84195  0.39061  1.0000
  O   O20       1.0  0.65387  0.90993  0.39042  1.0000
  O   O21       1.0  0.58588  0.74308  0.39078  1.0000
  C   C138      1.0  0.81896  0.62799  0.24305  1.0000
  C   C139      1.0  0.85528  0.65346  0.24227  1.0000
  C   C140      1.0  0.86784  0.69014  0.24302  1.0000
  C   C141      1.0  0.84237  0.70099  0.24231  1.0000
  C   C142      1.0  0.79483  0.64055  0.24226  1.0000
  H   H103      1.0  0.85090  0.72723  0.24815  1.0000
  H   H104      1.0  0.76859  0.62285  0.24807  1.0000
  H   H105      1.0  0.87299  0.64493  0.24821  1.0000
  C   C143      1.0  0.80771  0.59179  0.25643  1.0000
  C   C144      1.0  0.90403  0.71510  0.25652  1.0000
  O   O22       1.0  0.74653  0.66323  0.27022  1.0000
  O   O23       1.0  0.83259  0.58249  0.27027  1.0000
  O   O24       1.0  0.91333  0.74928  0.27039  1.0000
  C   C145      1.0  0.74885  0.72103  0.37016  1.0000
  C   C146      1.0  0.73089  0.73620  0.41308  1.0000
  C   C147      1.0  0.73462  0.76852  0.38035  1.0000
  H   H106      1.0  0.74723  0.69887  0.39698  1.0000
  C   C148      1.0  0.70951  0.71818  0.49348  1.0000
  H   H107      1.0  0.71172  0.69544  0.51391  1.0000
  H   H108      1.0  0.68174  0.70880  0.48039  1.0000
  H   H109      1.0  0.71822  0.73656  0.54924  1.0000
  N   N22       1.0  0.71483  0.78214  0.41401  1.0000
  H   H110      1.0  0.69496  0.76653  0.45080  1.0000
  C   C149      1.0  0.77478  0.52698  0.37017  1.0000
  C   C150      1.0  0.75962  0.99384  0.41303  1.0000
  C   C151      1.0  0.72731  0.96526  0.38028  1.0000
  H   H111      1.0  0.79695  0.54751  0.39699  1.0000
  C   C152      1.0  0.77764  0.99048  0.49343  1.0000
  H   H112      1.0  0.80036  0.01541  0.51388  1.0000
  H   H113      1.0  0.78701  0.97207  0.48032  1.0000
  H   H114      1.0  0.75925  0.98080  0.54919  1.0000
  N   N23       1.0  0.71368  0.93184  0.41394  1.0000
  H   H115      1.0  0.72929  0.92759  0.45073  1.0000
  C   C153      1.0  0.96883  0.74696  0.37032  1.0000
  C   C154      1.0  0.50196  0.76493  0.41321  1.0000
  C   C155      1.0  0.53053  0.76116  0.38054  1.0000
  H   H116      1.0  0.94830  0.74861  0.39711  1.0000
  C   C156      1.0  0.50533  0.78632  0.49358  1.0000
  H   H117      1.0  0.48039  0.78413  0.51401  1.0000
  H   H118      1.0  0.52374  0.81410  0.48044  1.0000
  H   H119      1.0  0.51500  0.77763  0.54935  1.0000
  N   N24       1.0  0.56396  0.78098  0.41412  1.0000
  H   H120      1.0  0.56822  0.80086  0.45085  1.0000
