data_image0
_chemical_formula_structural       C3H2C2HC2O2C4HC2N2HNHC4HC2N2HNHC3HC4H2C2O2CNC2HNCHNHCNC2HNCHNHC3H2C2HC2O2C4HC2N2HNHC4HC2N2HNHC3HC4H2C2O2CNC2HNCHNHCNC2HNCHNHC3H2C2HC2O2C4HC2N2HNHC4HC2N2HNHC3HC4H2C2O2CNC2HNCHNHCNC2HNCHNHC3H2C2HC2O2C4HC2N2HNHC4HC2N2HNHC3HC4H2C2O2CNC2HNCHNHCNC2HNCHNH
_chemical_formula_sum              "C144 H72 O16 N48"
_cell_length_a       38.698
_cell_length_b       38.698
_cell_length_c       15.0537
_cell_angle_alpha    90
_cell_angle_beta     90
_cell_angle_gamma    90

_space_group_name_H-M_alt    "P 1"
_space_group_IT_number       1

loop_
  _space_group_symop_operation_xyz
  'x, y, z'

loop_
  _atom_site_type_symbol
  _atom_site_label
  _atom_site_symmetry_multiplicity
  _atom_site_fract_x
  _atom_site_fract_y
  _atom_site_fract_z
  _atom_site_occupancy
  C   C1        1.0  0.49226  0.44886  0.33527  1.0000
  C   C2        1.0  0.46695  0.42257  0.34044  1.0000
  C   C3        1.0  0.43212  0.43309  0.33505  1.0000
  H   H1        1.0  0.01745  0.44126  0.33587  1.0000
  H   H2        1.0  0.41343  0.41446  0.33667  1.0000
  C   C4        1.0  0.02928  0.07096  0.29181  1.0000
  C   C5        1.0  0.00367  0.04494  0.29553  1.0000
  H   H3        1.0  0.48084  0.05021  0.26453  1.0000
  C   C6        1.0  0.02338  0.10439  0.25613  1.0000
  C   C7        1.0  0.47445  0.38681  0.35064  1.0000
  O   O1        1.0  0.05197  0.12254  0.23199  1.0000
  O   O2        1.0  0.44733  0.36618  0.37301  1.0000
  C   C8        1.0  0.00892  0.33593  0.32616  1.0000
  C   C9        1.0  0.00310  0.26400  0.30503  1.0000
  C   C10       1.0  0.02127  0.28350  0.24051  1.0000
  C   C11       1.0  0.02487  0.31943  0.25274  1.0000
  H   H4        1.0  0.03533  0.33388  0.20255  1.0000
  C   C12       1.0  0.00753  0.17762  0.20016  1.0000
  C   C13       1.0  0.01117  0.21346  0.21227  1.0000
  N   N1        1.0  0.02872  0.23378  0.15401  1.0000
  N   N2        1.0  0.03321  0.26698  0.16696  1.0000
  H   H5        1.0  0.01852  0.16642  0.14552  1.0000
  N   N3        1.0  0.00479  0.37110  0.32669  1.0000
  H   H6        1.0  0.01995  0.38449  0.28822  1.0000
  C   C14       1.0  0.15635  0.99264  0.38757  1.0000
  C   C15       1.0  0.22820  0.00108  0.36657  1.0000
  C   C16       1.0  0.20934  0.98156  0.30335  1.0000
  C   C17       1.0  0.17370  0.97653  0.31580  1.0000
  H   H7        1.0  0.15990  0.96440  0.26684  1.0000
  C   C18       1.0  0.31464  0.99586  0.26257  1.0000
  C   C19       1.0  0.27887  0.99264  0.27474  1.0000
  N   N4        1.0  0.25897  0.97440  0.21710  1.0000
  N   N5        1.0  0.22596  0.96929  0.23045  1.0000
  H   H8        1.0  0.32571  0.98441  0.20832  1.0000
  N   N6        1.0  0.12108  0.99466  0.38556  1.0000
  H   H9        1.0  0.10923  0.97759  0.34871  1.0000
  C   C20       1.0  0.48396  0.48474  0.32988  1.0000
  C   C21       1.0  0.42167  0.46782  0.32609  1.0000
  C   C22       1.0  0.44808  0.49307  0.32615  1.0000
  H   H10       1.0  0.44055  0.01825  0.32361  1.0000
  C   C23       1.0  0.01018  0.01101  0.32861  1.0000
  C   C24       1.0  0.04423  0.00475  0.36099  1.0000
  C   C25       1.0  0.07002  0.03059  0.36418  1.0000
  C   C26       1.0  0.06194  0.06317  0.32801  1.0000
  H   H11       1.0  0.04972  0.48203  0.39230  1.0000
  H   H12       1.0  0.08059  0.08192  0.32786  1.0000
  C   C27       1.0  0.10358  0.02495  0.39919  1.0000
  C   C28       1.0  0.38591  0.47536  0.31624  1.0000
  O   O3        1.0  0.36474  0.44785  0.30143  1.0000
  O   O4        1.0  0.12146  0.05358  0.42424  1.0000
  C   C29       1.0  0.99483  0.31418  0.39285  1.0000
  N   N7        1.0  0.99153  0.27978  0.37959  1.0000
  C   C30       1.0  0.99725  0.22865  0.28984  1.0000
  C   C31       1.0  0.99052  0.15695  0.26465  1.0000
  H   H13       1.0  0.98508  0.32421  0.45037  1.0000
  N   N8        1.0  0.97866  0.20891  0.34703  1.0000
  C   C32       1.0  0.97375  0.17453  0.33506  1.0000
  H   H14       1.0  0.96141  0.16117  0.38430  1.0000
  N   N9        1.0  0.99288  0.12170  0.26811  1.0000
  H   H15       1.0  0.97576  0.10989  0.30483  1.0000
  C   C33       1.0  0.17717  0.00961  0.45170  1.0000
  N   N10       1.0  0.21162  0.01359  0.43912  1.0000
  C   C34       1.0  0.26364  0.00692  0.35189  1.0000
  C   C35       1.0  0.33562  0.01137  0.32876  1.0000
  H   H16       1.0  0.16644  0.02025  0.50729  1.0000
  N   N11       1.0  0.28376  0.02500  0.40951  1.0000
  C   C36       1.0  0.31842  0.02879  0.39866  1.0000
  H   H17       1.0  0.33209  0.04038  0.44850  1.0000
  N   N12       1.0  0.37065  0.00672  0.33188  1.0000
  H   H18       1.0  0.38394  0.02288  0.36782  1.0000
  C   C37       1.0  0.49226  0.94886  0.33527  1.0000
  C   C38       1.0  0.46695  0.92257  0.34044  1.0000
  C   C39       1.0  0.43212  0.93309  0.33505  1.0000
  H   H19       1.0  0.01745  0.94126  0.33587  1.0000
  H   H20       1.0  0.41343  0.91446  0.33667  1.0000
  C   C40       1.0  0.02928  0.57096  0.29181  1.0000
  C   C41       1.0  0.00367  0.54493  0.29553  1.0000
  H   H21       1.0  0.48084  0.55021  0.26453  1.0000
  C   C42       1.0  0.02338  0.60439  0.25613  1.0000
  C   C43       1.0  0.47445  0.88681  0.35064  1.0000
  O   O5        1.0  0.05197  0.62254  0.23199  1.0000
  O   O6        1.0  0.44733  0.86618  0.37301  1.0000
  C   C44       1.0  0.00892  0.83593  0.32616  1.0000
  C   C45       1.0  0.00310  0.76400  0.30503  1.0000
  C   C46       1.0  0.02127  0.78350  0.24051  1.0000
  C   C47       1.0  0.02487  0.81943  0.25274  1.0000
  H   H22       1.0  0.03533  0.83387  0.20255  1.0000
  C   C48       1.0  0.00753  0.67762  0.20016  1.0000
  C   C49       1.0  0.01117  0.71346  0.21227  1.0000
  N   N13       1.0  0.02872  0.73378  0.15401  1.0000
  N   N14       1.0  0.03321  0.76698  0.16696  1.0000
  H   H23       1.0  0.01852  0.66642  0.14552  1.0000
  N   N15       1.0  0.00479  0.87110  0.32669  1.0000
  H   H24       1.0  0.01995  0.88449  0.28822  1.0000
  C   C50       1.0  0.15635  0.49264  0.38757  1.0000
  C   C51       1.0  0.22820  0.50108  0.36657  1.0000
  C   C52       1.0  0.20934  0.48156  0.30335  1.0000
  C   C53       1.0  0.17370  0.47653  0.31580  1.0000
  H   H25       1.0  0.15990  0.46440  0.26684  1.0000
  C   C54       1.0  0.31464  0.49586  0.26257  1.0000
  C   C55       1.0  0.27887  0.49264  0.27474  1.0000
  N   N16       1.0  0.25897  0.47440  0.21710  1.0000
  N   N17       1.0  0.22596  0.46929  0.23045  1.0000
  H   H26       1.0  0.32571  0.48441  0.20832  1.0000
  N   N18       1.0  0.12108  0.49466  0.38556  1.0000
  H   H27       1.0  0.10923  0.47760  0.34871  1.0000
  C   C56       1.0  0.48396  0.98474  0.32988  1.0000
  C   C57       1.0  0.42167  0.96783  0.32609  1.0000
  C   C58       1.0  0.44808  0.99307  0.32615  1.0000
  H   H28       1.0  0.44055  0.51825  0.32361  1.0000
  C   C59       1.0  0.01018  0.51101  0.32861  1.0000
  C   C60       1.0  0.04423  0.50475  0.36099  1.0000
  C   C61       1.0  0.07002  0.53059  0.36418  1.0000
  C   C62       1.0  0.06194  0.56317  0.32801  1.0000
  H   H29       1.0  0.04972  0.98203  0.39230  1.0000
  H   H30       1.0  0.08059  0.58192  0.32786  1.0000
  C   C63       1.0  0.10358  0.52494  0.39919  1.0000
  C   C64       1.0  0.38591  0.97536  0.31624  1.0000
  O   O7        1.0  0.36474  0.94785  0.30143  1.0000
  O   O8        1.0  0.12146  0.55358  0.42424  1.0000
  C   C65       1.0  0.99483  0.81418  0.39285  1.0000
  N   N19       1.0  0.99153  0.77978  0.37959  1.0000
  C   C66       1.0  0.99725  0.72865  0.28984  1.0000
  C   C67       1.0  0.99052  0.65695  0.26465  1.0000
  H   H31       1.0  0.98508  0.82421  0.45037  1.0000
  N   N20       1.0  0.97866  0.70891  0.34703  1.0000
  C   C68       1.0  0.97375  0.67453  0.33506  1.0000
  H   H32       1.0  0.96141  0.66117  0.38430  1.0000
  N   N21       1.0  0.99288  0.62170  0.26811  1.0000
  H   H33       1.0  0.97576  0.60989  0.30483  1.0000
  C   C69       1.0  0.17717  0.50961  0.45170  1.0000
  N   N22       1.0  0.21162  0.51359  0.43912  1.0000
  C   C70       1.0  0.26364  0.50692  0.35189  1.0000
  C   C71       1.0  0.33562  0.51137  0.32876  1.0000
  H   H34       1.0  0.16644  0.52025  0.50729  1.0000
  N   N23       1.0  0.28376  0.52500  0.40951  1.0000
  C   C72       1.0  0.31842  0.52878  0.39866  1.0000
  H   H35       1.0  0.33209  0.54038  0.44850  1.0000
  N   N24       1.0  0.37065  0.50672  0.33188  1.0000
  H   H36       1.0  0.38394  0.52288  0.36782  1.0000
  C   C73       1.0  0.99226  0.44886  0.33527  1.0000
  C   C74       1.0  0.96695  0.42257  0.34044  1.0000
  C   C75       1.0  0.93212  0.43309  0.33505  1.0000
  H   H37       1.0  0.51745  0.44126  0.33587  1.0000
  H   H38       1.0  0.91343  0.41446  0.33667  1.0000
  C   C76       1.0  0.52928  0.07096  0.29181  1.0000
  C   C77       1.0  0.50367  0.04494  0.29553  1.0000
  H   H39       1.0  0.98084  0.05021  0.26453  1.0000
  C   C78       1.0  0.52338  0.10439  0.25613  1.0000
  C   C79       1.0  0.97445  0.38681  0.35064  1.0000
  O   O9        1.0  0.55197  0.12254  0.23199  1.0000
  O   O10       1.0  0.94733  0.36618  0.37301  1.0000
  C   C80       1.0  0.50893  0.33593  0.32616  1.0000
  C   C81       1.0  0.50310  0.26400  0.30503  1.0000
  C   C82       1.0  0.52127  0.28350  0.24051  1.0000
  C   C83       1.0  0.52487  0.31943  0.25274  1.0000
  H   H40       1.0  0.53533  0.33388  0.20255  1.0000
  C   C84       1.0  0.50753  0.17762  0.20016  1.0000
  C   C85       1.0  0.51117  0.21346  0.21227  1.0000
  N   N25       1.0  0.52872  0.23378  0.15401  1.0000
  N   N26       1.0  0.53321  0.26698  0.16696  1.0000
  H   H41       1.0  0.51852  0.16642  0.14552  1.0000
  N   N27       1.0  0.50479  0.37110  0.32669  1.0000
  H   H42       1.0  0.51995  0.38449  0.28822  1.0000
  C   C86       1.0  0.65635  0.99264  0.38757  1.0000
  C   C87       1.0  0.72820  0.00108  0.36657  1.0000
  C   C88       1.0  0.70934  0.98156  0.30335  1.0000
  C   C89       1.0  0.67370  0.97653  0.31580  1.0000
  H   H43       1.0  0.65990  0.96440  0.26684  1.0000
  C   C90       1.0  0.81464  0.99586  0.26257  1.0000
  C   C91       1.0  0.77887  0.99264  0.27474  1.0000
  N   N28       1.0  0.75897  0.97440  0.21710  1.0000
  N   N29       1.0  0.72596  0.96929  0.23045  1.0000
  H   H44       1.0  0.82571  0.98441  0.20832  1.0000
  N   N30       1.0  0.62108  0.99466  0.38556  1.0000
  H   H45       1.0  0.60923  0.97759  0.34871  1.0000
  C   C92       1.0  0.98396  0.48474  0.32988  1.0000
  C   C93       1.0  0.92167  0.46782  0.32609  1.0000
  C   C94       1.0  0.94808  0.49307  0.32615  1.0000
  H   H46       1.0  0.94056  0.01825  0.32361  1.0000
  C   C95       1.0  0.51017  0.01101  0.32861  1.0000
  C   C96       1.0  0.54423  0.00475  0.36099  1.0000
  C   C97       1.0  0.57002  0.03059  0.36418  1.0000
  C   C98       1.0  0.56194  0.06317  0.32801  1.0000
  H   H47       1.0  0.54972  0.48203  0.39230  1.0000
  H   H48       1.0  0.58059  0.08192  0.32786  1.0000
  C   C99       1.0  0.60358  0.02495  0.39919  1.0000
  C   C100      1.0  0.88591  0.47536  0.31624  1.0000
  O   O11       1.0  0.86474  0.44785  0.30143  1.0000
  O   O12       1.0  0.62146  0.05358  0.42424  1.0000
  C   C101      1.0  0.49483  0.31418  0.39285  1.0000
  N   N31       1.0  0.49153  0.27978  0.37959  1.0000
  C   C102      1.0  0.49725  0.22865  0.28984  1.0000
  C   C103      1.0  0.49052  0.15695  0.26465  1.0000
  H   H49       1.0  0.48508  0.32421  0.45037  1.0000
  N   N32       1.0  0.47866  0.20891  0.34703  1.0000
  C   C104      1.0  0.47375  0.17453  0.33506  1.0000
  H   H50       1.0  0.46141  0.16117  0.38430  1.0000
  N   N33       1.0  0.49288  0.12170  0.26811  1.0000
  H   H51       1.0  0.47576  0.10989  0.30483  1.0000
  C   C105      1.0  0.67717  0.00961  0.45170  1.0000
  N   N34       1.0  0.71162  0.01359  0.43912  1.0000
  C   C106      1.0  0.76364  0.00692  0.35189  1.0000
  C   C107      1.0  0.83562  0.01137  0.32876  1.0000
  H   H52       1.0  0.66644  0.02025  0.50729  1.0000
  N   N35       1.0  0.78376  0.02500  0.40951  1.0000
  C   C108      1.0  0.81842  0.02879  0.39866  1.0000
  H   H53       1.0  0.83210  0.04038  0.44850  1.0000
  N   N36       1.0  0.87065  0.00672  0.33188  1.0000
  H   H54       1.0  0.88394  0.02288  0.36782  1.0000
  C   C109      1.0  0.99226  0.94886  0.33527  1.0000
  C   C110      1.0  0.96695  0.92257  0.34044  1.0000
  C   C111      1.0  0.93212  0.93309  0.33505  1.0000
  H   H55       1.0  0.51745  0.94126  0.33587  1.0000
  H   H56       1.0  0.91343  0.91446  0.33667  1.0000
  C   C112      1.0  0.52928  0.57096  0.29181  1.0000
  C   C113      1.0  0.50367  0.54493  0.29553  1.0000
  H   H57       1.0  0.98084  0.55021  0.26453  1.0000
  C   C114      1.0  0.52338  0.60439  0.25613  1.0000
  C   C115      1.0  0.97445  0.88681  0.35064  1.0000
  O   O13       1.0  0.55197  0.62254  0.23199  1.0000
  O   O14       1.0  0.94733  0.86618  0.37301  1.0000
  C   C116      1.0  0.50893  0.83593  0.32616  1.0000
  C   C117      1.0  0.50310  0.76400  0.30503  1.0000
  C   C118      1.0  0.52127  0.78350  0.24051  1.0000
  C   C119      1.0  0.52487  0.81943  0.25274  1.0000
  H   H58       1.0  0.53533  0.83387  0.20255  1.0000
  C   C120      1.0  0.50753  0.67762  0.20016  1.0000
  C   C121      1.0  0.51117  0.71346  0.21227  1.0000
  N   N37       1.0  0.52872  0.73378  0.15401  1.0000
  N   N38       1.0  0.53321  0.76698  0.16696  1.0000
  H   H59       1.0  0.51852  0.66642  0.14552  1.0000
  N   N39       1.0  0.50479  0.87110  0.32669  1.0000
  H   H60       1.0  0.51995  0.88449  0.28822  1.0000
  C   C122      1.0  0.65635  0.49264  0.38757  1.0000
  C   C123      1.0  0.72820  0.50108  0.36657  1.0000
  C   C124      1.0  0.70934  0.48156  0.30335  1.0000
  C   C125      1.0  0.67370  0.47653  0.31580  1.0000
  H   H61       1.0  0.65990  0.46440  0.26684  1.0000
  C   C126      1.0  0.81464  0.49586  0.26257  1.0000
  C   C127      1.0  0.77887  0.49264  0.27474  1.0000
  N   N40       1.0  0.75897  0.47440  0.21710  1.0000
  N   N41       1.0  0.72596  0.46929  0.23045  1.0000
  H   H62       1.0  0.82571  0.48441  0.20832  1.0000
  N   N42       1.0  0.62108  0.49466  0.38556  1.0000
  H   H63       1.0  0.60923  0.47760  0.34871  1.0000
  C   C128      1.0  0.98396  0.98474  0.32988  1.0000
  C   C129      1.0  0.92167  0.96783  0.32609  1.0000
  C   C130      1.0  0.94808  0.99307  0.32615  1.0000
  H   H64       1.0  0.94056  0.51825  0.32361  1.0000
  C   C131      1.0  0.51017  0.51101  0.32861  1.0000
  C   C132      1.0  0.54423  0.50475  0.36099  1.0000
  C   C133      1.0  0.57002  0.53059  0.36418  1.0000
  C   C134      1.0  0.56194  0.56317  0.32801  1.0000
  H   H65       1.0  0.54972  0.98203  0.39230  1.0000
  H   H66       1.0  0.58059  0.58192  0.32786  1.0000
  C   C135      1.0  0.60358  0.52494  0.39919  1.0000
  C   C136      1.0  0.88591  0.97536  0.31624  1.0000
  O   O15       1.0  0.86474  0.94785  0.30143  1.0000
  O   O16       1.0  0.62146  0.55358  0.42424  1.0000
  C   C137      1.0  0.49483  0.81418  0.39285  1.0000
  N   N43       1.0  0.49153  0.77978  0.37959  1.0000
  C   C138      1.0  0.49725  0.72865  0.28984  1.0000
  C   C139      1.0  0.49052  0.65695  0.26465  1.0000
  H   H67       1.0  0.48508  0.82421  0.45037  1.0000
  N   N44       1.0  0.47866  0.70891  0.34703  1.0000
  C   C140      1.0  0.47375  0.67453  0.33506  1.0000
  H   H68       1.0  0.46141  0.66117  0.38430  1.0000
  N   N45       1.0  0.49288  0.62170  0.26811  1.0000
  H   H69       1.0  0.47576  0.60989  0.30483  1.0000
  C   C141      1.0  0.67717  0.50961  0.45170  1.0000
  N   N46       1.0  0.71162  0.51359  0.43912  1.0000
  C   C142      1.0  0.76364  0.50692  0.35189  1.0000
  C   C143      1.0  0.83562  0.51137  0.32876  1.0000
  H   H70       1.0  0.66644  0.52025  0.50729  1.0000
  N   N47       1.0  0.78376  0.52500  0.40951  1.0000
  C   C144      1.0  0.81842  0.52878  0.39866  1.0000
  H   H71       1.0  0.83210  0.54038  0.44850  1.0000
  N   N48       1.0  0.87065  0.50672  0.33188  1.0000
  H   H72       1.0  0.88394  0.52288  0.36782  1.0000
