data_image0
_chemical_formula_structural       C2HCN2C4H2C2H2CHC4H2C2H2CHC12HCH4N2C6H4CHC6H4CHC2HCN2C4H2C2H2CHC4H2C2H2CHC12HCH4N2C6H4CHC6H4CHC2HCN2C4H2C2H2CHC4H2C2H2CHC12HCH4N2C6H4CHC6H4CHC2HCN2C4H2C2H2CHC4H2C2H2CHC12HCH4N2C6H4CHC6H4CH
_chemical_formula_sum              "C176 H104 N16"
_cell_length_a       39.8054
_cell_length_b       39.8054
_cell_length_c       15.1262
_cell_angle_alpha    90
_cell_angle_beta     90
_cell_angle_gamma    90

_space_group_name_H-M_alt    "P 1"
_space_group_IT_number       1

loop_
  _space_group_symop_operation_xyz
  'x, y, z'

loop_
  _atom_site_type_symbol
  _atom_site_label
  _atom_site_symmetry_multiplicity
  _atom_site_fract_x
  _atom_site_fract_y
  _atom_site_fract_z
  _atom_site_occupancy
  C   C1        1.0  0.48329  0.00826  0.33284  1.0000
  C   C2        1.0  0.42426  0.02367  0.36107  1.0000
  H   H1        1.0  0.41636  0.07488  0.38806  1.0000
  C   C3        1.0  0.04267  0.99276  0.30573  1.0000
  N   N1        1.0  0.39050  0.02056  0.35150  1.0000
  N   N2        1.0  0.10107  0.47136  0.29478  1.0000
  C   C4        1.0  0.49158  0.15556  0.30826  1.0000
  C   C5        1.0  0.49577  0.22760  0.32380  1.0000
  C   C6        1.0  0.51092  0.20989  0.25252  1.0000
  C   C7        1.0  0.50923  0.17478  0.24526  1.0000
  H   H2        1.0  0.52253  0.22218  0.20185  1.0000
  H   H3        1.0  0.02049  0.16347  0.19211  1.0000
  C   C8        1.0  0.02335  0.31781  0.28941  1.0000
  C   C9        1.0  0.02193  0.28261  0.28383  1.0000
  H   H4        1.0  0.04129  0.33025  0.25363  1.0000
  H   H5        1.0  0.04003  0.27142  0.24627  1.0000
  C   C10       1.0  0.99074  0.12044  0.30022  1.0000
  H   H6        1.0  0.00354  0.10937  0.24929  1.0000
  C   C11       1.0  0.33567  0.49876  0.31293  1.0000
  C   C12       1.0  0.26336  0.49724  0.32123  1.0000
  C   C13       1.0  0.28198  0.47367  0.27035  1.0000
  C   C14       1.0  0.31717  0.47443  0.26583  1.0000
  H   H7        1.0  0.27056  0.45419  0.23848  1.0000
  H   H8        1.0  0.32916  0.95639  0.22924  1.0000
  C   C15       1.0  0.17268  0.97659  0.26812  1.0000
  C   C16       1.0  0.20786  0.97825  0.26288  1.0000
  H   H9        1.0  0.15993  0.96372  0.22005  1.0000
  H   H10       1.0  0.21851  0.96709  0.20904  1.0000
  C   C17       1.0  0.37089  0.99824  0.30846  1.0000
  H   H11       1.0  0.38193  0.98178  0.26557  1.0000
  C   C18       1.0  0.44899  0.49879  0.34317  1.0000
  C   C19       1.0  0.43448  0.05684  0.37864  1.0000
  C   C20       1.0  0.46736  0.06728  0.35839  1.0000
  C   C21       1.0  0.49231  0.04283  0.33861  1.0000
  C   C22       1.0  0.44097  0.46433  0.33904  1.0000
  C   C23       1.0  0.02653  0.05140  0.32957  1.0000
  C   C24       1.0  0.00837  0.48330  0.31557  1.0000
  C   C25       1.0  0.99936  0.44872  0.30953  1.0000
  C   C26       1.0  0.02440  0.42415  0.29144  1.0000
  C   C27       1.0  0.05720  0.43463  0.27045  1.0000
  C   C28       1.0  0.06732  0.46792  0.28693  1.0000
  C   C29       1.0  0.46512  0.44025  0.31799  1.0000
  H   H12       1.0  0.07544  0.41668  0.26143  1.0000
  C   C30       1.0  0.05080  0.02721  0.31012  1.0000
  H   H13       1.0  0.45660  0.41655  0.30613  1.0000
  H   H14       1.0  0.41757  0.45566  0.35396  1.0000
  H   H15       1.0  0.07443  0.03573  0.29693  1.0000
  H   H16       1.0  0.03489  0.07530  0.33956  1.0000
  N   N3        1.0  0.47030  0.10106  0.34987  1.0000
  N   N4        1.0  0.02183  0.39042  0.30289  1.0000
  C   C31       1.0  0.47601  0.17250  0.37917  1.0000
  C   C32       1.0  0.47840  0.20758  0.38692  1.0000
  C   C33       1.0  0.49776  0.26337  0.33121  1.0000
  C   C34       1.0  0.47542  0.28190  0.38603  1.0000
  C   C35       1.0  0.47685  0.31703  0.39250  1.0000
  C   C36       1.0  0.50067  0.33556  0.34373  1.0000
  H   H17       1.0  0.45617  0.27053  0.41897  1.0000
  H   H18       1.0  0.45948  0.32900  0.43137  1.0000
  H   H19       1.0  0.46374  0.15944  0.42773  1.0000
  H   H20       1.0  0.46824  0.21782  0.44266  1.0000
  C   C37       1.0  0.50040  0.37078  0.34885  1.0000
  H   H21       1.0  0.48450  0.38184  0.39317  1.0000
  C   C38       1.0  0.31787  0.52242  0.36412  1.0000
  C   C39       1.0  0.28261  0.52169  0.36761  1.0000
  C   C40       1.0  0.22750  0.49616  0.32581  1.0000
  C   C41       1.0  0.20930  0.51282  0.39381  1.0000
  C   C42       1.0  0.17409  0.51181  0.39853  1.0000
  C   C43       1.0  0.15527  0.49341  0.33617  1.0000
  H   H22       1.0  0.22123  0.52493  0.44426  1.0000
  H   H23       1.0  0.16242  0.52398  0.44972  1.0000
  H   H24       1.0  0.33031  0.54073  0.39858  1.0000
  H   H25       1.0  0.27142  0.54053  0.40257  1.0000
  C   C44       1.0  0.12010  0.49278  0.34249  1.0000
  H   H26       1.0  0.10878  0.50628  0.39177  1.0000
  C   C45       1.0  0.48329  0.50826  0.33284  1.0000
  C   C46       1.0  0.42426  0.52367  0.36107  1.0000
  H   H27       1.0  0.41636  0.57488  0.38806  1.0000
  C   C47       1.0  0.04267  0.49276  0.30573  1.0000
  N   N5        1.0  0.39050  0.52056  0.35150  1.0000
  N   N6        1.0  0.10107  0.97136  0.29478  1.0000
  C   C48       1.0  0.49158  0.65556  0.30826  1.0000
  C   C49       1.0  0.49577  0.72760  0.32380  1.0000
  C   C50       1.0  0.51092  0.70990  0.25252  1.0000
  C   C51       1.0  0.50923  0.67478  0.24526  1.0000
  H   H28       1.0  0.52253  0.72218  0.20185  1.0000
  H   H29       1.0  0.02049  0.66347  0.19211  1.0000
  C   C52       1.0  0.02335  0.81781  0.28941  1.0000
  C   C53       1.0  0.02193  0.78261  0.28383  1.0000
  H   H30       1.0  0.04129  0.83025  0.25363  1.0000
  H   H31       1.0  0.04003  0.77142  0.24627  1.0000
  C   C54       1.0  0.99074  0.62044  0.30022  1.0000
  H   H32       1.0  0.00354  0.60937  0.24929  1.0000
  C   C55       1.0  0.33567  0.99876  0.31293  1.0000
  C   C56       1.0  0.26336  0.99724  0.32123  1.0000
  C   C57       1.0  0.28198  0.97367  0.27035  1.0000
  C   C58       1.0  0.31717  0.97444  0.26583  1.0000
  H   H33       1.0  0.27056  0.95419  0.23848  1.0000
  H   H34       1.0  0.32916  0.45639  0.22924  1.0000
  C   C59       1.0  0.17268  0.47659  0.26812  1.0000
  C   C60       1.0  0.20786  0.47825  0.26288  1.0000
  H   H35       1.0  0.15993  0.46372  0.22005  1.0000
  H   H36       1.0  0.21851  0.46708  0.20904  1.0000
  C   C61       1.0  0.37089  0.49824  0.30846  1.0000
  H   H37       1.0  0.38193  0.48178  0.26557  1.0000
  C   C62       1.0  0.44899  0.99879  0.34317  1.0000
  C   C63       1.0  0.43448  0.55684  0.37864  1.0000
  C   C64       1.0  0.46736  0.56728  0.35839  1.0000
  C   C65       1.0  0.49231  0.54283  0.33861  1.0000
  C   C66       1.0  0.44097  0.96433  0.33904  1.0000
  C   C67       1.0  0.02653  0.55141  0.32957  1.0000
  C   C68       1.0  0.00837  0.98330  0.31557  1.0000
  C   C69       1.0  0.99936  0.94872  0.30953  1.0000
  C   C70       1.0  0.02440  0.92415  0.29144  1.0000
  C   C71       1.0  0.05720  0.93463  0.27045  1.0000
  C   C72       1.0  0.06732  0.96792  0.28693  1.0000
  C   C73       1.0  0.46512  0.94025  0.31799  1.0000
  H   H38       1.0  0.07544  0.91668  0.26143  1.0000
  C   C74       1.0  0.05080  0.52721  0.31012  1.0000
  H   H39       1.0  0.45660  0.91655  0.30613  1.0000
  H   H40       1.0  0.41757  0.95566  0.35396  1.0000
  H   H41       1.0  0.07443  0.53573  0.29693  1.0000
  H   H42       1.0  0.03489  0.57530  0.33956  1.0000
  N   N7        1.0  0.47030  0.60106  0.34987  1.0000
  N   N8        1.0  0.02183  0.89042  0.30289  1.0000
  C   C75       1.0  0.47601  0.67250  0.37917  1.0000
  C   C76       1.0  0.47840  0.70758  0.38692  1.0000
  C   C77       1.0  0.49776  0.76337  0.33121  1.0000
  C   C78       1.0  0.47542  0.78190  0.38603  1.0000
  C   C79       1.0  0.47685  0.81703  0.39250  1.0000
  C   C80       1.0  0.50067  0.83556  0.34373  1.0000
  H   H43       1.0  0.45617  0.77053  0.41897  1.0000
  H   H44       1.0  0.45948  0.82900  0.43137  1.0000
  H   H45       1.0  0.46374  0.65944  0.42773  1.0000
  H   H46       1.0  0.46824  0.71782  0.44266  1.0000
  C   C81       1.0  0.50040  0.87078  0.34885  1.0000
  H   H47       1.0  0.48450  0.88184  0.39317  1.0000
  C   C82       1.0  0.31787  0.02242  0.36412  1.0000
  C   C83       1.0  0.28261  0.02169  0.36761  1.0000
  C   C84       1.0  0.22750  0.99616  0.32581  1.0000
  C   C85       1.0  0.20930  0.01282  0.39381  1.0000
  C   C86       1.0  0.17409  0.01181  0.39853  1.0000
  C   C87       1.0  0.15527  0.99341  0.33617  1.0000
  H   H48       1.0  0.22123  0.02493  0.44426  1.0000
  H   H49       1.0  0.16242  0.02398  0.44972  1.0000
  H   H50       1.0  0.33031  0.04073  0.39858  1.0000
  H   H51       1.0  0.27142  0.04053  0.40257  1.0000
  C   C88       1.0  0.12010  0.99278  0.34249  1.0000
  H   H52       1.0  0.10878  0.00628  0.39177  1.0000
  C   C89       1.0  0.98329  0.00826  0.33284  1.0000
  C   C90       1.0  0.92426  0.02367  0.36107  1.0000
  H   H53       1.0  0.91636  0.07488  0.38806  1.0000
  C   C91       1.0  0.54268  0.99276  0.30573  1.0000
  N   N9        1.0  0.89050  0.02056  0.35150  1.0000
  N   N10       1.0  0.60107  0.47136  0.29478  1.0000
  C   C92       1.0  0.99158  0.15556  0.30826  1.0000
  C   C93       1.0  0.99577  0.22760  0.32380  1.0000
  C   C94       1.0  0.01092  0.20989  0.25252  1.0000
  C   C95       1.0  0.00923  0.17478  0.24526  1.0000
  H   H54       1.0  0.02253  0.22218  0.20185  1.0000
  H   H55       1.0  0.52049  0.16347  0.19211  1.0000
  C   C96       1.0  0.52335  0.31781  0.28941  1.0000
  C   C97       1.0  0.52193  0.28261  0.28383  1.0000
  H   H56       1.0  0.54129  0.33025  0.25363  1.0000
  H   H57       1.0  0.54003  0.27142  0.24627  1.0000
  C   C98       1.0  0.49074  0.12044  0.30022  1.0000
  H   H58       1.0  0.50354  0.10937  0.24929  1.0000
  C   C99       1.0  0.83567  0.49876  0.31293  1.0000
  C   C100      1.0  0.76336  0.49724  0.32123  1.0000
  C   C101      1.0  0.78198  0.47367  0.27035  1.0000
  C   C102      1.0  0.81717  0.47443  0.26583  1.0000
  H   H59       1.0  0.77056  0.45419  0.23848  1.0000
  H   H60       1.0  0.82916  0.95639  0.22924  1.0000
  C   C103      1.0  0.67268  0.97659  0.26812  1.0000
  C   C104      1.0  0.70786  0.97825  0.26288  1.0000
  H   H61       1.0  0.65994  0.96372  0.22005  1.0000
  H   H62       1.0  0.71851  0.96709  0.20904  1.0000
  C   C105      1.0  0.87089  0.99824  0.30846  1.0000
  H   H63       1.0  0.88193  0.98178  0.26557  1.0000
  C   C106      1.0  0.94899  0.49879  0.34317  1.0000
  C   C107      1.0  0.93448  0.05684  0.37864  1.0000
  C   C108      1.0  0.96736  0.06728  0.35839  1.0000
  C   C109      1.0  0.99231  0.04283  0.33861  1.0000
  C   C110      1.0  0.94097  0.46433  0.33904  1.0000
  C   C111      1.0  0.52653  0.05140  0.32957  1.0000
  C   C112      1.0  0.50837  0.48330  0.31557  1.0000
  C   C113      1.0  0.49936  0.44872  0.30953  1.0000
  C   C114      1.0  0.52440  0.42415  0.29144  1.0000
  C   C115      1.0  0.55720  0.43463  0.27045  1.0000
  C   C116      1.0  0.56732  0.46792  0.28693  1.0000
  C   C117      1.0  0.96512  0.44025  0.31799  1.0000
  H   H64       1.0  0.57544  0.41668  0.26143  1.0000
  C   C118      1.0  0.55080  0.02721  0.31012  1.0000
  H   H65       1.0  0.95660  0.41655  0.30613  1.0000
  H   H66       1.0  0.91757  0.45566  0.35396  1.0000
  H   H67       1.0  0.57443  0.03573  0.29693  1.0000
  H   H68       1.0  0.53489  0.07530  0.33956  1.0000
  N   N11       1.0  0.97030  0.10106  0.34987  1.0000
  N   N12       1.0  0.52183  0.39042  0.30289  1.0000
  C   C119      1.0  0.97601  0.17250  0.37917  1.0000
  C   C120      1.0  0.97839  0.20758  0.38692  1.0000
  C   C121      1.0  0.99776  0.26337  0.33121  1.0000
  C   C122      1.0  0.97542  0.28190  0.38603  1.0000
  C   C123      1.0  0.97685  0.31703  0.39250  1.0000
  C   C124      1.0  0.00068  0.33556  0.34373  1.0000
  H   H69       1.0  0.95617  0.27053  0.41897  1.0000
  H   H70       1.0  0.95949  0.32900  0.43137  1.0000
  H   H71       1.0  0.96374  0.15944  0.42773  1.0000
  H   H72       1.0  0.96824  0.21782  0.44266  1.0000
  C   C125      1.0  0.00040  0.37078  0.34885  1.0000
  H   H73       1.0  0.98450  0.38184  0.39317  1.0000
  C   C126      1.0  0.81787  0.52242  0.36412  1.0000
  C   C127      1.0  0.78261  0.52169  0.36761  1.0000
  C   C128      1.0  0.72750  0.49616  0.32581  1.0000
  C   C129      1.0  0.70930  0.51282  0.39381  1.0000
  C   C130      1.0  0.67409  0.51181  0.39853  1.0000
  C   C131      1.0  0.65528  0.49341  0.33617  1.0000
  H   H74       1.0  0.72123  0.52493  0.44426  1.0000
  H   H75       1.0  0.66241  0.52398  0.44972  1.0000
  H   H76       1.0  0.83031  0.54073  0.39858  1.0000
  H   H77       1.0  0.77142  0.54053  0.40257  1.0000
  C   C132      1.0  0.62010  0.49278  0.34249  1.0000
  H   H78       1.0  0.60878  0.50628  0.39177  1.0000
  C   C133      1.0  0.98329  0.50826  0.33284  1.0000
  C   C134      1.0  0.92426  0.52367  0.36107  1.0000
  H   H79       1.0  0.91636  0.57488  0.38806  1.0000
  C   C135      1.0  0.54268  0.49276  0.30573  1.0000
  N   N13       1.0  0.89050  0.52056  0.35150  1.0000
  N   N14       1.0  0.60107  0.97136  0.29478  1.0000
  C   C136      1.0  0.99158  0.65556  0.30826  1.0000
  C   C137      1.0  0.99577  0.72760  0.32380  1.0000
  C   C138      1.0  0.01092  0.70990  0.25252  1.0000
  C   C139      1.0  0.00923  0.67478  0.24526  1.0000
  H   H80       1.0  0.02253  0.72218  0.20185  1.0000
  H   H81       1.0  0.52049  0.66347  0.19211  1.0000
  C   C140      1.0  0.52335  0.81781  0.28941  1.0000
  C   C141      1.0  0.52193  0.78261  0.28383  1.0000
  H   H82       1.0  0.54129  0.83025  0.25363  1.0000
  H   H83       1.0  0.54003  0.77142  0.24627  1.0000
  C   C142      1.0  0.49074  0.62044  0.30022  1.0000
  H   H84       1.0  0.50354  0.60937  0.24929  1.0000
  C   C143      1.0  0.83567  0.99876  0.31293  1.0000
  C   C144      1.0  0.76336  0.99724  0.32123  1.0000
  C   C145      1.0  0.78198  0.97367  0.27035  1.0000
  C   C146      1.0  0.81717  0.97444  0.26583  1.0000
  H   H85       1.0  0.77056  0.95419  0.23848  1.0000
  H   H86       1.0  0.82916  0.45639  0.22924  1.0000
  C   C147      1.0  0.67268  0.47659  0.26812  1.0000
  C   C148      1.0  0.70786  0.47825  0.26288  1.0000
  H   H87       1.0  0.65994  0.46372  0.22005  1.0000
  H   H88       1.0  0.71851  0.46708  0.20904  1.0000
  C   C149      1.0  0.87089  0.49824  0.30846  1.0000
  H   H89       1.0  0.88193  0.48178  0.26557  1.0000
  C   C150      1.0  0.94899  0.99879  0.34317  1.0000
  C   C151      1.0  0.93448  0.55684  0.37864  1.0000
  C   C152      1.0  0.96736  0.56728  0.35839  1.0000
  C   C153      1.0  0.99231  0.54283  0.33861  1.0000
  C   C154      1.0  0.94097  0.96433  0.33904  1.0000
  C   C155      1.0  0.52653  0.55141  0.32957  1.0000
  C   C156      1.0  0.50837  0.98330  0.31557  1.0000
  C   C157      1.0  0.49936  0.94872  0.30953  1.0000
  C   C158      1.0  0.52440  0.92415  0.29144  1.0000
  C   C159      1.0  0.55720  0.93463  0.27045  1.0000
  C   C160      1.0  0.56732  0.96792  0.28693  1.0000
  C   C161      1.0  0.96512  0.94025  0.31799  1.0000
  H   H90       1.0  0.57544  0.91668  0.26143  1.0000
  C   C162      1.0  0.55080  0.52721  0.31012  1.0000
  H   H91       1.0  0.95660  0.91655  0.30613  1.0000
  H   H92       1.0  0.91757  0.95566  0.35396  1.0000
  H   H93       1.0  0.57443  0.53573  0.29693  1.0000
  H   H94       1.0  0.53489  0.57530  0.33956  1.0000
  N   N15       1.0  0.97030  0.60106  0.34987  1.0000
  N   N16       1.0  0.52183  0.89042  0.30289  1.0000
  C   C163      1.0  0.97601  0.67250  0.37917  1.0000
  C   C164      1.0  0.97839  0.70758  0.38692  1.0000
  C   C165      1.0  0.99776  0.76337  0.33121  1.0000
  C   C166      1.0  0.97542  0.78190  0.38603  1.0000
  C   C167      1.0  0.97685  0.81703  0.39250  1.0000
  C   C168      1.0  0.00068  0.83556  0.34373  1.0000
  H   H95       1.0  0.95617  0.77053  0.41897  1.0000
  H   H96       1.0  0.95949  0.82900  0.43137  1.0000
  H   H97       1.0  0.96374  0.65944  0.42773  1.0000
  H   H98       1.0  0.96824  0.71782  0.44266  1.0000
  C   C169      1.0  0.00040  0.87078  0.34885  1.0000
  H   H99       1.0  0.98450  0.88184  0.39317  1.0000
  C   C170      1.0  0.81787  0.02242  0.36412  1.0000
  C   C171      1.0  0.78261  0.02169  0.36761  1.0000
  C   C172      1.0  0.72750  0.99616  0.32581  1.0000
  C   C173      1.0  0.70930  0.01282  0.39381  1.0000
  C   C174      1.0  0.67409  0.01181  0.39853  1.0000
  C   C175      1.0  0.65528  0.99341  0.33617  1.0000
  H   H100      1.0  0.72123  0.02493  0.44426  1.0000
  H   H101      1.0  0.66241  0.02398  0.44972  1.0000
  H   H102      1.0  0.83031  0.04073  0.39858  1.0000
  H   H103      1.0  0.77142  0.04053  0.40257  1.0000
  C   C176      1.0  0.62010  0.99278  0.34249  1.0000
  H   H104      1.0  0.60878  0.00628  0.39177  1.0000
