data_image0
_chemical_formula_structural       C3HCH3NC3HCH3NC3HCH2C3HC2H2C2HC2H2CHC2HC3HCH2NC3HCH3NC3H2NC3HCH2NC3HCH3C4H2CHC5H2CH4CH2NC3HCH2C3HCH3N2HNH2C3HCH3NC3H2CHC6H2C3H3C3HCH3N
_chemical_formula_sum              "C84 H72 N12"
_cell_length_a       34.9251
_cell_length_b       34.9252
_cell_length_c       14.4577
_cell_angle_alpha    90
_cell_angle_beta     90
_cell_angle_gamma    120

_space_group_name_H-M_alt    "P 1"
_space_group_IT_number       1

loop_
  _space_group_symop_operation_xyz
  'x, y, z'

loop_
  _atom_site_type_symbol
  _atom_site_label
  _atom_site_symmetry_multiplicity
  _atom_site_fract_x
  _atom_site_fract_y
  _atom_site_fract_z
  _atom_site_occupancy
  C   C1        1.0  0.28480  0.15184  0.36136  1.0000
  C   C2        1.0  0.26181  0.12564  0.28294  1.0000
  C   C3        1.0  0.21504  0.09951  0.28530  1.0000
  H   H1        1.0  0.19860  0.08041  0.22915  1.0000
  C   C4        1.0  0.28438  0.12420  0.19676  1.0000
  H   H2        1.0  0.32008  0.14621  0.19837  1.0000
  H   H3        1.0  0.27156  0.13389  0.13784  1.0000
  H   H4        1.0  0.27802  0.09061  0.18542  1.0000
  N   N1        1.0  0.32914  0.17716  0.36151  1.0000
  C   C5        1.0  0.88743  0.14233  0.36135  1.0000
  C   C6        1.0  0.91366  0.14557  0.28296  1.0000
  C   C7        1.0  0.93979  0.12492  0.28532  1.0000
  H   H5        1.0  0.95891  0.12759  0.22920  1.0000
  C   C8        1.0  0.91513  0.16960  0.19680  1.0000
  H   H6        1.0  0.89313  0.18330  0.19841  1.0000
  H   H7        1.0  0.90546  0.14711  0.13785  1.0000
  H   H8        1.0  0.94873  0.19682  0.18551  1.0000
  N   N2        1.0  0.86212  0.16135  0.36148  1.0000
  C   C9        1.0  0.57500  0.18809  0.36251  1.0000
  C   C10       1.0  0.59545  0.18431  0.28185  1.0000
  C   C11       1.0  0.63672  0.18575  0.28490  1.0000
  H   H9        1.0  0.58095  0.18271  0.21930  1.0000
  C   C12       1.0  0.65790  0.18432  0.19662  1.0000
  H   H10       1.0  0.63778  0.18096  0.13610  1.0000
  H   H11       1.0  0.66329  0.15612  0.19727  1.0000
  C   C13       1.0  0.06950  0.04774  0.38349  1.0000
  C   C14       1.0  0.03762  0.06164  0.38360  1.0000
  C   C15       1.0  0.99154  0.03114  0.38350  1.0000
  H   H12       1.0  0.04822  0.09479  0.38664  1.0000
  C   C16       1.0  0.96020  0.04486  0.39172  1.0000
  C   C17       1.0  0.11457  0.07908  0.39174  1.0000
  H   H13       1.0  0.12277  0.10745  0.42347  1.0000
  H   H14       1.0  0.93181  0.02467  0.42340  1.0000
  C   C18       1.0  0.40379  0.19280  0.37632  1.0000
  C   C19       1.0  0.43153  0.17405  0.38631  1.0000
  H   H15       1.0  0.41758  0.14058  0.39523  1.0000
  C   C20       1.0  0.50517  0.18189  0.39898  1.0000
  C   C21       1.0  0.35766  0.16487  0.37883  1.0000
  H   H16       1.0  0.34592  0.13306  0.39379  1.0000
  H   H17       1.0  0.49777  0.16026  0.45015  1.0000
  C   C22       1.0  0.79983  0.19451  0.36554  1.0000
  H   H18       1.0  0.78545  0.16090  0.35931  1.0000
  C   C23       1.0  0.72629  0.18809  0.35529  1.0000
  C   C24       1.0  0.87440  0.20214  0.37894  1.0000
  H   H19       1.0  0.71270  0.15734  0.33142  1.0000
  C   C25       1.0  0.19009  0.09977  0.36165  1.0000
  C   C26       1.0  0.21333  0.12616  0.43854  1.0000
  C   C27       1.0  0.26014  0.15219  0.43953  1.0000
  H   H20       1.0  0.19572  0.12586  0.49535  1.0000
  C   C28       1.0  0.28288  0.17919  0.52263  1.0000
  H   H21       1.0  0.25984  0.17633  0.57679  1.0000
  H   H22       1.0  0.30491  0.16853  0.55162  1.0000
  N   N3        1.0  0.14593  0.07364  0.35907  1.0000
  C   C29       1.0  0.93950  0.09968  0.36165  1.0000
  C   C30       1.0  0.91309  0.09652  0.43853  1.0000
  C   C31       1.0  0.88707  0.11730  0.43950  1.0000
  H   H23       1.0  0.91338  0.07920  0.49532  1.0000
  C   C32       1.0  0.86004  0.11302  0.52257  1.0000
  H   H24       1.0  0.86288  0.09283  0.57673  1.0000
  H   H25       1.0  0.82523  0.09774  0.50321  1.0000
  H   H26       1.0  0.87070  0.14571  0.55160  1.0000
  N   N4        1.0  0.96564  0.08166  0.35909  1.0000
  C   C33       1.0  0.65833  0.19151  0.37167  1.0000
  C   C34       1.0  0.63818  0.19586  0.45366  1.0000
  C   C35       1.0  0.59662  0.19357  0.44790  1.0000
  H   H27       1.0  0.63754  0.17975  0.59544  1.0000
  H   H28       1.0  0.68967  0.21466  0.18840  1.0000
  N   N5        1.0  0.54161  0.19600  0.35398  1.0000
  C   C36       1.0  0.85123  0.39630  0.36249  1.0000
  C   C37       1.0  0.85494  0.42053  0.28186  1.0000
  C   C38       1.0  0.85347  0.46034  0.28498  1.0000
  H   H29       1.0  0.85652  0.40764  0.21930  1.0000
  C   C39       1.0  0.85482  0.48293  0.19671  1.0000
  H   H30       1.0  0.85818  0.46619  0.13617  1.0000
  H   H31       1.0  0.82445  0.48431  0.18859  1.0000
  N   N6        1.0  0.84337  0.35502  0.35389  1.0000
  C   C40       1.0  0.64304  0.46423  0.36223  1.0000
  C   C41       1.0  0.61870  0.44385  0.28166  1.0000
  C   C42       1.0  0.57885  0.40261  0.28482  1.0000
  H   H32       1.0  0.63153  0.45839  0.21912  1.0000
  C   C43       1.0  0.55614  0.38146  0.19659  1.0000
  H   H33       1.0  0.57285  0.40159  0.13606  1.0000
  H   H34       1.0  0.52256  0.37610  0.19745  1.0000
  H   H35       1.0  0.55466  0.34967  0.18824  1.0000
  C   C44       1.0  0.47816  0.20009  0.38383  1.0000
  C   C45       1.0  0.49718  0.24626  0.37353  1.0000
  C   C46       1.0  0.47131  0.26697  0.36500  1.0000
  C   C47       1.0  0.42458  0.23945  0.36554  1.0000
  H   H36       1.0  0.53097  0.26532  0.37366  1.0000
  H   H37       1.0  0.40534  0.25382  0.35926  1.0000
  C   C48       1.0  0.49168  0.31301  0.35530  1.0000
  H   H38       1.0  0.47451  0.32658  0.33144  1.0000
  C   C49       1.0  0.84649  0.22037  0.37635  1.0000
  C   C50       1.0  0.86525  0.26685  0.38631  1.0000
  C   C51       1.0  0.83923  0.28746  0.38375  1.0000
  C   C52       1.0  0.79305  0.26032  0.37346  1.0000
  C   C53       1.0  0.77233  0.21374  0.36496  1.0000
  H   H39       1.0  0.77400  0.27507  0.37357  1.0000
  H   H40       1.0  0.89872  0.28637  0.39527  1.0000
  C   C54       1.0  0.85745  0.33267  0.39894  1.0000
  H   H41       1.0  0.90620  0.22221  0.39404  1.0000
  H   H42       1.0  0.87895  0.34685  0.45032  1.0000
  H   H43       1.0  0.30240  0.21400  0.50330  1.0000
  H   H44       1.0  0.58335  0.19923  0.50595  1.0000
  C   C55       1.0  0.65953  0.20499  0.54649  1.0000
  H   H45       1.0  0.69079  0.20504  0.54661  1.0000
  H   H46       1.0  0.66595  0.23724  0.57106  1.0000
  N   N7        1.0  0.70120  0.20420  0.37505  1.0000
  C   C56       1.0  0.84772  0.47614  0.37183  1.0000
  C   C57       1.0  0.84350  0.45169  0.45382  1.0000
  C   C58       1.0  0.84578  0.41242  0.44794  1.0000
  H   H47       1.0  0.84024  0.39353  0.50599  1.0000
  C   C59       1.0  0.83441  0.46391  0.54667  1.0000
  H   H48       1.0  0.85969  0.46721  0.59554  1.0000
  H   H49       1.0  0.80218  0.43807  0.57132  1.0000
  C   C60       1.0  0.56308  0.38097  0.37160  1.0000
  C   C61       1.0  0.58767  0.40110  0.45353  1.0000
  C   C62       1.0  0.62698  0.44262  0.44767  1.0000
  H   H50       1.0  0.64595  0.45591  0.50566  1.0000
  C   C63       1.0  0.57553  0.37974  0.54635  1.0000
  H   H51       1.0  0.54429  0.34850  0.54655  1.0000
  H   H52       1.0  0.57237  0.40174  0.59541  1.0000
  H   H53       1.0  0.60134  0.37325  0.57071  1.0000
  N   N8        1.0  0.53289  0.33811  0.37501  1.0000
  N   N9        1.0  0.68432  0.49767  0.35378  1.0000
  H   H54       1.0  0.83432  0.49510  0.54678  1.0000
  N   N10       1.0  0.83507  0.50635  0.37513  1.0000
  H   H55       1.0  0.88299  0.51654  0.19733  1.0000
  H   H56       1.0  0.76424  0.50831  0.37365  1.0000
  C   C64       1.0  0.89696  0.75447  0.36136  1.0000
  C   C65       1.0  0.89377  0.77746  0.28291  1.0000
  C   C66       1.0  0.91441  0.82423  0.28524  1.0000
  H   H57       1.0  0.91178  0.84067  0.22906  1.0000
  C   C67       1.0  0.86978  0.75488  0.19671  1.0000
  H   H58       1.0  0.85609  0.71918  0.19835  1.0000
  H   H59       1.0  0.89231  0.76769  0.13782  1.0000
  H   H60       1.0  0.84257  0.76126  0.18531  1.0000
  N   N11       1.0  0.87794  0.71014  0.36151  1.0000
  C   C68       1.0  0.97764  0.98536  0.38358  1.0000
  C   C69       1.0  0.00814  0.96977  0.38342  1.0000
  C   C70       1.0  0.05392  0.00166  0.38352  1.0000
  H   H61       1.0  0.94449  0.96280  0.38662  1.0000
  H   H62       1.0  0.07647  0.99106  0.38663  1.0000
  C   C71       1.0  0.99443  0.92471  0.39171  1.0000
  H   H63       1.0  0.01459  0.91652  0.42349  1.0000
  C   C72       1.0  0.81891  0.63548  0.37631  1.0000
  C   C73       1.0  0.77243  0.60776  0.38618  1.0000
  C   C74       1.0  0.75183  0.56113  0.38370  1.0000
  C   C75       1.0  0.77898  0.54210  0.37351  1.0000
  C   C76       1.0  0.82556  0.56796  0.36509  1.0000
  C   C77       1.0  0.84479  0.61469  0.36563  1.0000
  H   H64       1.0  0.87840  0.63393  0.35947  1.0000
  H   H65       1.0  0.75290  0.62171  0.39504  1.0000
  C   C78       1.0  0.70660  0.53414  0.39873  1.0000
  C   C79       1.0  0.85123  0.54758  0.35556  1.0000
  C   C80       1.0  0.83713  0.68162  0.37886  1.0000
  H   H66       1.0  0.81706  0.69336  0.39381  1.0000
  H   H67       1.0  0.88201  0.56475  0.33193  1.0000
  H   H68       1.0  0.69236  0.54150  0.44994  1.0000
  C   C81       1.0  0.93963  0.84919  0.36159  1.0000
  C   C82       1.0  0.94273  0.82595  0.43855  1.0000
  C   C83       1.0  0.92194  0.77914  0.43955  1.0000
  H   H69       1.0  0.96002  0.84356  0.49536  1.0000
  C   C84       1.0  0.92617  0.75640  0.52269  1.0000
  H   H70       1.0  0.94633  0.77945  0.57687  1.0000
  H   H71       1.0  0.94147  0.73688  0.50343  1.0000
  H   H72       1.0  0.89347  0.73437  0.55164  1.0000
  N   N12       1.0  0.95765  0.89335  0.35900  1.0000
