data_image0
_chemical_formula_structural       C11H7C2O4C4H2C2H2NHC6H2C6H3NHNHC14H9C8H4NH4C11H7C2O4C4H2C2H2NHC6H2C6H3NHNHC14H9C8H4NH4C11H7C2O4C4H2C2H2NHC6H2C6H3NHNHC14H9C8H4NH4C11H7C2O4C4H2C2H2NHC6H2C6H3NHNHC14H9C8H4NH4
_chemical_formula_sum              "C212 H144 O16 N16"
_cell_length_a       39.5508
_cell_length_b       39.5508
_cell_length_c       15.0035
_cell_angle_alpha    90
_cell_angle_beta     90
_cell_angle_gamma    90

_space_group_name_H-M_alt    "P 1"
_space_group_IT_number       1

loop_
  _space_group_symop_operation_xyz
  'x, y, z'

loop_
  _atom_site_type_symbol
  _atom_site_label
  _atom_site_symmetry_multiplicity
  _atom_site_fract_x
  _atom_site_fract_y
  _atom_site_fract_z
  _atom_site_occupancy
  C   C1        1.0  0.47315  0.49099  0.00229  1.0000
  C   C2        1.0  0.47116  0.45839  0.04178  1.0000
  C   C3        1.0  0.44670  0.45048  0.10656  1.0000
  C   C4        1.0  0.42393  0.47529  0.13815  1.0000
  C   C5        1.0  0.42727  0.00846  0.10399  1.0000
  C   C6        1.0  0.45159  0.01613  0.03880  1.0000
  C   C7        1.0  0.03300  0.03641  0.04721  1.0000
  C   C8        1.0  0.05861  0.04175  0.11064  1.0000
  C   C9        1.0  0.08231  0.01614  0.13132  1.0000
  C   C10       1.0  0.07866  0.48474  0.08702  1.0000
  C   C11       1.0  0.05294  0.47951  0.02383  1.0000
  H   H1        1.0  0.44551  0.42618  0.12983  1.0000
  H   H2        1.0  0.48722  0.43959  0.02195  1.0000
  H   H3        1.0  0.41107  0.02728  0.12289  1.0000
  H   H4        1.0  0.45302  0.04062  0.01744  1.0000
  H   H5        1.0  0.01634  0.05569  0.03584  1.0000
  H   H6        1.0  0.05976  0.06483  0.14134  1.0000
  H   H7        1.0  0.09530  0.46541  0.09777  1.0000
  C   C12       1.0  0.39608  0.46604  0.19341  1.0000
  C   C13       1.0  0.11061  0.02324  0.18765  1.0000
  O   O1        1.0  0.11963  0.05605  0.19851  1.0000
  O   O2        1.0  0.43549  0.12161  0.36467  1.0000
  O   O3        1.0  0.38330  0.43449  0.18304  1.0000
  O   O4        1.0  0.05782  0.38512  0.33031  1.0000
  C   C14       1.0  0.50281  0.34387  0.27940  1.0000
  C   C15       1.0  0.49585  0.27206  0.27433  1.0000
  C   C16       1.0  0.98454  0.29216  0.20232  1.0000
  C   C17       1.0  0.98740  0.32767  0.20582  1.0000
  H   H8        1.0  0.47244  0.28125  0.14932  1.0000
  H   H9        1.0  0.97755  0.34182  0.15497  1.0000
  C   C18       1.0  0.00399  0.17946  0.22577  1.0000
  C   C19       1.0  0.00514  0.21478  0.21365  1.0000
  H   H10       1.0  0.01662  0.16428  0.18172  1.0000
  H   H11       1.0  0.01885  0.22442  0.16167  1.0000
  N   N1        1.0  0.00150  0.37840  0.28805  1.0000
  H   H12       1.0  0.97945  0.38870  0.27801  1.0000
  C   C20       1.0  0.16457  0.50274  0.24457  1.0000
  C   C21       1.0  0.17966  0.48233  0.31111  1.0000
  C   C22       1.0  0.21504  0.48124  0.32200  1.0000
  C   C23       1.0  0.23634  0.50005  0.26497  1.0000
  C   C24       1.0  0.22140  0.52112  0.19992  1.0000
  C   C25       1.0  0.18616  0.52231  0.18969  1.0000
  H   H13       1.0  0.23614  0.53429  0.15582  1.0000
  H   H14       1.0  0.17669  0.53553  0.13676  1.0000
  C   C26       1.0  0.27179  0.49465  0.26366  1.0000
  C   C27       1.0  0.29251  0.50223  0.33777  1.0000
  C   C28       1.0  0.32798  0.49941  0.33130  1.0000
  C   C29       1.0  0.34343  0.48763  0.25218  1.0000
  C   C30       1.0  0.32243  0.47957  0.17884  1.0000
  C   C31       1.0  0.28720  0.48294  0.18450  1.0000
  H   H15       1.0  0.33270  0.47288  0.11882  1.0000
  H   H16       1.0  0.16492  0.46689  0.34965  1.0000
  H   H17       1.0  0.27296  0.47754  0.12929  1.0000
  N   N2        1.0  0.37789  0.48879  0.24206  1.0000
  H   H18       1.0  0.38869  0.51001  0.25882  1.0000
  N   N3        1.0  0.13082  0.49901  0.22445  1.0000
  H   H19       1.0  0.12177  0.47619  0.22944  1.0000
  C   C32       1.0  0.47726  0.08267  0.41507  1.0000
  C   C33       1.0  0.01013  0.07869  0.45086  1.0000
  C   C34       1.0  0.01763  0.05239  0.51073  1.0000
  C   C35       1.0  0.49251  0.02940  0.54058  1.0000
  C   C36       1.0  0.46017  0.03243  0.50007  1.0000
  C   C37       1.0  0.45251  0.05870  0.44026  1.0000
  C   C38       1.0  0.00081  0.49959  0.60154  1.0000
  C   C39       1.0  0.00714  0.47236  0.53124  1.0000
  C   C40       1.0  0.48095  0.45091  0.49979  1.0000
  C   C41       1.0  0.48644  0.42715  0.43166  1.0000
  C   C42       1.0  0.01823  0.42439  0.38904  1.0000
  C   C43       1.0  0.04390  0.44712  0.41578  1.0000
  C   C44       1.0  0.03821  0.47091  0.48382  1.0000
  C   C45       1.0  0.03027  0.00566  0.66542  1.0000
  H   H20       1.0  0.05113  0.45605  0.66241  1.0000
  H   H21       1.0  0.05754  0.48696  0.49984  1.0000
  H   H22       1.0  0.06727  0.44639  0.38649  1.0000
  H   H23       1.0  0.46707  0.41105  0.41637  1.0000
  H   H24       1.0  0.45730  0.45205  0.52699  1.0000
  H   H25       1.0  0.44140  0.01560  0.51513  1.0000
  H   H26       1.0  0.04197  0.05046  0.53293  1.0000
  H   H27       1.0  0.02893  0.09557  0.43655  1.0000
  H   H28       1.0  0.42844  0.06014  0.41552  1.0000
  C   C46       1.0  0.02572  0.39716  0.32976  1.0000
  C   C47       1.0  0.46825  0.11153  0.36299  1.0000
  C   C48       1.0  0.51463  0.32347  0.35038  1.0000
  C   C49       1.0  0.51131  0.28818  0.34782  1.0000
  C   C50       1.0  0.49033  0.23662  0.27713  1.0000
  C   C51       1.0  0.47301  0.22229  0.35033  1.0000
  C   C52       1.0  0.47166  0.18710  0.36171  1.0000
  C   C53       1.0  0.48729  0.16500  0.29999  1.0000
  H   H29       1.0  0.46270  0.23740  0.39864  1.0000
  H   H30       1.0  0.46131  0.17797  0.41931  1.0000
  H   H31       1.0  0.02409  0.33423  0.40712  1.0000
  H   H32       1.0  0.51949  0.27443  0.40149  1.0000
  N   N4        1.0  0.49108  0.13116  0.31864  1.0000
  H   H33       1.0  0.51321  0.12149  0.30584  1.0000
  H   H34       1.0  0.28210  0.51155  0.39517  1.0000
  H   H35       1.0  0.34260  0.50649  0.38435  1.0000
  H   H36       1.0  0.22515  0.46483  0.36752  1.0000
  C   C54       1.0  0.47315  0.99099  0.00229  1.0000
  C   C55       1.0  0.47116  0.95839  0.04178  1.0000
  C   C56       1.0  0.44670  0.95048  0.10656  1.0000
  C   C57       1.0  0.42393  0.97529  0.13815  1.0000
  C   C58       1.0  0.42727  0.50846  0.10399  1.0000
  C   C59       1.0  0.45159  0.51613  0.03880  1.0000
  C   C60       1.0  0.03300  0.53641  0.04721  1.0000
  C   C61       1.0  0.05861  0.54175  0.11064  1.0000
  C   C62       1.0  0.08231  0.51614  0.13132  1.0000
  C   C63       1.0  0.07866  0.98474  0.08702  1.0000
  C   C64       1.0  0.05294  0.97951  0.02383  1.0000
  H   H37       1.0  0.44551  0.92618  0.12983  1.0000
  H   H38       1.0  0.48722  0.93959  0.02195  1.0000
  H   H39       1.0  0.41107  0.52728  0.12289  1.0000
  H   H40       1.0  0.45302  0.54062  0.01744  1.0000
  H   H41       1.0  0.01634  0.55569  0.03584  1.0000
  H   H42       1.0  0.05976  0.56483  0.14134  1.0000
  H   H43       1.0  0.09530  0.96541  0.09777  1.0000
  C   C65       1.0  0.39608  0.96604  0.19341  1.0000
  C   C66       1.0  0.11061  0.52324  0.18765  1.0000
  O   O5        1.0  0.11963  0.55605  0.19851  1.0000
  O   O6        1.0  0.43549  0.62161  0.36467  1.0000
  O   O7        1.0  0.38330  0.93448  0.18304  1.0000
  O   O8        1.0  0.05782  0.88512  0.33031  1.0000
  C   C67       1.0  0.50281  0.84387  0.27940  1.0000
  C   C68       1.0  0.49585  0.77206  0.27433  1.0000
  C   C69       1.0  0.98454  0.79215  0.20232  1.0000
  C   C70       1.0  0.98740  0.82768  0.20582  1.0000
  H   H44       1.0  0.47244  0.78125  0.14932  1.0000
  H   H45       1.0  0.97755  0.84182  0.15497  1.0000
  C   C71       1.0  0.00399  0.67946  0.22577  1.0000
  C   C72       1.0  0.00514  0.71478  0.21365  1.0000
  H   H46       1.0  0.01662  0.66428  0.18172  1.0000
  H   H47       1.0  0.01885  0.72442  0.16167  1.0000
  N   N5        1.0  0.00150  0.87840  0.28805  1.0000
  H   H48       1.0  0.97945  0.88870  0.27801  1.0000
  C   C73       1.0  0.16457  0.00274  0.24457  1.0000
  C   C74       1.0  0.17966  0.98233  0.31111  1.0000
  C   C75       1.0  0.21504  0.98123  0.32200  1.0000
  C   C76       1.0  0.23634  0.00005  0.26497  1.0000
  C   C77       1.0  0.22140  0.02112  0.19992  1.0000
  C   C78       1.0  0.18616  0.02231  0.18969  1.0000
  H   H49       1.0  0.23614  0.03429  0.15582  1.0000
  H   H50       1.0  0.17669  0.03553  0.13676  1.0000
  C   C79       1.0  0.27179  0.99465  0.26366  1.0000
  C   C80       1.0  0.29251  0.00223  0.33777  1.0000
  C   C81       1.0  0.32798  0.99941  0.33130  1.0000
  C   C82       1.0  0.34343  0.98762  0.25218  1.0000
  C   C83       1.0  0.32243  0.97957  0.17884  1.0000
  C   C84       1.0  0.28720  0.98294  0.18450  1.0000
  H   H51       1.0  0.33270  0.97288  0.11882  1.0000
  H   H52       1.0  0.16492  0.96689  0.34965  1.0000
  H   H53       1.0  0.27296  0.97754  0.12929  1.0000
  N   N6        1.0  0.37789  0.98879  0.24206  1.0000
  H   H54       1.0  0.38869  0.01001  0.25882  1.0000
  N   N7        1.0  0.13082  0.99901  0.22445  1.0000
  H   H55       1.0  0.12177  0.97619  0.22944  1.0000
  C   C85       1.0  0.47726  0.58267  0.41507  1.0000
  C   C86       1.0  0.01013  0.57869  0.45086  1.0000
  C   C87       1.0  0.01763  0.55240  0.51073  1.0000
  C   C88       1.0  0.49251  0.52940  0.54058  1.0000
  C   C89       1.0  0.46017  0.53243  0.50007  1.0000
  C   C90       1.0  0.45251  0.55870  0.44026  1.0000
  C   C91       1.0  0.00081  0.99959  0.60154  1.0000
  C   C92       1.0  0.00714  0.97236  0.53124  1.0000
  C   C93       1.0  0.48095  0.95091  0.49979  1.0000
  C   C94       1.0  0.48644  0.92715  0.43166  1.0000
  C   C95       1.0  0.01823  0.92439  0.38904  1.0000
  C   C96       1.0  0.04390  0.94712  0.41578  1.0000
  C   C97       1.0  0.03821  0.97091  0.48382  1.0000
  C   C98       1.0  0.03027  0.50566  0.66542  1.0000
  H   H56       1.0  0.05113  0.95605  0.66241  1.0000
  H   H57       1.0  0.05754  0.98696  0.49984  1.0000
  H   H58       1.0  0.06727  0.94639  0.38649  1.0000
  H   H59       1.0  0.46707  0.91105  0.41637  1.0000
  H   H60       1.0  0.45730  0.95205  0.52699  1.0000
  H   H61       1.0  0.44140  0.51560  0.51513  1.0000
  H   H62       1.0  0.04197  0.55046  0.53293  1.0000
  H   H63       1.0  0.02893  0.59557  0.43655  1.0000
  H   H64       1.0  0.42844  0.56014  0.41552  1.0000
  C   C99       1.0  0.02572  0.89717  0.32976  1.0000
  C   C100      1.0  0.46825  0.61152  0.36299  1.0000
  C   C101      1.0  0.51463  0.82346  0.35038  1.0000
  C   C102      1.0  0.51131  0.78818  0.34782  1.0000
  C   C103      1.0  0.49033  0.73662  0.27713  1.0000
  C   C104      1.0  0.47301  0.72229  0.35033  1.0000
  C   C105      1.0  0.47166  0.68710  0.36171  1.0000
  C   C106      1.0  0.48729  0.66500  0.29999  1.0000
  H   H65       1.0  0.46270  0.73740  0.39864  1.0000
  H   H66       1.0  0.46131  0.67797  0.41931  1.0000
  H   H67       1.0  0.02409  0.83423  0.40712  1.0000
  H   H68       1.0  0.51949  0.77443  0.40149  1.0000
  N   N8        1.0  0.49108  0.63116  0.31864  1.0000
  H   H69       1.0  0.51321  0.62149  0.30584  1.0000
  H   H70       1.0  0.28210  0.01155  0.39517  1.0000
  H   H71       1.0  0.34260  0.00649  0.38435  1.0000
  H   H72       1.0  0.22515  0.96483  0.36752  1.0000
  C   C107      1.0  0.97315  0.49099  0.00229  1.0000
  C   C108      1.0  0.97116  0.45839  0.04178  1.0000
  C   C109      1.0  0.94670  0.45048  0.10656  1.0000
  C   C110      1.0  0.92393  0.47529  0.13815  1.0000
  C   C111      1.0  0.92727  0.00846  0.10399  1.0000
  C   C112      1.0  0.95159  0.01613  0.03880  1.0000
  C   C113      1.0  0.53300  0.03641  0.04721  1.0000
  C   C114      1.0  0.55861  0.04175  0.11064  1.0000
  C   C115      1.0  0.58232  0.01614  0.13132  1.0000
  C   C116      1.0  0.57866  0.48474  0.08702  1.0000
  C   C117      1.0  0.55293  0.47951  0.02383  1.0000
  H   H73       1.0  0.94551  0.42618  0.12983  1.0000
  H   H74       1.0  0.98722  0.43959  0.02195  1.0000
  H   H75       1.0  0.91107  0.02728  0.12289  1.0000
  H   H76       1.0  0.95303  0.04062  0.01744  1.0000
  H   H77       1.0  0.51634  0.05569  0.03584  1.0000
  H   H78       1.0  0.55976  0.06483  0.14134  1.0000
  H   H79       1.0  0.59530  0.46541  0.09777  1.0000
  C   C118      1.0  0.89608  0.46604  0.19341  1.0000
  C   C119      1.0  0.61061  0.02324  0.18765  1.0000
  O   O9        1.0  0.61963  0.05605  0.19851  1.0000
  O   O10       1.0  0.93549  0.12161  0.36467  1.0000
  O   O11       1.0  0.88330  0.43449  0.18304  1.0000
  O   O12       1.0  0.55782  0.38512  0.33031  1.0000
  C   C120      1.0  0.00281  0.34387  0.27940  1.0000
  C   C121      1.0  0.99585  0.27206  0.27433  1.0000
  C   C122      1.0  0.48454  0.29216  0.20232  1.0000
  C   C123      1.0  0.48740  0.32767  0.20582  1.0000
  H   H80       1.0  0.97244  0.28125  0.14932  1.0000
  H   H81       1.0  0.47755  0.34182  0.15497  1.0000
  C   C124      1.0  0.50399  0.17946  0.22577  1.0000
  C   C125      1.0  0.50514  0.21478  0.21365  1.0000
  H   H82       1.0  0.51662  0.16428  0.18172  1.0000
  H   H83       1.0  0.51885  0.22442  0.16167  1.0000
  N   N9        1.0  0.50150  0.37840  0.28805  1.0000
  H   H84       1.0  0.47945  0.38870  0.27801  1.0000
  C   C126      1.0  0.66457  0.50274  0.24457  1.0000
  C   C127      1.0  0.67965  0.48233  0.31111  1.0000
  C   C128      1.0  0.71503  0.48124  0.32200  1.0000
  C   C129      1.0  0.73634  0.50005  0.26497  1.0000
  C   C130      1.0  0.72140  0.52112  0.19992  1.0000
  C   C131      1.0  0.68616  0.52231  0.18969  1.0000
  H   H85       1.0  0.73614  0.53429  0.15582  1.0000
  H   H86       1.0  0.67669  0.53553  0.13676  1.0000
  C   C132      1.0  0.77179  0.49465  0.26366  1.0000
  C   C133      1.0  0.79251  0.50223  0.33777  1.0000
  C   C134      1.0  0.82798  0.49941  0.33130  1.0000
  C   C135      1.0  0.84344  0.48763  0.25218  1.0000
  C   C136      1.0  0.82243  0.47957  0.17884  1.0000
  C   C137      1.0  0.78720  0.48294  0.18450  1.0000
  H   H87       1.0  0.83270  0.47288  0.11882  1.0000
  H   H88       1.0  0.66491  0.46689  0.34965  1.0000
  H   H89       1.0  0.77296  0.47754  0.12929  1.0000
  N   N10       1.0  0.87789  0.48879  0.24206  1.0000
  H   H90       1.0  0.88869  0.51001  0.25882  1.0000
  N   N11       1.0  0.63082  0.49901  0.22445  1.0000
  H   H91       1.0  0.62177  0.47619  0.22944  1.0000
  C   C138      1.0  0.97726  0.08267  0.41507  1.0000
  C   C139      1.0  0.51013  0.07869  0.45086  1.0000
  C   C140      1.0  0.51763  0.05239  0.51073  1.0000
  C   C141      1.0  0.99251  0.02940  0.54058  1.0000
  C   C142      1.0  0.96017  0.03243  0.50007  1.0000
  C   C143      1.0  0.95251  0.05870  0.44026  1.0000
  C   C144      1.0  0.50081  0.49959  0.60154  1.0000
  C   C145      1.0  0.50714  0.47236  0.53124  1.0000
  C   C146      1.0  0.98095  0.45091  0.49979  1.0000
  C   C147      1.0  0.98644  0.42715  0.43166  1.0000
  C   C148      1.0  0.51823  0.42439  0.38904  1.0000
  C   C149      1.0  0.54390  0.44712  0.41578  1.0000
  C   C150      1.0  0.53821  0.47091  0.48382  1.0000
  C   C151      1.0  0.53027  0.00566  0.66542  1.0000
  H   H92       1.0  0.55113  0.45605  0.66241  1.0000
  H   H93       1.0  0.55754  0.48696  0.49984  1.0000
  H   H94       1.0  0.56727  0.44639  0.38649  1.0000
  H   H95       1.0  0.96707  0.41105  0.41637  1.0000
  H   H96       1.0  0.95730  0.45205  0.52699  1.0000
  H   H97       1.0  0.94140  0.01560  0.51513  1.0000
  H   H98       1.0  0.54197  0.05046  0.53293  1.0000
  H   H99       1.0  0.52893  0.09557  0.43655  1.0000
  H   H100      1.0  0.92844  0.06014  0.41552  1.0000
  C   C152      1.0  0.52572  0.39716  0.32976  1.0000
  C   C153      1.0  0.96825  0.11153  0.36299  1.0000
  C   C154      1.0  0.01463  0.32347  0.35038  1.0000
  C   C155      1.0  0.01132  0.28818  0.34782  1.0000
  C   C156      1.0  0.99032  0.23662  0.27713  1.0000
  C   C157      1.0  0.97301  0.22229  0.35033  1.0000
  C   C158      1.0  0.97166  0.18710  0.36171  1.0000
  C   C159      1.0  0.98729  0.16500  0.29999  1.0000
  H   H101      1.0  0.96270  0.23740  0.39864  1.0000
  H   H102      1.0  0.96131  0.17797  0.41931  1.0000
  H   H103      1.0  0.52409  0.33423  0.40712  1.0000
  H   H104      1.0  0.01949  0.27443  0.40149  1.0000
  N   N12       1.0  0.99108  0.13116  0.31864  1.0000
  H   H105      1.0  0.01321  0.12149  0.30584  1.0000
  H   H106      1.0  0.78210  0.51155  0.39517  1.0000
  H   H107      1.0  0.84261  0.50649  0.38435  1.0000
  H   H108      1.0  0.72515  0.46483  0.36752  1.0000
  C   C160      1.0  0.97315  0.99099  0.00229  1.0000
  C   C161      1.0  0.97116  0.95839  0.04178  1.0000
  C   C162      1.0  0.94670  0.95048  0.10656  1.0000
  C   C163      1.0  0.92393  0.97529  0.13815  1.0000
  C   C164      1.0  0.92727  0.50846  0.10399  1.0000
  C   C165      1.0  0.95159  0.51613  0.03880  1.0000
  C   C166      1.0  0.53300  0.53641  0.04721  1.0000
  C   C167      1.0  0.55861  0.54175  0.11064  1.0000
  C   C168      1.0  0.58232  0.51614  0.13132  1.0000
  C   C169      1.0  0.57866  0.98474  0.08702  1.0000
  C   C170      1.0  0.55293  0.97951  0.02383  1.0000
  H   H109      1.0  0.94551  0.92618  0.12983  1.0000
  H   H110      1.0  0.98722  0.93959  0.02195  1.0000
  H   H111      1.0  0.91107  0.52728  0.12289  1.0000
  H   H112      1.0  0.95303  0.54062  0.01744  1.0000
  H   H113      1.0  0.51634  0.55569  0.03584  1.0000
  H   H114      1.0  0.55976  0.56483  0.14134  1.0000
  H   H115      1.0  0.59530  0.96541  0.09777  1.0000
  C   C171      1.0  0.89608  0.96604  0.19341  1.0000
  C   C172      1.0  0.61061  0.52324  0.18765  1.0000
  O   O13       1.0  0.61963  0.55605  0.19851  1.0000
  O   O14       1.0  0.93549  0.62161  0.36467  1.0000
  O   O15       1.0  0.88330  0.93448  0.18304  1.0000
  O   O16       1.0  0.55782  0.88512  0.33031  1.0000
  C   C173      1.0  0.00281  0.84387  0.27940  1.0000
  C   C174      1.0  0.99585  0.77206  0.27433  1.0000
  C   C175      1.0  0.48454  0.79215  0.20232  1.0000
  C   C176      1.0  0.48740  0.82768  0.20582  1.0000
  H   H116      1.0  0.97244  0.78125  0.14932  1.0000
  H   H117      1.0  0.47755  0.84182  0.15497  1.0000
  C   C177      1.0  0.50399  0.67946  0.22577  1.0000
  C   C178      1.0  0.50514  0.71478  0.21365  1.0000
  H   H118      1.0  0.51662  0.66428  0.18172  1.0000
  H   H119      1.0  0.51885  0.72442  0.16167  1.0000
  N   N13       1.0  0.50150  0.87840  0.28805  1.0000
  H   H120      1.0  0.47945  0.88870  0.27801  1.0000
  C   C179      1.0  0.66457  0.00274  0.24457  1.0000
  C   C180      1.0  0.67965  0.98233  0.31111  1.0000
  C   C181      1.0  0.71503  0.98123  0.32200  1.0000
  C   C182      1.0  0.73634  0.00005  0.26497  1.0000
  C   C183      1.0  0.72140  0.02112  0.19992  1.0000
  C   C184      1.0  0.68616  0.02231  0.18969  1.0000
  H   H121      1.0  0.73614  0.03429  0.15582  1.0000
  H   H122      1.0  0.67669  0.03553  0.13676  1.0000
  C   C185      1.0  0.77179  0.99465  0.26366  1.0000
  C   C186      1.0  0.79251  0.00223  0.33777  1.0000
  C   C187      1.0  0.82798  0.99941  0.33130  1.0000
  C   C188      1.0  0.84344  0.98762  0.25218  1.0000
  C   C189      1.0  0.82243  0.97957  0.17884  1.0000
  C   C190      1.0  0.78720  0.98294  0.18450  1.0000
  H   H123      1.0  0.83270  0.97288  0.11882  1.0000
  H   H124      1.0  0.66491  0.96689  0.34965  1.0000
  H   H125      1.0  0.77296  0.97754  0.12929  1.0000
  N   N14       1.0  0.87789  0.98879  0.24206  1.0000
  H   H126      1.0  0.88869  0.01001  0.25882  1.0000
  N   N15       1.0  0.63082  0.99901  0.22445  1.0000
  H   H127      1.0  0.62177  0.97619  0.22944  1.0000
  C   C191      1.0  0.97726  0.58267  0.41507  1.0000
  C   C192      1.0  0.51013  0.57869  0.45086  1.0000
  C   C193      1.0  0.51763  0.55240  0.51073  1.0000
  C   C194      1.0  0.99251  0.52940  0.54058  1.0000
  C   C195      1.0  0.96017  0.53243  0.50007  1.0000
  C   C196      1.0  0.95251  0.55870  0.44026  1.0000
  C   C197      1.0  0.50081  0.99959  0.60154  1.0000
  C   C198      1.0  0.50714  0.97236  0.53124  1.0000
  C   C199      1.0  0.98095  0.95091  0.49979  1.0000
  C   C200      1.0  0.98644  0.92715  0.43166  1.0000
  C   C201      1.0  0.51823  0.92439  0.38904  1.0000
  C   C202      1.0  0.54390  0.94712  0.41578  1.0000
  C   C203      1.0  0.53821  0.97091  0.48382  1.0000
  C   C204      1.0  0.53027  0.50566  0.66542  1.0000
  H   H128      1.0  0.55113  0.95605  0.66241  1.0000
  H   H129      1.0  0.55754  0.98696  0.49984  1.0000
  H   H130      1.0  0.56727  0.94639  0.38649  1.0000
  H   H131      1.0  0.96707  0.91105  0.41637  1.0000
  H   H132      1.0  0.95730  0.95205  0.52699  1.0000
  H   H133      1.0  0.94140  0.51560  0.51513  1.0000
  H   H134      1.0  0.54197  0.55046  0.53293  1.0000
  H   H135      1.0  0.52893  0.59557  0.43655  1.0000
  H   H136      1.0  0.92844  0.56014  0.41552  1.0000
  C   C205      1.0  0.52572  0.89717  0.32976  1.0000
  C   C206      1.0  0.96825  0.61152  0.36299  1.0000
  C   C207      1.0  0.01463  0.82346  0.35038  1.0000
  C   C208      1.0  0.01132  0.78818  0.34782  1.0000
  C   C209      1.0  0.99032  0.73662  0.27713  1.0000
  C   C210      1.0  0.97301  0.72229  0.35033  1.0000
  C   C211      1.0  0.97166  0.68710  0.36171  1.0000
  C   C212      1.0  0.98729  0.66500  0.29999  1.0000
  H   H137      1.0  0.96270  0.73740  0.39864  1.0000
  H   H138      1.0  0.96131  0.67797  0.41931  1.0000
  H   H139      1.0  0.52409  0.83423  0.40712  1.0000
  H   H140      1.0  0.01949  0.77443  0.40149  1.0000
  N   N16       1.0  0.99108  0.63116  0.31864  1.0000
  H   H141      1.0  0.01321  0.62149  0.30584  1.0000
  H   H142      1.0  0.78210  0.01155  0.39517  1.0000
  H   H143      1.0  0.84261  0.00649  0.38435  1.0000
  H   H144      1.0  0.72515  0.96483  0.36752  1.0000
