data_image0
_chemical_formula_structural       NC5HC5HCH2C2HNHNC2HNC2HCNC2NCOCH3CNHCHOCH2NC8HC7HCH4C3H3C8HC7HCH4C3H4NC2HN2C2HN2C2N2C2HNC5H2C2H3CNCOCH3NCNCOCH3NCNCOCH3NCNCOCH3N
_chemical_formula_sum              "N24 C90 H54 O6"
_cell_length_a       30.686
_cell_length_b       30.6861
_cell_length_c       14.6459
_cell_angle_alpha    90.0002
_cell_angle_beta     89.9998
_cell_angle_gamma    120

_space_group_name_H-M_alt    "P 1"
_space_group_IT_number       1

loop_
  _space_group_symop_operation_xyz
  'x, y, z'

loop_
  _atom_site_type_symbol
  _atom_site_label
  _atom_site_symmetry_multiplicity
  _atom_site_fract_x
  _atom_site_fract_y
  _atom_site_fract_z
  _atom_site_occupancy
  N   N1        1.0  0.17296  0.49751  0.37460  1.0000
  C   C1        1.0  0.04637  0.60791  0.37506  1.0000
  C   C2        1.0  0.03044  0.69125  0.37416  1.0000
  C   C3        1.0  0.08098  0.70143  0.37402  1.0000
  C   C4        1.0  0.08816  0.65853  0.37434  1.0000
  C   C5        1.0  0.13645  0.66360  0.37252  1.0000
  H   H1        1.0  0.02426  0.72114  0.37434  1.0000
  C   C6        1.0  0.05420  0.56491  0.37506  1.0000
  C   C7        1.0  0.01959  0.47140  0.37397  1.0000
  C   C8        1.0  0.07013  0.48158  0.37415  1.0000
  C   C9        1.0  0.11290  0.53040  0.37512  1.0000
  C   C10       1.0  0.10413  0.57220  0.37493  1.0000
  H   H2        1.0  0.07632  0.45168  0.37433  1.0000
  C   C11       1.0  0.14417  0.62254  0.37298  1.0000
  H   H3        1.0  0.18084  0.63152  0.37027  1.0000
  H   H4        1.0  0.16826  0.69750  0.36942  1.0000
  C   C12       1.0  0.11873  0.75378  0.37391  1.0000
  C   C13       1.0  0.16175  0.53523  0.37672  1.0000
  H   H5        1.0  0.10730  0.77995  0.37260  1.0000
  N   N2        1.0  0.16932  0.77374  0.37626  1.0000
  H   H6        1.0  0.19237  0.57018  0.38035  1.0000
  N   N3        1.0  0.27296  0.46559  0.37355  1.0000
  C   C14       1.0  0.22572  0.45944  0.37326  1.0000
  C   C15       1.0  0.21957  0.50205  0.37562  1.0000
  H   H7        1.0  0.19520  0.42398  0.37085  1.0000
  N   N4        1.0  0.20680  0.86374  0.37353  1.0000
  C   C16       1.0  0.24789  0.91098  0.37321  1.0000
  C   C17       1.0  0.29666  0.91713  0.37561  1.0000
  H   H8        1.0  0.24295  0.94151  0.37081  1.0000
  C   C18       1.0  0.31573  0.51147  0.37647  1.0000
  N   N5        1.0  0.26258  0.54770  0.37841  1.0000
  C   C19       1.0  0.30983  0.55426  0.37999  1.0000
  C   C20       1.0  0.20990  0.82097  0.37645  1.0000
  N   N6        1.0  0.29929  0.87412  0.37842  1.0000
  C   C21       1.0  0.25859  0.82687  0.37996  1.0000
  O   O1        1.0  0.26610  0.78653  0.37992  1.0000
  C   C22       1.0  0.27328  0.77246  0.46989  1.0000
  H   H9        1.0  0.27868  0.74008  0.46346  1.0000
  H   H10       1.0  0.24036  0.76160  0.51310  1.0000
  H   H11       1.0  0.30666  0.80286  0.50269  1.0000
  C   C23       1.0  0.38765  0.97495  0.37676  1.0000
  N   N7        1.0  0.33871  0.96374  0.37458  1.0000
  H   H12       1.0  0.38786  0.27908  0.37077  1.0000
  C   C24       1.0  0.38292  0.48749  0.37388  1.0000
  H   H13       1.0  0.35675  0.44990  0.37258  1.0000
  O   O2        1.0  0.35016  0.60211  0.37988  1.0000
  C   C25       1.0  0.36427  0.62338  0.46983  1.0000
  H   H14       1.0  0.37516  0.60134  0.51303  1.0000
  H   H15       1.0  0.33387  0.62636  0.50267  1.0000
  N   N8        1.0  0.36296  0.51812  0.37626  1.0000
  C   C26       1.0  0.52879  0.56100  0.37506  1.0000
  C   C27       1.0  0.53608  0.51836  0.37488  1.0000
  C   C28       1.0  0.49427  0.46779  0.37510  1.0000
  C   C29       1.0  0.44545  0.46173  0.37415  1.0000
  C   C30       1.0  0.43528  0.50210  0.37399  1.0000
  C   C31       1.0  0.47817  0.55217  0.37431  1.0000
  C   C32       1.0  0.58642  0.52867  0.37275  1.0000
  C   C33       1.0  0.47309  0.59539  0.37237  1.0000
  H   H16       1.0  0.41556  0.42565  0.37432  1.0000
  C   C34       1.0  0.57179  0.61183  0.37506  1.0000
  C   C35       1.0  0.62241  0.62066  0.37426  1.0000
  C   C36       1.0  0.66530  0.67073  0.37396  1.0000
  C   C37       1.0  0.65512  0.71110  0.37415  1.0000
  C   C38       1.0  0.60630  0.70504  0.37512  1.0000
  C   C39       1.0  0.56450  0.65447  0.37491  1.0000
  C   C40       1.0  0.62748  0.57744  0.37225  1.0000
  H   H17       1.0  0.68501  0.74717  0.37431  1.0000
  C   C41       1.0  0.51416  0.64417  0.37289  1.0000
  H   H18       1.0  0.66137  0.57953  0.36888  1.0000
  H   H19       1.0  0.59538  0.50097  0.36974  1.0000
  H   H20       1.0  0.50519  0.67186  0.36998  1.0000
  H   H21       1.0  0.43920  0.59330  0.36913  1.0000
  C   C42       1.0  0.60147  0.74906  0.37676  1.0000
  C   C43       1.0  0.71765  0.68533  0.37386  1.0000
  C   C44       1.0  0.49911  0.42377  0.37677  1.0000
  H   H22       1.0  0.56652  0.74472  0.38048  1.0000
  H   H23       1.0  0.74382  0.72293  0.37256  1.0000
  H   H24       1.0  0.53406  0.42812  0.38055  1.0000
  C   C45       1.0  0.57570  0.09033  0.37507  1.0000
  C   C46       1.0  0.61834  0.14026  0.37493  1.0000
  C   C47       1.0  0.66891  0.14902  0.37512  1.0000
  C   C48       1.0  0.67497  0.10626  0.37415  1.0000
  C   C49       1.0  0.63460  0.05572  0.37395  1.0000
  C   C50       1.0  0.58453  0.04854  0.37425  1.0000
  C   C51       1.0  0.60804  0.18030  0.37294  1.0000
  C   C52       1.0  0.54131  0.00025  0.37218  1.0000
  H   H25       1.0  0.71105  0.11244  0.37431  1.0000
  C   C53       1.0  0.52487  0.08250  0.37508  1.0000
  C   C54       1.0  0.51604  0.12429  0.37434  1.0000
  C   C55       1.0  0.46597  0.11711  0.37400  1.0000
  C   C56       1.0  0.42560  0.06657  0.37415  1.0000
  C   C57       1.0  0.43167  0.02381  0.37509  1.0000
  C   C58       1.0  0.48223  0.03257  0.37486  1.0000
  C   C59       1.0  0.55926  0.17258  0.37247  1.0000
  H   H26       1.0  0.38953  0.06038  0.37430  1.0000
  C   C60       1.0  0.49254  0.99253  0.37267  1.0000
  H   H27       1.0  0.55718  0.20439  0.36924  1.0000
  H   H28       1.0  0.63574  0.21696  0.37011  1.0000
  H   H29       1.0  0.46484  0.95588  0.36957  1.0000
  H   H30       1.0  0.54340  0.96845  0.36868  1.0000
  C   C61       1.0  0.64920  0.01797  0.37385  1.0000
  C   C62       1.0  0.45137  0.15486  0.37389  1.0000
  C   C63       1.0  0.71293  0.19788  0.37675  1.0000
  H   H31       1.0  0.68680  0.02939  0.37254  1.0000
  H   H32       1.0  0.39199  0.94434  0.38057  1.0000
  H   H33       1.0  0.41377  0.14343  0.37256  1.0000
  H   H34       1.0  0.70859  0.22849  0.38044  1.0000
  N   N9        1.0  0.67110  0.92990  0.37353  1.0000
  C   C64       1.0  0.67725  0.88882  0.37322  1.0000
  C   C65       1.0  0.63464  0.84005  0.37562  1.0000
  H   H35       1.0  0.71272  0.89376  0.37081  1.0000
  N   N10       1.0  0.63919  0.79799  0.37459  1.0000
  N   N11       1.0  0.82761  0.70722  0.37353  1.0000
  C   C66       1.0  0.87485  0.71338  0.37323  1.0000
  C   C67       1.0  0.88100  0.67077  0.37561  1.0000
  H   H36       1.0  0.90537  0.74884  0.37082  1.0000
  N   N12       1.0  0.92761  0.67531  0.37458  1.0000
  N   N13       1.0  0.42947  0.24293  0.37353  1.0000
  C   C68       1.0  0.42332  0.28401  0.37323  1.0000
  C   C69       1.0  0.46594  0.33278  0.37564  1.0000
  N   N14       1.0  0.46139  0.37484  0.37459  1.0000
  N   N15       1.0  0.89378  0.30909  0.37355  1.0000
  C   C70       1.0  0.85269  0.26185  0.37324  1.0000
  C   C71       1.0  0.80392  0.25569  0.37562  1.0000
  H   H37       1.0  0.85763  0.23132  0.37085  1.0000
  N   N16       1.0  0.76187  0.20909  0.37460  1.0000
  C   C72       1.0  0.99644  0.60062  0.37485  1.0000
  C   C73       1.0  0.98768  0.64243  0.37509  1.0000
  C   C74       1.0  0.95641  0.55028  0.37270  1.0000
  C   C75       1.0  0.01241  0.51429  0.37426  1.0000
  C   C76       1.0  0.96412  0.50922  0.37228  1.0000
  H   H38       1.0  0.93232  0.47533  0.36889  1.0000
  H   H39       1.0  0.91974  0.54132  0.36979  1.0000
  C   C77       1.0  0.98184  0.41905  0.37388  1.0000
  C   C78       1.0  0.93882  0.63759  0.37673  1.0000
  H   H40       1.0  0.99327  0.39288  0.37258  1.0000
  H   H41       1.0  0.90821  0.60264  0.38045  1.0000
  H   H42       1.0  0.39664  0.66117  0.46335  1.0000
  C   C79       1.0  0.62522  0.92680  0.37649  1.0000
  N   N17       1.0  0.58900  0.83742  0.37845  1.0000
  C   C80       1.0  0.58244  0.87811  0.38003  1.0000
  O   O3        1.0  0.53459  0.87059  0.37994  1.0000
  C   C81       1.0  0.51333  0.86345  0.46990  1.0000
  H   H43       1.0  0.47554  0.85804  0.46343  1.0000
  H   H44       1.0  0.53538  0.89639  0.51306  1.0000
  H   H45       1.0  0.51037  0.83009  0.50277  1.0000
  N   N18       1.0  0.61858  0.96738  0.37627  1.0000
  C   C82       1.0  0.78484  0.66135  0.37645  1.0000
  N   N19       1.0  0.83799  0.62512  0.37841  1.0000
  C   C83       1.0  0.79074  0.61856  0.37996  1.0000
  O   O4        1.0  0.75040  0.57071  0.37989  1.0000
  C   C84       1.0  0.73631  0.54946  0.46986  1.0000
  H   H46       1.0  0.70393  0.51168  0.46341  1.0000
  H   H47       1.0  0.72543  0.57151  0.51305  1.0000
  H   H48       1.0  0.76671  0.54649  0.50269  1.0000
  N   N20       1.0  0.73761  0.65471  0.37624  1.0000
  C   C85       1.0  0.47535  0.24603  0.37649  1.0000
  N   N21       1.0  0.51158  0.33541  0.37848  1.0000
  C   C86       1.0  0.51813  0.29472  0.38005  1.0000
  O   O5        1.0  0.56599  0.30224  0.37998  1.0000
  C   C87       1.0  0.58723  0.30939  0.46995  1.0000
  H   H49       1.0  0.62502  0.31480  0.46350  1.0000
  H   H50       1.0  0.56519  0.27646  0.51313  1.0000
  H   H51       1.0  0.59020  0.34276  0.50278  1.0000
  N   N22       1.0  0.48199  0.20544  0.37628  1.0000
  C   C88       1.0  0.89067  0.35186  0.37648  1.0000
  N   N23       1.0  0.80129  0.29871  0.37843  1.0000
  C   C89       1.0  0.84198  0.34596  0.38001  1.0000
  O   O6        1.0  0.83446  0.38629  0.37990  1.0000
  C   C90       1.0  0.82731  0.40040  0.46985  1.0000
  H   H52       1.0  0.82190  0.43277  0.46338  1.0000
  H   H53       1.0  0.86024  0.41129  0.51304  1.0000
  H   H54       1.0  0.79394  0.37000  0.50270  1.0000
  N   N24       1.0  0.93126  0.39909  0.37626  1.0000
