data_image0
_chemical_formula_structural       CHC2HC2HC5HCHCH2C3HCHC2HC2HC2HC2HC2HC4HCOH3C2H2C4HCOH3C2H2C3OH3C2H2C4HCOH3C2H2C4HCOH3C2H2C4HCOH3C4H2C4H2C4H2C4H2C4H2C2H2COH3C6H3COH3C4HCOH3C6H3COH3C6H3COH3C6H3COH3
_chemical_formula_sum              "C120 H90 O12"
_cell_length_a       31.8976
_cell_length_b       31.8976
_cell_length_c       14.7981
_cell_angle_alpha    90
_cell_angle_beta     90
_cell_angle_gamma    120

_space_group_name_H-M_alt    "P 1"
_space_group_IT_number       1

loop_
  _space_group_symop_operation_xyz
  'x, y, z'

loop_
  _atom_site_type_symbol
  _atom_site_label
  _atom_site_symmetry_multiplicity
  _atom_site_fract_x
  _atom_site_fract_y
  _atom_site_fract_z
  _atom_site_occupancy
  C   C1        1.0  0.06632  0.57061  0.33479  1.0000
  H   H1        1.0  0.05053  0.59088  0.32092  1.0000
  C   C2        1.0  0.03691  0.51933  0.34807  1.0000
  C   C3        1.0  0.06292  0.49398  0.36172  1.0000
  H   H2        1.0  0.04478  0.45765  0.37391  1.0000
  C   C4        1.0  0.11773  0.59551  0.33514  1.0000
  C   C5        1.0  0.14868  0.47045  0.29794  1.0000
  H   H3        1.0  0.12634  0.46197  0.24303  1.0000
  C   C6        1.0  0.14885  0.64699  0.32382  1.0000
  C   C7        1.0  0.14030  0.56784  0.35090  1.0000
  C   C8        1.0  0.11415  0.51737  0.36357  1.0000
  C   C9        1.0  0.14215  0.49374  0.37328  1.0000
  C   C10       1.0  0.14692  0.68050  0.38358  1.0000
  H   H4        1.0  0.11904  0.66910  0.42878  1.0000
  C   C11       1.0  0.18956  0.46454  0.29148  1.0000
  H   H5        1.0  0.19443  0.45037  0.23297  1.0000
  C   C12       1.0  0.18984  0.66457  0.26649  1.0000
  H   H6        1.0  0.19150  0.64062  0.22272  1.0000
  H   H7        1.0  0.17741  0.58509  0.35298  1.0000
  C   C13       1.0  0.17664  0.50842  0.44379  1.0000
  C   C14       1.0  0.21912  0.50478  0.43698  1.0000
  C   C15       1.0  0.22640  0.48328  0.35820  1.0000
  H   H8        1.0  0.17362  0.52755  0.49664  1.0000
  C   C16       1.0  0.18560  0.72869  0.38900  1.0000
  H   H9        1.0  0.18401  0.75094  0.43704  1.0000
  C   C17       1.0  0.90273  0.41811  0.33524  1.0000
  C   C18       1.0  0.95413  0.44302  0.33484  1.0000
  H   H10       1.0  0.96992  0.42275  0.32093  1.0000
  C   C19       1.0  0.59892  0.48800  0.33512  1.0000
  C   C20       1.0  0.57401  0.51451  0.33476  1.0000
  H   H11       1.0  0.59428  0.55056  0.32085  1.0000
  C   C21       1.0  0.44642  0.49909  0.33484  1.0000
  C   C22       1.0  0.42151  0.52559  0.33521  1.0000
  H   H12       1.0  0.42614  0.46303  0.32095  1.0000
  C   C23       1.0  0.52902  0.11433  0.33510  1.0000
  C   C24       1.0  0.50253  0.06292  0.33468  1.0000
  H   H13       1.0  0.46646  0.04712  0.32088  1.0000
  C   C25       1.0  0.51797  0.95077  0.33463  1.0000
  C   C26       1.0  0.49150  0.89936  0.33512  1.0000
  H   H14       1.0  0.55404  0.96658  0.32076  1.0000
  C   C27       1.0  0.27231  0.48708  0.33748  1.0000
  C   C28       1.0  0.37003  0.50523  0.32386  1.0000
  C   C29       1.0  0.35245  0.52863  0.26654  1.0000
  C   C30       1.0  0.30512  0.52188  0.27419  1.0000
  H   H15       1.0  0.37640  0.55425  0.22278  1.0000
  C   C31       1.0  0.29165  0.55324  0.22029  1.0000
  O   O1        1.0  0.32953  0.59228  0.17001  1.0000
  H   H16       1.0  0.27550  0.56874  0.26464  1.0000
  H   H17       1.0  0.26429  0.53029  0.17096  1.0000
  H   H18       1.0  0.35184  0.61677  0.21330  1.0000
  C   C32       1.0  0.55260  0.72849  0.29154  1.0000
  C   C33       1.0  0.54672  0.68172  0.29807  1.0000
  H   H19       1.0  0.56675  0.74753  0.23302  1.0000
  H   H20       1.0  0.55512  0.66788  0.24306  1.0000
  C   C34       1.0  0.53001  0.78869  0.33735  1.0000
  C   C35       1.0  0.51190  0.86830  0.32365  1.0000
  C   C36       1.0  0.48851  0.82730  0.26633  1.0000
  C   C37       1.0  0.49524  0.78671  0.27406  1.0000
  H   H21       1.0  0.46283  0.82560  0.22270  1.0000
  C   C38       1.0  0.46385  0.74186  0.22024  1.0000
  O   O2        1.0  0.42483  0.74071  0.16990  1.0000
  H   H22       1.0  0.44832  0.71024  0.26465  1.0000
  H   H23       1.0  0.48678  0.73739  0.17095  1.0000
  H   H24       1.0  0.40033  0.73856  0.21316  1.0000
  C   C39       1.0  0.28867  0.82746  0.29152  1.0000
  C   C40       1.0  0.33546  0.86832  0.29802  1.0000
  H   H25       1.0  0.26963  0.82260  0.23302  1.0000
  H   H26       1.0  0.34931  0.89067  0.24313  1.0000
  C   C41       1.0  0.22844  0.74471  0.33747  1.0000
  C   C42       1.0  0.23042  0.71190  0.27416  1.0000
  C   C43       1.0  0.27524  0.72537  0.22026  1.0000
  O   O3        1.0  0.27640  0.68750  0.16995  1.0000
  H   H27       1.0  0.30689  0.74151  0.26461  1.0000
  H   H28       1.0  0.27966  0.75274  0.17095  1.0000
  H   H29       1.0  0.27858  0.66518  0.21322  1.0000
  C   C44       1.0  0.83092  0.54922  0.29146  1.0000
  C   C45       1.0  0.87183  0.54335  0.29794  1.0000
  H   H30       1.0  0.82600  0.56336  0.23296  1.0000
  H   H31       1.0  0.89407  0.55176  0.24292  1.0000
  C   C46       1.0  0.74812  0.52658  0.33731  1.0000
  C   C47       1.0  0.65039  0.50835  0.32370  1.0000
  C   C48       1.0  0.66800  0.48500  0.26631  1.0000
  C   C49       1.0  0.71533  0.49177  0.27403  1.0000
  H   H32       1.0  0.64401  0.45930  0.22271  1.0000
  C   C50       1.0  0.72882  0.46041  0.22021  1.0000
  O   O4        1.0  0.69098  0.42137  0.16987  1.0000
  H   H33       1.0  0.74495  0.44490  0.26462  1.0000
  H   H34       1.0  0.75622  0.48335  0.17093  1.0000
  H   H35       1.0  0.66865  0.39687  0.21314  1.0000
  C   C51       1.0  0.46793  0.28521  0.29153  1.0000
  C   C52       1.0  0.47384  0.33200  0.29801  1.0000
  H   H36       1.0  0.45375  0.26617  0.23303  1.0000
  H   H37       1.0  0.46535  0.34586  0.24313  1.0000
  C   C53       1.0  0.49050  0.22502  0.33744  1.0000
  C   C54       1.0  0.50865  0.14542  0.32366  1.0000
  C   C55       1.0  0.53204  0.18645  0.26641  1.0000
  C   C56       1.0  0.52528  0.22702  0.27411  1.0000
  H   H38       1.0  0.55765  0.18813  0.22262  1.0000
  C   C57       1.0  0.55662  0.27185  0.22022  1.0000
  O   O5        1.0  0.59566  0.27303  0.16990  1.0000
  H   H39       1.0  0.57213  0.30350  0.26458  1.0000
  H   H40       1.0  0.53367  0.27627  0.17092  1.0000
  H   H41       1.0  0.62016  0.27521  0.21316  1.0000
  C   C58       1.0  0.73192  0.18612  0.29150  1.0000
  C   C59       1.0  0.68515  0.14521  0.29794  1.0000
  H   H42       1.0  0.75099  0.19104  0.23300  1.0000
  H   H43       1.0  0.67131  0.12297  0.24291  1.0000
  C   C60       1.0  0.79208  0.26891  0.33737  1.0000
  C   C61       1.0  0.87161  0.36665  0.32373  1.0000
  C   C62       1.0  0.83064  0.34902  0.26635  1.0000
  C   C63       1.0  0.79008  0.30169  0.27407  1.0000
  H   H44       1.0  0.82893  0.37300  0.22273  1.0000
  C   C64       1.0  0.74523  0.28821  0.22023  1.0000
  O   O6        1.0  0.74404  0.32606  0.16989  1.0000
  H   H45       1.0  0.71360  0.27209  0.26463  1.0000
  H   H46       1.0  0.74078  0.26081  0.17095  1.0000
  H   H47       1.0  0.74187  0.34839  0.21314  1.0000
  C   C65       1.0  0.98355  0.49430  0.34810  1.0000
  C   C66       1.0  0.95753  0.51965  0.36174  1.0000
  C   C67       1.0  0.90629  0.49625  0.36365  1.0000
  C   C68       1.0  0.88015  0.44578  0.35092  1.0000
  H   H48       1.0  0.97567  0.55599  0.37381  1.0000
  H   H49       1.0  0.84304  0.42853  0.35290  1.0000
  C   C69       1.0  0.52274  0.49264  0.34807  1.0000
  C   C70       1.0  0.49739  0.44128  0.36174  1.0000
  C   C71       1.0  0.52079  0.41345  0.36363  1.0000
  C   C72       1.0  0.57126  0.43777  0.35091  1.0000
  H   H50       1.0  0.46106  0.42309  0.37399  1.0000
  H   H51       1.0  0.58851  0.41791  0.35298  1.0000
  C   C73       1.0  0.49769  0.52095  0.34810  1.0000
  C   C74       1.0  0.44917  0.57582  0.35099  1.0000
  C   C75       1.0  0.49964  0.60015  0.36371  1.0000
  C   C76       1.0  0.52304  0.57232  0.36176  1.0000
  H   H52       1.0  0.43192  0.59568  0.35305  1.0000
  H   H53       1.0  0.55938  0.59052  0.37385  1.0000
  C   C77       1.0  0.52440  0.03352  0.34800  1.0000
  C   C78       1.0  0.57578  0.05955  0.36163  1.0000
  C   C79       1.0  0.60361  0.11078  0.36346  1.0000
  C   C80       1.0  0.57927  0.13692  0.35077  1.0000
  H   H54       1.0  0.59397  0.04141  0.37387  1.0000
  H   H55       1.0  0.59912  0.17402  0.35280  1.0000
  C   C81       1.0  0.49610  0.98017  0.34802  1.0000
  C   C82       1.0  0.44126  0.87677  0.35090  1.0000
  C   C83       1.0  0.41692  0.90290  0.36355  1.0000
  C   C84       1.0  0.44474  0.95414  0.36175  1.0000
  H   H56       1.0  0.42142  0.83966  0.35301  1.0000
  H   H57       1.0  0.42654  0.97227  0.37395  1.0000
  C   C85       1.0  0.28832  0.46026  0.38901  1.0000
  C   C86       1.0  0.33651  0.46977  0.38360  1.0000
  H   H58       1.0  0.26606  0.43641  0.43703  1.0000
  H   H59       1.0  0.34791  0.45330  0.42881  1.0000
  C   C87       1.0  0.25560  0.52823  0.51059  1.0000
  O   O7        1.0  0.23627  0.50167  0.59263  1.0000
  H   H60       1.0  0.28989  0.52996  0.49592  1.0000
  H   H61       1.0  0.26352  0.56561  0.51940  1.0000
  H   H62       1.0  0.26027  0.51835  0.64076  1.0000
  C   C88       1.0  0.52328  0.65177  0.37320  1.0000
  C   C89       1.0  0.50851  0.67163  0.44354  1.0000
  C   C90       1.0  0.51224  0.71779  0.43685  1.0000
  C   C91       1.0  0.53382  0.74660  0.35816  1.0000
  C   C92       1.0  0.55686  0.83154  0.38884  1.0000
  C   C93       1.0  0.54737  0.87023  0.38336  1.0000
  H   H63       1.0  0.58060  0.83310  0.43708  1.0000
  H   H64       1.0  0.56369  0.89799  0.42883  1.0000
  H   H65       1.0  0.48940  0.64953  0.49648  1.0000
  C   C94       1.0  0.48876  0.73081  0.51042  1.0000
  O   O8        1.0  0.51521  0.73789  0.59256  1.0000
  H   H66       1.0  0.48715  0.76345  0.49583  1.0000
  H   H67       1.0  0.45136  0.70142  0.51904  1.0000
  H   H68       1.0  0.49851  0.74521  0.64066  1.0000
  C   C95       1.0  0.36531  0.87488  0.37336  1.0000
  C   C96       1.0  0.34544  0.84034  0.44381  1.0000
  C   C97       1.0  0.29932  0.79787  0.43699  1.0000
  C   C98       1.0  0.27055  0.79061  0.35822  1.0000
  H   H69       1.0  0.36759  0.84335  0.49665  1.0000
  C   C99       1.0  0.28628  0.76138  0.51059  1.0000
  O   O9        1.0  0.27905  0.78071  0.59264  1.0000
  H   H70       1.0  0.25372  0.72710  0.49592  1.0000
  H   H71       1.0  0.31573  0.75346  0.51939  1.0000
  H   H72       1.0  0.27173  0.75670  0.64076  1.0000
  C   C100      1.0  0.87832  0.51991  0.37306  1.0000
  C   C101      1.0  0.84372  0.50511  0.44346  1.0000
  C   C102      1.0  0.80128  0.50883  0.43678  1.0000
  C   C103      1.0  0.79403  0.53042  0.35811  1.0000
  C   C104      1.0  0.73210  0.55342  0.38877  1.0000
  C   C105      1.0  0.68391  0.54390  0.38331  1.0000
  H   H73       1.0  0.75429  0.57719  0.43697  1.0000
  H   H74       1.0  0.67245  0.56022  0.42875  1.0000
  H   H75       1.0  0.84672  0.48600  0.49638  1.0000
  C   C106      1.0  0.76479  0.48535  0.51036  1.0000
  O   O10       1.0  0.78417  0.51178  0.59251  1.0000
  H   H76       1.0  0.73054  0.48375  0.49581  1.0000
  H   H77       1.0  0.75678  0.44794  0.51895  1.0000
  H   H78       1.0  0.76016  0.49508  0.64062  1.0000
  C   C107      1.0  0.49716  0.36182  0.37333  1.0000
  C   C108      1.0  0.51186  0.34201  0.44382  1.0000
  C   C109      1.0  0.50822  0.29589  0.43699  1.0000
  C   C110      1.0  0.48669  0.26712  0.35822  1.0000
  C   C111      1.0  0.46371  0.18218  0.38897  1.0000
  C   C112      1.0  0.47325  0.14352  0.38350  1.0000
  H   H79       1.0  0.43987  0.18058  0.43704  1.0000
  H   H80       1.0  0.45679  0.11565  0.42872  1.0000
  H   H81       1.0  0.53101  0.36417  0.49666  1.0000
  C   C113      1.0  0.53168  0.28286  0.51056  1.0000
  O   O11       1.0  0.50514  0.27562  0.59262  1.0000
  H   H82       1.0  0.53341  0.25030  0.49587  1.0000
  H   H83       1.0  0.56906  0.31232  0.51934  1.0000
  H   H84       1.0  0.52184  0.26831  0.64073  1.0000
  C   C114      1.0  0.65524  0.13877  0.37306  1.0000
  C   C115      1.0  0.67500  0.17332  0.44350  1.0000
  C   C116      1.0  0.72116  0.21576  0.43683  1.0000
  C   C117      1.0  0.75000  0.22300  0.35816  1.0000
  C   C118      1.0  0.83493  0.28493  0.38885  1.0000
  C   C119      1.0  0.87360  0.33313  0.38339  1.0000
  H   H85       1.0  0.83651  0.26275  0.43708  1.0000
  H   H86       1.0  0.90138  0.34458  0.42886  1.0000
  H   H87       1.0  0.65287  0.17032  0.49638  1.0000
  C   C120      1.0  0.73417  0.25225  0.51040  1.0000
  O   O12       1.0  0.74122  0.23286  0.59256  1.0000
  H   H88       1.0  0.76681  0.28649  0.49585  1.0000
  H   H89       1.0  0.70477  0.26026  0.51899  1.0000
  H   H90       1.0  0.74852  0.25688  0.64066  1.0000
