data_image0
_chemical_formula_structural       C7H4CNCH2CHC7H4CNCH2CHC3HOHNC3HOHNC3HOHNC11H6NCNC2H2C11H6NCNC2H2C3OH2NC3OH2NC3OH2N
_chemical_formula_sum              "C66 H42 N12 O6"
_cell_length_a       36.9937
_cell_length_b       36.9936
_cell_length_c       14.5133
_cell_angle_alpha    90
_cell_angle_beta     90
_cell_angle_gamma    120

_space_group_name_H-M_alt    "P 1"
_space_group_IT_number       1

loop_
  _space_group_symop_operation_xyz
  'x, y, z'

loop_
  _atom_site_type_symbol
  _atom_site_label
  _atom_site_symmetry_multiplicity
  _atom_site_fract_x
  _atom_site_fract_y
  _atom_site_fract_z
  _atom_site_occupancy
  C   C1        1.0  0.40968  0.64717  0.36715  1.0000
  C   C2        1.0  0.39475  0.77090  0.36715  1.0000
  C   C3        1.0  0.46256  0.61067  0.37786  1.0000
  C   C4        1.0  0.47947  0.65447  0.37913  1.0000
  C   C5        1.0  0.45366  0.67227  0.37362  1.0000
  C   C6        1.0  0.43863  0.79794  0.36521  1.0000
  C   C7        1.0  0.45653  0.84167  0.37037  1.0000
  H   H1        1.0  0.46767  0.70414  0.37564  1.0000
  H   H2        1.0  0.51104  0.67411  0.38467  1.0000
  H   H3        1.0  0.45831  0.78606  0.36085  1.0000
  H   H4        1.0  0.48840  0.85980  0.37012  1.0000
  C   C8        1.0  0.37634  0.72643  0.36459  1.0000
  N   N1        1.0  0.40007  0.70777  0.36481  1.0000
  C   C9        1.0  0.38362  0.66559  0.36458  1.0000
  H   H5        1.0  0.25587  0.68066  0.36097  1.0000
  H   H6        1.0  0.18213  0.63700  0.37028  1.0000
  C   C10       1.0  0.48918  0.59431  0.38672  1.0000
  H   H7        1.0  0.51792  0.61295  0.41053  1.0000
  C   C11       1.0  0.64063  0.38637  0.36673  1.0000
  C   C12       1.0  0.65555  0.26265  0.36665  1.0000
  C   C13       1.0  0.58774  0.42287  0.35603  1.0000
  C   C14       1.0  0.57083  0.37907  0.35486  1.0000
  C   C15       1.0  0.59664  0.36127  0.36038  1.0000
  C   C16       1.0  0.61168  0.23561  0.36861  1.0000
  C   C17       1.0  0.59378  0.19187  0.36345  1.0000
  H   H8        1.0  0.58263  0.32941  0.35843  1.0000
  H   H9        1.0  0.53926  0.35943  0.34940  1.0000
  H   H10       1.0  0.59199  0.24749  0.37302  1.0000
  H   H11       1.0  0.56191  0.17374  0.36377  1.0000
  C   C18       1.0  0.67397  0.30711  0.36921  1.0000
  N   N2        1.0  0.65024  0.32577  0.36902  1.0000
  C   C19       1.0  0.66668  0.36796  0.36924  1.0000
  H   H12       1.0  0.79443  0.35289  0.37285  1.0000
  H   H13       1.0  0.86817  0.39654  0.36358  1.0000
  C   C20       1.0  0.56113  0.43922  0.34712  1.0000
  H   H14       1.0  0.53240  0.42059  0.32322  1.0000
  C   C21       1.0  0.50182  0.53801  0.36688  1.0000
  C   C22       1.0  0.50225  0.51550  0.28879  1.0000
  C   C23       1.0  0.52581  0.49506  0.28768  1.0000
  H   H15       1.0  0.48600  0.51468  0.23096  1.0000
  O   O1        1.0  0.52572  0.47487  0.20927  1.0000
  H   H16       1.0  0.55219  0.49334  0.17766  1.0000
  N   N3        1.0  0.47914  0.55692  0.36264  1.0000
  C   C24       1.0  0.50389  0.97220  0.36685  1.0000
  C   C25       1.0  0.52642  0.99513  0.28879  1.0000
  C   C26       1.0  0.54685  0.03914  0.28768  1.0000
  H   H17       1.0  0.52723  0.97972  0.23093  1.0000
  O   O2        1.0  0.56704  0.05925  0.20926  1.0000
  H   H18       1.0  0.54857  0.06725  0.17766  1.0000
  N   N4        1.0  0.48499  0.93061  0.36261  1.0000
  C   C27       1.0  0.06972  0.54007  0.36685  1.0000
  C   C28       1.0  0.04679  0.53961  0.28872  1.0000
  C   C29       1.0  0.00278  0.51606  0.28763  1.0000
  H   H19       1.0  0.06221  0.55585  0.23088  1.0000
  O   O3        1.0  0.98267  0.51612  0.20920  1.0000
  H   H20       1.0  0.97467  0.48964  0.17763  1.0000
  N   N5        1.0  0.11131  0.56276  0.36260  1.0000
  C   C30       1.0  0.27103  0.63225  0.36713  1.0000
  C   C31       1.0  0.24399  0.64909  0.36529  1.0000
  C   C32       1.0  0.20026  0.62326  0.37047  1.0000
  C   C33       1.0  0.18165  0.57936  0.37787  1.0000
  C   C34       1.0  0.20854  0.56246  0.37911  1.0000
  C   C35       1.0  0.25215  0.58826  0.37355  1.0000
  C   C36       1.0  0.39284  0.60329  0.36525  1.0000
  C   C37       1.0  0.41867  0.58539  0.37042  1.0000
  C   C38       1.0  0.43124  0.86028  0.37786  1.0000
  C   C39       1.0  0.38745  0.83338  0.37917  1.0000
  C   C40       1.0  0.36964  0.78977  0.37363  1.0000
  H   H21       1.0  0.19660  0.53088  0.38461  1.0000
  H   H22       1.0  0.27000  0.57425  0.37557  1.0000
  H   H23       1.0  0.36127  0.58361  0.36086  1.0000
  H   H24       1.0  0.40493  0.55352  0.37015  1.0000
  H   H25       1.0  0.36781  0.84532  0.38471  1.0000
  H   H26       1.0  0.33779  0.77192  0.37571  1.0000
  N   N6        1.0  0.34124  0.64186  0.36479  1.0000
  C   C41       1.0  0.31550  0.65830  0.36458  1.0000
  N   N7        1.0  0.33415  0.70069  0.36481  1.0000
  C   C42       1.0  0.44760  0.90326  0.38667  1.0000
  C   C43       1.0  0.13867  0.55275  0.38679  1.0000
  H   H27       1.0  0.12858  0.52403  0.41070  1.0000
  H   H28       1.0  0.42896  0.91336  0.41054  1.0000
  C   C44       1.0  0.77928  0.40130  0.36665  1.0000
  C   C45       1.0  0.80632  0.38445  0.36851  1.0000
  C   C46       1.0  0.85005  0.41028  0.36334  1.0000
  C   C47       1.0  0.86866  0.45418  0.35595  1.0000
  C   C48       1.0  0.84177  0.47108  0.35468  1.0000
  C   C49       1.0  0.79816  0.44528  0.36020  1.0000
  C   C50       1.0  0.65747  0.43026  0.36851  1.0000
  C   C51       1.0  0.63164  0.44816  0.36336  1.0000
  C   C52       1.0  0.61906  0.17327  0.35597  1.0000
  C   C53       1.0  0.66286  0.20016  0.35465  1.0000
  C   C54       1.0  0.68066  0.24377  0.36014  1.0000
  H   H29       1.0  0.85371  0.50266  0.34920  1.0000
  H   H30       1.0  0.78031  0.45929  0.35820  1.0000
  H   H31       1.0  0.68904  0.44994  0.37274  1.0000
  H   H32       1.0  0.64538  0.48002  0.36344  1.0000
  H   H33       1.0  0.68249  0.18822  0.34910  1.0000
  H   H34       1.0  0.71252  0.26162  0.35808  1.0000
  N   N8        1.0  0.70907  0.39169  0.36902  1.0000
  C   C55       1.0  0.73481  0.37524  0.36920  1.0000
  N   N9        1.0  0.71615  0.33286  0.36898  1.0000
  C   C56       1.0  0.60270  0.13029  0.34718  1.0000
  C   C57       1.0  0.91164  0.48079  0.34710  1.0000
  H   H35       1.0  0.92174  0.50952  0.32320  1.0000
  H   H36       1.0  0.62134  0.12018  0.32334  1.0000
  C   C58       1.0  0.54805  0.51803  0.44507  1.0000
  C   C59       1.0  0.52448  0.53847  0.44617  1.0000
  C   C60       1.0  0.54846  0.49551  0.36699  1.0000
  O   O4        1.0  0.52456  0.55866  0.52459  1.0000
  H   H37       1.0  0.56429  0.51885  0.50291  1.0000
  H   H38       1.0  0.49810  0.54019  0.55621  1.0000
  N   N10       1.0  0.57114  0.47660  0.37124  1.0000
  C   C61       1.0  0.52390  0.03841  0.44508  1.0000
  C   C62       1.0  0.50345  0.99440  0.44617  1.0000
  C   C63       1.0  0.54640  0.06134  0.36699  1.0000
  O   O5        1.0  0.48326  0.97429  0.52458  1.0000
  H   H39       1.0  0.52308  0.05382  0.50291  1.0000
  H   H40       1.0  0.50173  0.96629  0.55619  1.0000
  N   N11       1.0  0.56531  0.10293  0.37123  1.0000
  C   C64       1.0  0.00351  0.49387  0.44506  1.0000
  C   C65       1.0  0.04752  0.51745  0.44617  1.0000
  C   C66       1.0  0.98058  0.49343  0.36696  1.0000
  O   O6        1.0  0.06763  0.51741  0.52463  1.0000
  H   H41       1.0  0.98809  0.47767  0.50293  1.0000
  H   H42       1.0  0.07562  0.54389  0.55617  1.0000
  N   N12       1.0  0.93899  0.47076  0.37121  1.0000
