data_image0
_chemical_formula_structural       C15H12C4HC6H3C4HC6H3C2NC2NC5NC3NC17H14CNCHNHCNCHNH
_chemical_formula_sum              "C68 H38 N8"
_cell_length_a       25.6291
_cell_length_b       25.6291
_cell_length_c       14.9952
_cell_angle_alpha    90
_cell_angle_beta     90
_cell_angle_gamma    90

_space_group_name_H-M_alt    "P 1"
_space_group_IT_number       1

loop_
  _space_group_symop_operation_xyz
  'x, y, z'

loop_
  _atom_site_type_symbol
  _atom_site_label
  _atom_site_symmetry_multiplicity
  _atom_site_fract_x
  _atom_site_fract_y
  _atom_site_fract_z
  _atom_site_occupancy
  C   C1        1.0  0.88898  0.95093  0.33878  1.0000
  C   C2        1.0  0.04974  0.88771  0.33886  1.0000
  C   C3        1.0  0.99848  0.13665  0.33804  1.0000
  C   C4        1.0  0.94917  0.11121  0.33838  1.0000
  C   C5        1.0  0.86262  0.09767  0.33662  1.0000
  C   C6        1.0  0.90052  0.13577  0.33866  1.0000
  C   C7        1.0  0.72434  0.97975  0.25987  1.0000
  C   C8        1.0  0.77919  0.98087  0.26108  1.0000
  C   C9        1.0  0.99876  0.19251  0.33615  1.0000
  C   C10       1.0  0.97992  0.27468  0.25928  1.0000
  C   C11       1.0  0.98075  0.21983  0.26044  1.0000
  C   C12       1.0  0.21966  0.01815  0.26122  1.0000
  C   C13       1.0  0.27451  0.01950  0.26004  1.0000
  C   C14       1.0  0.01828  0.77917  0.26067  1.0000
  C   C15       1.0  0.01929  0.72432  0.25946  1.0000
  H   H1        1.0  0.03525  0.70687  0.20463  1.0000
  H   H2        1.0  0.03216  0.79917  0.20653  1.0000
  H   H3        1.0  0.89517  0.82509  0.33545  1.0000
  H   H4        1.0  0.19958  0.03191  0.20708  1.0000
  H   H5        1.0  0.29188  0.03556  0.20522  1.0000
  H   H6        1.0  0.10376  0.17380  0.33529  1.0000
  H   H7        1.0  0.82348  0.10510  0.33495  1.0000
  H   H8        1.0  0.89290  0.17488  0.33900  1.0000
  H   H9        1.0  0.96684  0.19989  0.20625  1.0000
  H   H10       1.0  0.96404  0.29220  0.20445  1.0000
  H   H11       1.0  0.79923  0.96717  0.20683  1.0000
  H   H12       1.0  0.70690  0.96383  0.20501  1.0000
  C   C16       1.0  0.99976  0.63790  0.32917  1.0000
  C   C17       1.0  0.99992  0.52702  0.32687  1.0000
  C   C18       1.0  0.99853  0.55473  0.24504  1.0000
  C   C19       1.0  0.99723  0.60978  0.24764  1.0000
  H   H13       1.0  0.99382  0.62933  0.18851  1.0000
  C   C20       1.0  0.99983  0.47191  0.32685  1.0000
  C   C21       1.0  0.99979  0.36102  0.32905  1.0000
  C   C22       1.0  0.00236  0.38916  0.24754  1.0000
  C   C23       1.0  0.00115  0.44421  0.24499  1.0000
  C   C24       1.0  0.00097  0.47208  0.16378  1.0000
  C   C25       1.0  0.99866  0.52688  0.16381  1.0000
  H   H14       1.0  0.00150  0.45273  0.10407  1.0000
  H   H15       1.0  0.99808  0.54625  0.10412  1.0000
  H   H16       1.0  0.00565  0.36962  0.18839  1.0000
  C   C26       1.0  0.36105  0.00009  0.32954  1.0000
  C   C27       1.0  0.47193  0.99999  0.32719  1.0000
  C   C28       1.0  0.44420  0.99888  0.24535  1.0000
  C   C29       1.0  0.38915  0.99773  0.24797  1.0000
  H   H17       1.0  0.36958  0.99450  0.18883  1.0000
  C   C30       1.0  0.52703  0.99971  0.32718  1.0000
  C   C31       1.0  0.63790  0.99941  0.32947  1.0000
  C   C32       1.0  0.60981  0.00218  0.24795  1.0000
  C   C33       1.0  0.55475  0.00113  0.24534  1.0000
  C   C34       1.0  0.52687  0.00125  0.16413  1.0000
  C   C35       1.0  0.47207  0.99912  0.16413  1.0000
  H   H18       1.0  0.54623  0.00189  0.10443  1.0000
  H   H19       1.0  0.45270  0.99878  0.10444  1.0000
  H   H20       1.0  0.62939  0.00558  0.18885  1.0000
  C   C36       1.0  0.90282  0.86419  0.33718  1.0000
  C   C37       1.0  0.86471  0.90210  0.33920  1.0000
  N   N1        1.0  0.94092  0.94059  0.33918  1.0000
  C   C38       1.0  0.95152  0.88870  0.33857  1.0000
  C   C39       1.0  0.00044  0.86226  0.33842  1.0000
  N   N2        1.0  0.05973  0.93953  0.33917  1.0000
  C   C40       1.0  0.11151  0.94977  0.33868  1.0000
  C   C41       1.0  0.13630  0.90124  0.33722  1.0000
  C   C42       1.0  0.09840  0.86315  0.33927  1.0000
  C   C43       1.0  0.13667  0.99922  0.33864  1.0000
  C   C44       1.0  0.10993  0.04797  0.33888  1.0000
  N   N3        1.0  0.05799  0.05831  0.33909  1.0000
  C   C45       1.0  0.04739  0.11020  0.33835  1.0000
  C   C46       1.0  0.09610  0.13471  0.33700  1.0000
  C   C47       1.0  0.13420  0.09681  0.33929  1.0000
  N   N4        1.0  0.93919  0.05938  0.33882  1.0000
  C   C48       1.0  0.88742  0.04914  0.33832  1.0000
  C   C49       1.0  0.86225  0.99969  0.33838  1.0000
  C   C50       1.0  0.80640  0.99913  0.33674  1.0000
  C   C51       1.0  0.77709  0.01718  0.41026  1.0000
  C   C52       1.0  0.72223  0.01817  0.40706  1.0000
  C   C53       1.0  0.69418  0.99909  0.33215  1.0000
  C   C54       1.0  0.01697  0.22170  0.40969  1.0000
  C   C55       1.0  0.01832  0.27656  0.40648  1.0000
  C   C56       1.0  0.99938  0.30473  0.33161  1.0000
  C   C57       1.0  0.19253  0.99980  0.33690  1.0000
  C   C58       1.0  0.30475  0.00020  0.33225  1.0000
  C   C59       1.0  0.27677  0.98094  0.40708  1.0000
  C   C60       1.0  0.22192  0.98176  0.41033  1.0000
  C   C61       1.0  0.00018  0.80640  0.33641  1.0000
  C   C62       1.0  0.98206  0.77713  0.40991  1.0000
  C   C63       1.0  0.98092  0.72227  0.40668  1.0000
  C   C64       1.0  0.99996  0.69419  0.33178  1.0000
  H   H21       1.0  0.96513  0.70324  0.46011  1.0000
  H   H22       1.0  0.96832  0.79568  0.46566  1.0000
  H   H23       1.0  0.82564  0.89425  0.33988  1.0000
  H   H24       1.0  0.96733  0.96714  0.33949  1.0000
  H   H25       1.0  0.03158  0.03176  0.33928  1.0000
  H   H26       1.0  0.10602  0.82403  0.33974  1.0000
  H   H27       1.0  0.17544  0.89380  0.33557  1.0000
  H   H28       1.0  0.20346  0.96779  0.46599  1.0000
  H   H29       1.0  0.29588  0.96513  0.46042  1.0000
  H   H30       1.0  0.17327  0.10466  0.34014  1.0000
  H   H31       1.0  0.03065  0.20310  0.46541  1.0000
  H   H32       1.0  0.03416  0.29552  0.45993  1.0000
  H   H33       1.0  0.70317  0.03402  0.46041  1.0000
  H   H34       1.0  0.79560  0.03112  0.46588  1.0000
  C   C65       1.0  0.00248  0.60720  0.40780  1.0000
  N   N5        1.0  0.00201  0.55434  0.40428  1.0000
  C   C66       1.0  0.99722  0.39171  0.40771  1.0000
  H   H35       1.0  0.00589  0.62383  0.46933  1.0000
  N   N6        1.0  0.99776  0.44456  0.40423  1.0000
  H   H36       1.0  0.99377  0.37507  0.46923  1.0000
  C   C67       1.0  0.39178  0.00258  0.40816  1.0000
  N   N7        1.0  0.44462  0.00198  0.40462  1.0000
  C   C68       1.0  0.60719  0.99668  0.40809  1.0000
  H   H37       1.0  0.37517  0.00589  0.46974  1.0000
  N   N8        1.0  0.55435  0.99737  0.40457  1.0000
  H   H38       1.0  0.62382  0.99308  0.46960  1.0000
