data_image0
_chemical_formula_structural       C7H2C2O2NC3O2HNHNC3O2HNHC5HC4H3C2O2CNC2O2HNHCNC2O2HNHC7H2C2O2NC3O2HNHNC3O2HNHC5HC4H3C2O2CNC2O2HNHCNC2O2HNHC7H2C2O2NC3O2HNHNC3O2HNHC5HC4H3C2O2CNC2O2HNHCNC2O2HNHC7H2C2O2NC3O2HNHNC3O2HNHC5HC4H3C2O2CNC2O2HNHCNC2O2HNH
_chemical_formula_sum              "C128 H56 O48 N32"
_cell_length_a       30.607
_cell_length_b       30.607
_cell_length_c       15.0578
_cell_angle_alpha    90
_cell_angle_beta     90
_cell_angle_gamma    90

_space_group_name_H-M_alt    "P 1"
_space_group_IT_number       1

loop_
  _space_group_symop_operation_xyz
  'x, y, z'

loop_
  _atom_site_type_symbol
  _atom_site_label
  _atom_site_symmetry_multiplicity
  _atom_site_fract_x
  _atom_site_fract_y
  _atom_site_fract_z
  _atom_site_occupancy
  C   C1        1.0  0.05756  0.99950  0.37111  1.0000
  C   C2        1.0  0.09223  0.02966  0.38483  1.0000
  C   C3        1.0  0.08530  0.07376  0.36238  1.0000
  C   C4        1.0  0.48190  0.48324  0.32216  1.0000
  C   C5        1.0  0.40628  0.46751  0.27374  1.0000
  C   C6        1.0  0.44099  0.49766  0.28717  1.0000
  C   C7        1.0  0.43709  0.04159  0.25994  1.0000
  H   H1        1.0  0.08902  0.44456  0.42958  1.0000
  H   H2        1.0  0.40948  0.05257  0.22873  1.0000
  C   C8        1.0  0.13534  0.01833  0.41026  1.0000
  C   C9        1.0  0.36319  0.47885  0.24825  1.0000
  O   O1        1.0  0.15590  0.04684  0.46537  1.0000
  O   O2        1.0  0.34254  0.45068  0.19264  1.0000
  N   N1        1.0  0.03138  0.22724  0.28865  1.0000
  C   C10       1.0  0.03013  0.27119  0.27804  1.0000
  C   C11       1.0  0.99603  0.29436  0.32092  1.0000
  C   C12       1.0  0.06200  0.29060  0.22585  1.0000
  O   O3        1.0  0.07008  0.27410  0.15378  1.0000
  O   O4        1.0  0.09303  0.31036  0.25979  1.0000
  H   H3        1.0  0.09329  0.32116  0.31441  1.0000
  N   N2        1.0  0.99083  0.33850  0.31474  1.0000
  H   H4        1.0  0.51260  0.35440  0.28044  1.0000
  N   N3        1.0  0.26945  0.97666  0.26588  1.0000
  C   C13       1.0  0.22575  0.97048  0.27476  1.0000
  C   C14       1.0  0.20367  0.99394  0.34252  1.0000
  C   C15       1.0  0.20525  0.94278  0.21511  1.0000
  O   O5        1.0  0.22119  0.90659  0.20385  1.0000
  O   O6        1.0  0.18613  0.95757  0.14928  1.0000
  H   H5        1.0  0.17576  0.98452  0.14467  1.0000
  N   N4        1.0  0.15933  0.99255  0.35446  1.0000
  H   H6        1.0  0.14284  0.47485  0.31241  1.0000
  C   C16       1.0  0.01667  0.01390  0.33596  1.0000
  C   C17       1.0  0.04543  0.08934  0.32796  1.0000
  C   C18       1.0  0.01083  0.05892  0.31386  1.0000
  C   C19       1.0  0.06145  0.45555  0.39828  1.0000
  C   C20       1.0  0.47141  0.07116  0.27156  1.0000
  H   H7        1.0  0.11044  0.09547  0.37177  1.0000
  C   C21       1.0  0.48776  0.43821  0.34409  1.0000
  C   C22       1.0  0.45315  0.40779  0.32995  1.0000
  C   C23       1.0  0.41323  0.42337  0.29577  1.0000
  C   C24       1.0  0.02720  0.42593  0.38626  1.0000
  H   H8        1.0  0.38809  0.40167  0.28633  1.0000
  H   H9        1.0  0.03158  0.39516  0.41103  1.0000
  H   H10       1.0  0.46705  0.10190  0.24665  1.0000
  C   C25       1.0  0.04261  0.13497  0.31303  1.0000
  C   C26       1.0  0.45607  0.36217  0.34470  1.0000
  O   O7        1.0  0.07962  0.15616  0.28789  1.0000
  O   O8        1.0  0.41914  0.34089  0.37004  1.0000
  C   C27       1.0  0.00298  0.20292  0.33750  1.0000
  N   N5        1.0  0.96772  0.27004  0.36999  1.0000
  C   C28       1.0  0.96886  0.22607  0.38037  1.0000
  C   C29       1.0  0.93803  0.20684  0.43544  1.0000
  O   O9        1.0  0.40003  0.21831  0.42635  1.0000
  O   O10       1.0  0.94765  0.19483  0.51132  1.0000
  H   H11       1.0  0.97450  0.18903  0.52992  1.0000
  N   N6        1.0  0.50787  0.15871  0.34290  1.0000
  H   H12       1.0  0.48573  0.14279  0.37614  1.0000
  C   C30       1.0  0.29495  0.00344  0.31612  1.0000
  N   N7        1.0  0.22916  0.02082  0.39257  1.0000
  C   C31       1.0  0.27291  0.02690  0.38399  1.0000
  C   C32       1.0  0.29322  0.05593  0.44149  1.0000
  O   O11       1.0  0.28356  0.55416  0.52017  1.0000
  O   O12       1.0  0.30599  0.09204  0.41531  1.0000
  H   H13       1.0  0.31092  0.09904  0.35909  1.0000
  N   N8        1.0  0.33932  0.50451  0.30460  1.0000
  H   H14       1.0  0.35588  0.52161  0.34759  1.0000
  C   C33       1.0  0.05756  0.49950  0.37111  1.0000
  C   C34       1.0  0.09223  0.52966  0.38483  1.0000
  C   C35       1.0  0.08530  0.57376  0.36238  1.0000
  C   C36       1.0  0.48190  0.98324  0.32216  1.0000
  C   C37       1.0  0.40628  0.96751  0.27374  1.0000
  C   C38       1.0  0.44099  0.99766  0.28717  1.0000
  C   C39       1.0  0.43709  0.54159  0.25994  1.0000
  H   H15       1.0  0.08902  0.94457  0.42958  1.0000
  H   H16       1.0  0.40948  0.55257  0.22873  1.0000
  C   C40       1.0  0.13534  0.51833  0.41026  1.0000
  C   C41       1.0  0.36319  0.97884  0.24825  1.0000
  O   O13       1.0  0.15590  0.54684  0.46537  1.0000
  O   O14       1.0  0.34254  0.95068  0.19264  1.0000
  N   N9        1.0  0.03138  0.72724  0.28865  1.0000
  C   C42       1.0  0.03013  0.77119  0.27804  1.0000
  C   C43       1.0  0.99603  0.79435  0.32092  1.0000
  C   C44       1.0  0.06200  0.79059  0.22585  1.0000
  O   O15       1.0  0.07008  0.77410  0.15378  1.0000
  O   O16       1.0  0.09303  0.81036  0.25979  1.0000
  H   H17       1.0  0.09329  0.82116  0.31441  1.0000
  N   N10       1.0  0.99083  0.83850  0.31474  1.0000
  H   H18       1.0  0.51260  0.85440  0.28044  1.0000
  N   N11       1.0  0.26945  0.47666  0.26588  1.0000
  C   C45       1.0  0.22575  0.47048  0.27476  1.0000
  C   C46       1.0  0.20367  0.49394  0.34252  1.0000
  C   C47       1.0  0.20525  0.44278  0.21511  1.0000
  O   O17       1.0  0.22119  0.40659  0.20385  1.0000
  O   O18       1.0  0.18613  0.45757  0.14928  1.0000
  H   H19       1.0  0.17576  0.48452  0.14467  1.0000
  N   N12       1.0  0.15933  0.49255  0.35446  1.0000
  H   H20       1.0  0.14284  0.97485  0.31241  1.0000
  C   C48       1.0  0.01667  0.51390  0.33596  1.0000
  C   C49       1.0  0.04543  0.58934  0.32796  1.0000
  C   C50       1.0  0.01083  0.55892  0.31386  1.0000
  C   C51       1.0  0.06145  0.95555  0.39828  1.0000
  C   C52       1.0  0.47141  0.57116  0.27156  1.0000
  H   H21       1.0  0.11044  0.59547  0.37177  1.0000
  C   C53       1.0  0.48776  0.93821  0.34409  1.0000
  C   C54       1.0  0.45315  0.90779  0.32995  1.0000
  C   C55       1.0  0.41323  0.92337  0.29577  1.0000
  C   C56       1.0  0.02720  0.92593  0.38626  1.0000
  H   H22       1.0  0.38809  0.90167  0.28633  1.0000
  H   H23       1.0  0.03158  0.89517  0.41103  1.0000
  H   H24       1.0  0.46705  0.60191  0.24665  1.0000
  C   C57       1.0  0.04261  0.63497  0.31303  1.0000
  C   C58       1.0  0.45607  0.86217  0.34470  1.0000
  O   O19       1.0  0.07962  0.65616  0.28789  1.0000
  O   O20       1.0  0.41914  0.84089  0.37004  1.0000
  C   C59       1.0  0.00298  0.70292  0.33750  1.0000
  N   N13       1.0  0.96772  0.77004  0.36999  1.0000
  C   C60       1.0  0.96886  0.72607  0.38037  1.0000
  C   C61       1.0  0.93803  0.70684  0.43544  1.0000
  O   O21       1.0  0.40003  0.71831  0.42635  1.0000
  O   O22       1.0  0.94765  0.69483  0.51132  1.0000
  H   H25       1.0  0.97450  0.68903  0.52992  1.0000
  N   N14       1.0  0.50787  0.65871  0.34290  1.0000
  H   H26       1.0  0.48573  0.64279  0.37614  1.0000
  C   C62       1.0  0.29495  0.50344  0.31612  1.0000
  N   N15       1.0  0.22916  0.52082  0.39257  1.0000
  C   C63       1.0  0.27291  0.52690  0.38399  1.0000
  C   C64       1.0  0.29322  0.55593  0.44149  1.0000
  O   O23       1.0  0.28356  0.05416  0.52017  1.0000
  O   O24       1.0  0.30599  0.59204  0.41531  1.0000
  H   H27       1.0  0.31092  0.59904  0.35909  1.0000
  N   N16       1.0  0.33932  0.00451  0.30460  1.0000
  H   H28       1.0  0.35588  0.02161  0.34759  1.0000
  C   C65       1.0  0.55756  0.99950  0.37111  1.0000
  C   C66       1.0  0.59223  0.02966  0.38483  1.0000
  C   C67       1.0  0.58530  0.07376  0.36238  1.0000
  C   C68       1.0  0.98190  0.48324  0.32216  1.0000
  C   C69       1.0  0.90628  0.46751  0.27374  1.0000
  C   C70       1.0  0.94099  0.49766  0.28717  1.0000
  C   C71       1.0  0.93709  0.04159  0.25994  1.0000
  H   H29       1.0  0.58903  0.44456  0.42958  1.0000
  H   H30       1.0  0.90948  0.05257  0.22873  1.0000
  C   C72       1.0  0.63534  0.01833  0.41026  1.0000
  C   C73       1.0  0.86320  0.47885  0.24825  1.0000
  O   O25       1.0  0.65590  0.04684  0.46537  1.0000
  O   O26       1.0  0.84254  0.45068  0.19264  1.0000
  N   N17       1.0  0.53138  0.22724  0.28865  1.0000
  C   C74       1.0  0.53013  0.27119  0.27804  1.0000
  C   C75       1.0  0.49603  0.29436  0.32092  1.0000
  C   C76       1.0  0.56200  0.29060  0.22585  1.0000
  O   O27       1.0  0.57008  0.27410  0.15378  1.0000
  O   O28       1.0  0.59303  0.31036  0.25979  1.0000
  H   H31       1.0  0.59329  0.32116  0.31441  1.0000
  N   N18       1.0  0.49083  0.33850  0.31474  1.0000
  H   H32       1.0  0.01261  0.35440  0.28044  1.0000
  N   N19       1.0  0.76945  0.97666  0.26588  1.0000
  C   C77       1.0  0.72575  0.97048  0.27476  1.0000
  C   C78       1.0  0.70367  0.99394  0.34252  1.0000
  C   C79       1.0  0.70525  0.94278  0.21511  1.0000
  O   O29       1.0  0.72119  0.90659  0.20385  1.0000
  O   O30       1.0  0.68612  0.95757  0.14928  1.0000
  H   H33       1.0  0.67576  0.98452  0.14467  1.0000
  N   N20       1.0  0.65933  0.99255  0.35446  1.0000
  H   H34       1.0  0.64284  0.47485  0.31241  1.0000
  C   C80       1.0  0.51667  0.01390  0.33596  1.0000
  C   C81       1.0  0.54543  0.08934  0.32796  1.0000
  C   C82       1.0  0.51083  0.05892  0.31386  1.0000
  C   C83       1.0  0.56145  0.45555  0.39828  1.0000
  C   C84       1.0  0.97141  0.07116  0.27156  1.0000
  H   H35       1.0  0.61044  0.09547  0.37177  1.0000
  C   C85       1.0  0.98776  0.43821  0.34409  1.0000
  C   C86       1.0  0.95315  0.40779  0.32995  1.0000
  C   C87       1.0  0.91323  0.42337  0.29577  1.0000
  C   C88       1.0  0.52720  0.42593  0.38626  1.0000
  H   H36       1.0  0.88809  0.40167  0.28633  1.0000
  H   H37       1.0  0.53158  0.39516  0.41103  1.0000
  H   H38       1.0  0.96705  0.10190  0.24665  1.0000
  C   C89       1.0  0.54261  0.13497  0.31303  1.0000
  C   C90       1.0  0.95607  0.36217  0.34470  1.0000
  O   O31       1.0  0.57962  0.15616  0.28789  1.0000
  O   O32       1.0  0.91914  0.34089  0.37004  1.0000
  C   C91       1.0  0.50298  0.20292  0.33750  1.0000
  N   N21       1.0  0.46772  0.27004  0.36999  1.0000
  C   C92       1.0  0.46886  0.22607  0.38037  1.0000
  C   C93       1.0  0.43804  0.20684  0.43544  1.0000
  O   O33       1.0  0.90003  0.21831  0.42635  1.0000
  O   O34       1.0  0.44765  0.19483  0.51132  1.0000
  H   H39       1.0  0.47450  0.18903  0.52992  1.0000
  N   N22       1.0  0.00787  0.15871  0.34290  1.0000
  H   H40       1.0  0.98573  0.14279  0.37614  1.0000
  C   C94       1.0  0.79495  0.00344  0.31612  1.0000
  N   N23       1.0  0.72916  0.02082  0.39257  1.0000
  C   C95       1.0  0.77290  0.02690  0.38399  1.0000
  C   C96       1.0  0.79322  0.05593  0.44149  1.0000
  O   O35       1.0  0.78356  0.55416  0.52017  1.0000
  O   O36       1.0  0.80599  0.09204  0.41531  1.0000
  H   H41       1.0  0.81092  0.09904  0.35909  1.0000
  N   N24       1.0  0.83932  0.50451  0.30460  1.0000
  H   H42       1.0  0.85588  0.52161  0.34759  1.0000
  C   C97       1.0  0.55756  0.49950  0.37111  1.0000
  C   C98       1.0  0.59223  0.52966  0.38483  1.0000
  C   C99       1.0  0.58530  0.57376  0.36238  1.0000
  C   C100      1.0  0.98190  0.98324  0.32216  1.0000
  C   C101      1.0  0.90628  0.96751  0.27374  1.0000
  C   C102      1.0  0.94099  0.99766  0.28717  1.0000
  C   C103      1.0  0.93709  0.54159  0.25994  1.0000
  H   H43       1.0  0.58903  0.94457  0.42958  1.0000
  H   H44       1.0  0.90948  0.55257  0.22873  1.0000
  C   C104      1.0  0.63534  0.51833  0.41026  1.0000
  C   C105      1.0  0.86320  0.97884  0.24825  1.0000
  O   O37       1.0  0.65590  0.54684  0.46537  1.0000
  O   O38       1.0  0.84254  0.95068  0.19264  1.0000
  N   N25       1.0  0.53138  0.72724  0.28865  1.0000
  C   C106      1.0  0.53013  0.77119  0.27804  1.0000
  C   C107      1.0  0.49603  0.79435  0.32092  1.0000
  C   C108      1.0  0.56200  0.79059  0.22585  1.0000
  O   O39       1.0  0.57008  0.77410  0.15378  1.0000
  O   O40       1.0  0.59303  0.81036  0.25979  1.0000
  H   H45       1.0  0.59329  0.82116  0.31441  1.0000
  N   N26       1.0  0.49083  0.83850  0.31474  1.0000
  H   H46       1.0  0.01261  0.85440  0.28044  1.0000
  N   N27       1.0  0.76945  0.47666  0.26588  1.0000
  C   C109      1.0  0.72575  0.47048  0.27476  1.0000
  C   C110      1.0  0.70367  0.49394  0.34252  1.0000
  C   C111      1.0  0.70525  0.44278  0.21511  1.0000
  O   O41       1.0  0.72119  0.40659  0.20385  1.0000
  O   O42       1.0  0.68612  0.45757  0.14928  1.0000
  H   H47       1.0  0.67576  0.48452  0.14467  1.0000
  N   N28       1.0  0.65933  0.49255  0.35446  1.0000
  H   H48       1.0  0.64284  0.97485  0.31241  1.0000
  C   C112      1.0  0.51667  0.51390  0.33596  1.0000
  C   C113      1.0  0.54543  0.58934  0.32796  1.0000
  C   C114      1.0  0.51083  0.55892  0.31386  1.0000
  C   C115      1.0  0.56145  0.95555  0.39828  1.0000
  C   C116      1.0  0.97141  0.57116  0.27156  1.0000
  H   H49       1.0  0.61044  0.59547  0.37177  1.0000
  C   C117      1.0  0.98776  0.93821  0.34409  1.0000
  C   C118      1.0  0.95315  0.90779  0.32995  1.0000
  C   C119      1.0  0.91323  0.92337  0.29577  1.0000
  C   C120      1.0  0.52720  0.92593  0.38626  1.0000
  H   H50       1.0  0.88809  0.90167  0.28633  1.0000
  H   H51       1.0  0.53158  0.89517  0.41103  1.0000
  H   H52       1.0  0.96705  0.60191  0.24665  1.0000
  C   C121      1.0  0.54261  0.63497  0.31303  1.0000
  C   C122      1.0  0.95607  0.86217  0.34470  1.0000
  O   O43       1.0  0.57962  0.65616  0.28789  1.0000
  O   O44       1.0  0.91914  0.84089  0.37004  1.0000
  C   C123      1.0  0.50298  0.70292  0.33750  1.0000
  N   N29       1.0  0.46772  0.77004  0.36999  1.0000
  C   C124      1.0  0.46886  0.72607  0.38037  1.0000
  C   C125      1.0  0.43804  0.70684  0.43544  1.0000
  O   O45       1.0  0.90003  0.71831  0.42635  1.0000
  O   O46       1.0  0.44765  0.69483  0.51132  1.0000
  H   H53       1.0  0.47450  0.68903  0.52992  1.0000
  N   N30       1.0  0.00787  0.65871  0.34290  1.0000
  H   H54       1.0  0.98573  0.64279  0.37614  1.0000
  C   C126      1.0  0.79495  0.50344  0.31612  1.0000
  N   N31       1.0  0.72916  0.52082  0.39257  1.0000
  C   C127      1.0  0.77290  0.52690  0.38399  1.0000
  C   C128      1.0  0.79322  0.55593  0.44149  1.0000
  O   O47       1.0  0.78356  0.05416  0.52017  1.0000
  O   O48       1.0  0.80599  0.59204  0.41531  1.0000
  H   H55       1.0  0.81092  0.59904  0.35909  1.0000
  N   N32       1.0  0.83932  0.00451  0.30460  1.0000
  H   H56       1.0  0.85588  0.02161  0.34759  1.0000
