data_image0
_chemical_formula_structural       C8HC7HCH4C4O3C3HNO2NHC3HNO2NHC3HNO2NHC3HNO2NHC3HNO2NHC3HNO2NHOC8HC7HCH4C4O4C8HC7HCH4C4O4C3HNO2NHC3HNO2NHC3HNO2NHC3HNO2NHC3HNO2NHC3HNO2NH
_chemical_formula_sum              "C96 H42 O36 N24"
_cell_length_a       30.0509
_cell_length_b       30.0509
_cell_length_c       15.1199
_cell_angle_alpha    89.9992
_cell_angle_beta     90.0008
_cell_angle_gamma    120

_space_group_name_H-M_alt    "P 1"
_space_group_IT_number       1

loop_
  _space_group_symop_operation_xyz
  'x, y, z'

loop_
  _atom_site_type_symbol
  _atom_site_label
  _atom_site_symmetry_multiplicity
  _atom_site_fract_x
  _atom_site_fract_y
  _atom_site_fract_z
  _atom_site_occupancy
  C   C1        1.0  0.02402  0.53087  0.32280  1.0000
  C   C2        1.0  0.97741  0.48237  0.32281  1.0000
  C   C3        1.0  0.97884  0.43568  0.32660  1.0000
  C   C4        1.0  0.02703  0.43856  0.32492  1.0000
  C   C5        1.0  0.07383  0.48541  0.32158  1.0000
  C   C6        1.0  0.07219  0.53204  0.32318  1.0000
  C   C7        1.0  0.93063  0.48275  0.32428  1.0000
  C   C8        1.0  0.11733  0.58060  0.32008  1.0000
  H   H1        1.0  0.02805  0.40496  0.32608  1.0000
  C   C9        1.0  0.02245  0.57796  0.32272  1.0000
  C   C10       1.0  0.97428  0.57679  0.32286  1.0000
  C   C11       1.0  0.97264  0.62340  0.32109  1.0000
  C   C12       1.0  0.01942  0.67026  0.32449  1.0000
  C   C13       1.0  0.06761  0.67315  0.32644  1.0000
  C   C14       1.0  0.06905  0.62646  0.32281  1.0000
  C   C15       1.0  0.92914  0.52824  0.31969  1.0000
  H   H2        1.0  0.01839  0.70386  0.32547  1.0000
  C   C16       1.0  0.11583  0.62608  0.32450  1.0000
  H   H3        1.0  0.89359  0.52421  0.31478  1.0000
  H   H4        1.0  0.89598  0.44999  0.32855  1.0000
  H   H5        1.0  0.15047  0.65885  0.32883  1.0000
  H   H6        1.0  0.15288  0.58464  0.31523  1.0000
  C   C17       1.0  0.11928  0.48246  0.31353  1.0000
  C   C18       1.0  0.93496  0.38631  0.33677  1.0000
  C   C19       1.0  0.92718  0.62628  0.31263  1.0000
  C   C20       1.0  0.11145  0.72255  0.33653  1.0000
  O   O1        1.0  0.11642  0.44116  0.27117  1.0000
  O   O2        1.0  0.93979  0.34975  0.38163  1.0000
  O   O3        1.0  0.10660  0.75903  0.38161  1.0000
  C   C21       1.0  0.29743  0.50703  0.30679  1.0000
  C   C22       1.0  0.27273  0.51855  0.23879  1.0000
  C   C23       1.0  0.22768  0.52084  0.25530  1.0000
  H   H7        1.0  0.28568  0.52219  0.17511  1.0000
  N   N1        1.0  0.20378  0.53299  0.18591  1.0000
  O   O4        1.0  0.18983  0.50103  0.12370  1.0000
  O   O5        1.0  0.23305  0.57707  0.15513  1.0000
  N   N2        1.0  0.33841  0.50107  0.28718  1.0000
  H   H8        1.0  0.35591  0.51465  0.23080  1.0000
  C   C24       1.0  0.57040  0.87575  0.30658  1.0000
  C   C25       1.0  0.55898  0.83958  0.23853  1.0000
  C   C26       1.0  0.55674  0.79226  0.25502  1.0000
  H   H9        1.0  0.55540  0.84892  0.17485  1.0000
  N   N3        1.0  0.54470  0.75626  0.18557  1.0000
  O   O6        1.0  0.57669  0.77436  0.12341  1.0000
  O   O7        1.0  0.50063  0.74140  0.15472  1.0000
  N   N4        1.0  0.57634  0.92268  0.28701  1.0000
  H   H10       1.0  0.56287  0.92667  0.23056  1.0000
  C   C27       1.0  0.20161  0.78014  0.30666  1.0000
  C   C28       1.0  0.23777  0.80489  0.23859  1.0000
  C   C29       1.0  0.28511  0.84994  0.25505  1.0000
  H   H11       1.0  0.22845  0.79189  0.17494  1.0000
  N   N5        1.0  0.32113  0.87384  0.18562  1.0000
  O   O8        1.0  0.30308  0.88779  0.12345  1.0000
  O   O9        1.0  0.33592  0.84457  0.15478  1.0000
  N   N6        1.0  0.15469  0.73911  0.28711  1.0000
  H   H12       1.0  0.15076  0.72162  0.23071  1.0000
  C   C30       1.0  0.74881  0.60148  0.30659  1.0000
  C   C31       1.0  0.77363  0.59021  0.23846  1.0000
  C   C32       1.0  0.81872  0.58799  0.25486  1.0000
  H   H13       1.0  0.76060  0.58650  0.17483  1.0000
  N   N7        1.0  0.84264  0.57593  0.18537  1.0000
  O   O10       1.0  0.85650  0.60791  0.12320  1.0000
  O   O11       1.0  0.81341  0.53185  0.15455  1.0000
  N   N8        1.0  0.70777  0.60736  0.28712  1.0000
  H   H14       1.0  0.69031  0.59390  0.23066  1.0000
  C   C33       1.0  0.47606  0.23279  0.30687  1.0000
  C   C34       1.0  0.48741  0.26893  0.23879  1.0000
  C   C35       1.0  0.48954  0.31621  0.25522  1.0000
  H   H15       1.0  0.49104  0.25961  0.17513  1.0000
  N   N9        1.0  0.50154  0.35219  0.18576  1.0000
  O   O12       1.0  0.46955  0.33405  0.12361  1.0000
  O   O13       1.0  0.54563  0.36710  0.15490  1.0000
  N   N10       1.0  0.47023  0.18590  0.28734  1.0000
  H   H16       1.0  0.48374  0.18194  0.23091  1.0000
  C   C36       1.0  0.84484  0.32863  0.30666  1.0000
  C   C37       1.0  0.80874  0.30383  0.23853  1.0000
  C   C38       1.0  0.76146  0.25869  0.25492  1.0000
  H   H17       1.0  0.81811  0.31678  0.17486  1.0000
  N   N11       1.0  0.72552  0.23472  0.18539  1.0000
  O   O14       1.0  0.74371  0.22090  0.12326  1.0000
  O   O15       1.0  0.71061  0.26388  0.15451  1.0000
  N   N12       1.0  0.89177  0.36966  0.28716  1.0000
  H   H18       1.0  0.89574  0.38713  0.23073  1.0000
  O   O16       1.0  0.93006  0.66761  0.27035  1.0000
  C   C39       1.0  0.54662  0.57851  0.32283  1.0000
  C   C40       1.0  0.59510  0.58036  0.32280  1.0000
  C   C41       1.0  0.64180  0.62847  0.32655  1.0000
  C   C42       1.0  0.63896  0.67380  0.32472  1.0000
  C   C43       1.0  0.59212  0.67376  0.32140  1.0000
  C   C44       1.0  0.54548  0.62552  0.32317  1.0000
  C   C45       1.0  0.59470  0.53319  0.32434  1.0000
  C   C46       1.0  0.49694  0.62213  0.32009  1.0000
  H   H19       1.0  0.67257  0.70840  0.32578  1.0000
  C   C47       1.0  0.49951  0.52985  0.32281  1.0000
  C   C48       1.0  0.50066  0.48284  0.32304  1.0000
  C   C49       1.0  0.45403  0.43459  0.32139  1.0000
  C   C50       1.0  0.40718  0.43454  0.32467  1.0000
  C   C51       1.0  0.40433  0.47987  0.32651  1.0000
  C   C52       1.0  0.45103  0.52799  0.32288  1.0000
  C   C53       1.0  0.54920  0.48623  0.31984  1.0000
  H   H20       1.0  0.37358  0.39993  0.32571  1.0000
  C   C54       1.0  0.45144  0.57516  0.32456  1.0000
  H   H21       1.0  0.55323  0.45471  0.31485  1.0000
  H   H22       1.0  0.62746  0.53130  0.32855  1.0000
  H   H23       1.0  0.41869  0.57706  0.32890  1.0000
  H   H24       1.0  0.49293  0.65366  0.31525  1.0000
  C   C55       1.0  0.59513  0.72217  0.31318  1.0000
  C   C56       1.0  0.69117  0.63395  0.33669  1.0000
  C   C57       1.0  0.45107  0.38619  0.31331  1.0000
  C   C58       1.0  0.35492  0.47433  0.33654  1.0000
  O   O17       1.0  0.63634  0.76056  0.27056  1.0000
  O   O18       1.0  0.72775  0.67536  0.38149  1.0000
  O   O19       1.0  0.40974  0.34764  0.27119  1.0000
  O   O20       1.0  0.31841  0.43300  0.38158  1.0000
  C   C59       1.0  0.49894  0.05353  0.32281  1.0000
  C   C60       1.0  0.49711  0.10016  0.32292  1.0000
  C   C61       1.0  0.44900  0.09877  0.32666  1.0000
  C   C62       1.0  0.40366  0.05060  0.32474  1.0000
  C   C63       1.0  0.40368  0.00378  0.32134  1.0000
  C   C64       1.0  0.45192  0.00538  0.32305  1.0000
  C   C65       1.0  0.54429  0.14692  0.32459  1.0000
  C   C66       1.0  0.45528  0.96022  0.31985  1.0000
  H   H25       1.0  0.36906  0.04961  0.32577  1.0000
  C   C67       1.0  0.54758  0.05505  0.32276  1.0000
  C   C68       1.0  0.59461  0.10319  0.32304  1.0000
  C   C69       1.0  0.64284  0.10478  0.32117  1.0000
  C   C70       1.0  0.64286  0.05796  0.32449  1.0000
  C   C71       1.0  0.59752  0.00980  0.32644  1.0000
  C   C72       1.0  0.54942  0.00842  0.32274  1.0000
  C   C73       1.0  0.59125  0.14836  0.32002  1.0000
  H   H26       1.0  0.67746  0.05894  0.32547  1.0000
  C   C74       1.0  0.50223  0.96166  0.32434  1.0000
  H   H27       1.0  0.62279  0.18390  0.31521  1.0000
  H   H28       1.0  0.54620  0.18157  0.32899  1.0000
  H   H29       1.0  0.50032  0.92700  0.32856  1.0000
  H   H30       1.0  0.42375  0.92468  0.31495  1.0000
  C   C75       1.0  0.35529  0.95835  0.31308  1.0000
  C   C76       1.0  0.44348  0.14264  0.33670  1.0000
  C   C77       1.0  0.69124  0.15018  0.31281  1.0000
  C   C78       1.0  0.60293  0.96587  0.33658  1.0000
  O   O21       1.0  0.31677  0.96124  0.27106  1.0000
  O   O22       1.0  0.40221  0.13779  0.38199  1.0000
  O   O23       1.0  0.72967  0.14733  0.27044  1.0000
  O   O24       1.0  0.64442  0.97073  0.38117  1.0000
  C   C79       1.0  0.20852  0.51473  0.34330  1.0000
  C   C80       1.0  0.23749  0.51102  0.41410  1.0000
  C   C81       1.0  0.28037  0.50542  0.39454  1.0000
  H   H31       1.0  0.30025  0.50162  0.44607  1.0000
  N   N13       1.0  0.22094  0.50869  0.50262  1.0000
  O   O25       1.0  0.20971  0.46673  0.53892  1.0000
  O   O26       1.0  0.25471  0.54474  0.54824  1.0000
  N   N14       1.0  0.16301  0.51285  0.35985  1.0000
  H   H32       1.0  0.15817  0.52515  0.41675  1.0000
  C   C82       1.0  0.56277  0.77917  0.34302  1.0000
  C   C83       1.0  0.56634  0.81177  0.41386  1.0000
  C   C84       1.0  0.57187  0.86022  0.39433  1.0000
  H   H33       1.0  0.57563  0.88388  0.44588  1.0000
  N   N15       1.0  0.56862  0.79753  0.50238  1.0000
  O   O27       1.0  0.61052  0.82829  0.53881  1.0000
  O   O28       1.0  0.53249  0.79516  0.54790  1.0000
  N   N16       1.0  0.56492  0.73569  0.35961  1.0000
  H   H34       1.0  0.55233  0.71837  0.41633  1.0000
  C   C85       1.0  0.29820  0.86911  0.34304  1.0000
  C   C86       1.0  0.26556  0.84013  0.41389  1.0000
  C   C87       1.0  0.21711  0.79720  0.39438  1.0000
  H   H35       1.0  0.19346  0.77732  0.44594  1.0000
  N   N17       1.0  0.27980  0.85669  0.50240  1.0000
  O   O29       1.0  0.24904  0.86786  0.53875  1.0000
  O   O30       1.0  0.28214  0.82295  0.54799  1.0000
  N   N18       1.0  0.34182  0.91464  0.35959  1.0000
  H   H36       1.0  0.35897  0.91948  0.41648  1.0000
  C   C88       1.0  0.83788  0.59403  0.34285  1.0000
  C   C89       1.0  0.80884  0.59753  0.41374  1.0000
  C   C90       1.0  0.76587  0.60299  0.39431  1.0000
  H   H37       1.0  0.74594  0.60666  0.44590  1.0000
  N   N19       1.0  0.82542  0.59984  0.50225  1.0000
  O   O31       1.0  0.83651  0.64173  0.53868  1.0000
  O   O32       1.0  0.79172  0.56369  0.54779  1.0000
  N   N20       1.0  0.88355  0.59622  0.35938  1.0000
  H   H38       1.0  0.88820  0.58355  0.41607  1.0000
  C   C91       1.0  0.48344  0.32927  0.34321  1.0000
  C   C92       1.0  0.47991  0.29670  0.41407  1.0000
  C   C93       1.0  0.47447  0.24828  0.39459  1.0000
  H   H39       1.0  0.47080  0.22468  0.44617  1.0000
  N   N21       1.0  0.47759  0.31095  0.50258  1.0000
  O   O33       1.0  0.43569  0.28014  0.53899  1.0000
  O   O34       1.0  0.51373  0.31339  0.54813  1.0000
  N   N22       1.0  0.48143  0.37284  0.35973  1.0000
  H   H40       1.0  0.49375  0.39003  0.41660  1.0000
  C   C94       1.0  0.74832  0.23953  0.34290  1.0000
  C   C95       1.0  0.78085  0.26860  0.41379  1.0000
  C   C96       1.0  0.82928  0.31159  0.39437  1.0000
  H   H41       1.0  0.85288  0.33150  0.44597  1.0000
  N   N23       1.0  0.76657  0.25204  0.50230  1.0000
  O   O35       1.0  0.79737  0.24098  0.53880  1.0000
  O   O36       1.0  0.76409  0.28574  0.54779  1.0000
  N   N24       1.0  0.70486  0.19388  0.35944  1.0000
  H   H42       1.0  0.68752  0.18912  0.41615  1.0000
