data_image0
_chemical_formula_structural       C8H3NO2C8H3NO2C8H3NO2C2H2C2H2C2H2C2H2C2H2C2H2C24H15C24H15C24H15C24H15C2H2C2H2C2H2C2H2C2H2C2H2C8H3NO2C8H3NO2C8H3NO2
_chemical_formula_sum              "C168 H102 N6 O12"
_cell_length_a       57.761
_cell_length_b       57.7609
_cell_length_c       14.9434
_cell_angle_alpha    90
_cell_angle_beta     90
_cell_angle_gamma    120

_space_group_name_H-M_alt    "P 1"
_space_group_IT_number       1

loop_
  _space_group_symop_operation_xyz
  'x, y, z'

loop_
  _atom_site_type_symbol
  _atom_site_label
  _atom_site_symmetry_multiplicity
  _atom_site_fract_x
  _atom_site_fract_y
  _atom_site_fract_z
  _atom_site_occupancy
  C   C1        1.0  0.14047  0.07106  0.33088  1.0000
  C   C2        1.0  0.15533  0.07616  0.25015  1.0000
  C   C3        1.0  0.18368  0.09039  0.25290  1.0000
  C   C4        1.0  0.19823  0.10053  0.33352  1.0000
  C   C5        1.0  0.22706  0.11516  0.33476  1.0000
  C   C6        1.0  0.24216  0.13207  0.26309  1.0000
  C   C7        1.0  0.27032  0.14594  0.26361  1.0000
  C   C8        1.0  0.28498  0.14403  0.33648  1.0000
  H   H1        1.0  0.23282  0.13478  0.20934  1.0000
  H   H2        1.0  0.28000  0.15718  0.20864  1.0000
  H   H3        1.0  0.19374  0.09312  0.19400  1.0000
  N   N1        1.0  0.14184  0.06805  0.16689  1.0000
  O   O1        1.0  0.14740  0.05246  0.12579  1.0000
  O   O2        1.0  0.14738  0.08774  0.11738  1.0000
  C   C9        1.0  0.92406  0.07031  0.33085  1.0000
  C   C10       1.0  0.91885  0.07997  0.25009  1.0000
  C   C11       1.0  0.90463  0.09410  0.25287  1.0000
  C   C12       1.0  0.89459  0.09861  0.33354  1.0000
  C   C13       1.0  0.87996  0.11280  0.33482  1.0000
  C   C14       1.0  0.86297  0.11093  0.26331  1.0000
  C   C15       1.0  0.84910  0.12522  0.26385  1.0000
  C   C16       1.0  0.85109  0.14187  0.33660  1.0000
  H   H4        1.0  0.86021  0.09883  0.20965  1.0000
  H   H5        1.0  0.83781  0.12361  0.20898  1.0000
  H   H6        1.0  0.90182  0.10136  0.19393  1.0000
  N   N2        1.0  0.92686  0.07450  0.16679  1.0000
  O   O3        1.0  0.94241  0.09561  0.12537  1.0000
  O   O4        1.0  0.90711  0.06029  0.11760  1.0000
  C   C17       1.0  0.92483  0.85469  0.33085  1.0000
  C   C18       1.0  0.91522  0.83983  0.25006  1.0000
  C   C19       1.0  0.90108  0.81147  0.25279  1.0000
  C   C20       1.0  0.89651  0.79692  0.33348  1.0000
  C   C21       1.0  0.88231  0.76810  0.33472  1.0000
  C   C22       1.0  0.88422  0.75298  0.26328  1.0000
  C   C23       1.0  0.86991  0.72482  0.26377  1.0000
  C   C24       1.0  0.85321  0.71016  0.33641  1.0000
  H   H7        1.0  0.89635  0.76232  0.20969  1.0000
  H   H8        1.0  0.87156  0.71515  0.20895  1.0000
  H   H9        1.0  0.89386  0.80142  0.19382  1.0000
  N   N3        1.0  0.92075  0.85332  0.16677  1.0000
  O   O5        1.0  0.89968  0.84777  0.12515  1.0000
  O   O6        1.0  0.93500  0.84778  0.11774  1.0000
  C   C25       1.0  0.60417  0.15916  0.25763  1.0000
  C   C26       1.0  0.62994  0.16260  0.26690  1.0000
  H   H10       1.0  0.59744  0.15935  0.19447  1.0000
  H   H11       1.0  0.64117  0.16597  0.21028  1.0000
  C   C27       1.0  0.53724  0.17520  0.25957  1.0000
  C   C28       1.0  0.56048  0.17311  0.26221  1.0000
  H   H12       1.0  0.53670  0.18869  0.21645  1.0000
  H   H13       1.0  0.57595  0.18535  0.22099  1.0000
  C   C29       1.0  0.83592  0.44594  0.25779  1.0000
  C   C30       1.0  0.83247  0.46825  0.26704  1.0000
  H   H14       1.0  0.83574  0.43901  0.19463  1.0000
  H   H15       1.0  0.82912  0.47613  0.21041  1.0000
  C   C31       1.0  0.81988  0.36296  0.25976  1.0000
  C   C32       1.0  0.82194  0.38827  0.26249  1.0000
  H   H16       1.0  0.80639  0.34893  0.21660  1.0000
  H   H17       1.0  0.80973  0.39152  0.22113  1.0000
  C   C33       1.0  0.54910  0.39100  0.25744  1.0000
  C   C34       1.0  0.52679  0.36524  0.26670  1.0000
  H   H18       1.0  0.55602  0.39775  0.19428  1.0000
  H   H19       1.0  0.51895  0.35400  0.21007  1.0000
  C   C35       1.0  0.63207  0.45795  0.25924  1.0000
  C   C36       1.0  0.60675  0.43471  0.26194  1.0000
  H   H20       1.0  0.64611  0.45849  0.21612  1.0000
  H   H21       1.0  0.60351  0.41924  0.22064  1.0000
  C   C37       1.0  0.98216  0.01314  0.33877  1.0000
  C   C38       1.0  0.01049  0.02661  0.33882  1.0000
  C   C39       1.0  0.02518  0.01298  0.33884  1.0000
  C   C40       1.0  0.01033  0.98465  0.33896  1.0000
  C   C41       1.0  0.98200  0.96996  0.33887  1.0000
  C   C42       1.0  0.96852  0.98480  0.33885  1.0000
  C   C43       1.0  0.05401  0.02734  0.33773  1.0000
  C   C44       1.0  0.06910  0.05174  0.38477  1.0000
  C   C45       1.0  0.09725  0.06606  0.38205  1.0000
  C   C46       1.0  0.11175  0.05649  0.33314  1.0000
  C   C47       1.0  0.09681  0.03180  0.28806  1.0000
  C   C48       1.0  0.06866  0.01778  0.28928  1.0000
  C   C49       1.0  0.96780  0.02760  0.33764  1.0000
  C   C50       1.0  0.97731  0.05176  0.28900  1.0000
  C   C51       1.0  0.96328  0.06588  0.28776  1.0000
  C   C52       1.0  0.93863  0.05617  0.33308  1.0000
  C   C53       1.0  0.92911  0.03214  0.38221  1.0000
  C   C54       1.0  0.94344  0.01832  0.38490  1.0000
  C   C55       1.0  0.96753  0.94113  0.33774  1.0000
  C   C56       1.0  0.94340  0.92649  0.28894  1.0000
  C   C57       1.0  0.92928  0.89834  0.28770  1.0000
  C   C58       1.0  0.93897  0.88340  0.33312  1.0000
  C   C59       1.0  0.96297  0.89790  0.38240  1.0000
  C   C60       1.0  0.97679  0.92605  0.38510  1.0000
  H   H22       1.0  0.97144  0.08355  0.25343  1.0000
  H   H23       1.0  0.99453  0.05930  0.25236  1.0000
  H   H24       1.0  0.91139  0.02427  0.41622  1.0000
  H   H25       1.0  0.93585  0.00138  0.42304  1.0000
  H   H26       1.0  0.93587  0.93617  0.25228  1.0000
  H   H27       1.0  0.91163  0.88883  0.25327  1.0000
  H   H28       1.0  0.99371  0.93541  0.42334  1.0000
  H   H29       1.0  0.97083  0.88805  0.41649  1.0000
  H   H30       1.0  0.05898  0.00053  0.25280  1.0000
  H   H31       1.0  0.10631  0.02360  0.25390  1.0000
  H   H32       1.0  0.10710  0.08381  0.41589  1.0000
  H   H33       1.0  0.05975  0.05935  0.42276  1.0000
  H   H34       1.0  0.02076  0.04704  0.33852  1.0000
  H   H35       1.0  0.94809  0.97465  0.33857  1.0000
  H   H36       1.0  0.02048  0.97437  0.33878  1.0000
  C   C61       1.0  0.44425  0.24156  0.34896  1.0000
  C   C62       1.0  0.41594  0.22781  0.34608  1.0000
  C   C63       1.0  0.40046  0.19956  0.33663  1.0000
  C   C64       1.0  0.41441  0.18519  0.32929  1.0000
  C   C65       1.0  0.44254  0.19823  0.33339  1.0000
  C   C66       1.0  0.45708  0.22625  0.34198  1.0000
  C   C67       1.0  0.37167  0.18584  0.33660  1.0000
  C   C68       1.0  0.35731  0.19697  0.29579  1.0000
  C   C69       1.0  0.32914  0.18351  0.29634  1.0000
  C   C70       1.0  0.31380  0.15804  0.33675  1.0000
  C   C71       1.0  0.32821  0.14689  0.37720  1.0000
  C   C72       1.0  0.35635  0.16051  0.37782  1.0000
  C   C73       1.0  0.46005  0.27000  0.35794  1.0000
  C   C74       1.0  0.45524  0.28743  0.30466  1.0000
  C   C75       1.0  0.47318  0.31524  0.30489  1.0000
  C   C76       1.0  0.49648  0.32665  0.35874  1.0000
  C   C77       1.0  0.50083  0.30926  0.41371  1.0000
  C   C78       1.0  0.48282  0.28161  0.41428  1.0000
  C   C79       1.0  0.45671  0.18407  0.33263  1.0000
  C   C80       1.0  0.47041  0.18368  0.41047  1.0000
  C   C81       1.0  0.48880  0.17449  0.40698  1.0000
  C   C82       1.0  0.49435  0.16585  0.32529  1.0000
  C   C83       1.0  0.48010  0.16567  0.24793  1.0000
  C   C84       1.0  0.46138  0.17452  0.25154  1.0000
  H   H37       1.0  0.46951  0.32707  0.26304  1.0000
  H   H38       1.0  0.43946  0.27989  0.26110  1.0000
  H   H39       1.0  0.51792  0.31634  0.45088  1.0000
  H   H40       1.0  0.48717  0.26986  0.45406  1.0000
  H   H41       1.0  0.46817  0.19143  0.46934  1.0000
  H   H42       1.0  0.49945  0.17593  0.46353  1.0000
  H   H43       1.0  0.45258  0.17562  0.19348  1.0000
  H   H44       1.0  0.48403  0.16007  0.18741  1.0000
  H   H45       1.0  0.36551  0.15165  0.41010  1.0000
  H   H46       1.0  0.31838  0.12835  0.40596  1.0000
  H   H47       1.0  0.31997  0.19287  0.26745  1.0000
  H   H48       1.0  0.36723  0.21502  0.26383  1.0000
  H   H49       1.0  0.40648  0.23863  0.35458  1.0000
  H   H50       1.0  0.47756  0.23567  0.34208  1.0000
  H   H51       1.0  0.40407  0.16487  0.32143  1.0000
  C   C85       1.0  0.75358  0.20364  0.34910  1.0000
  C   C86       1.0  0.76732  0.18907  0.34620  1.0000
  C   C87       1.0  0.79557  0.20183  0.33678  1.0000
  C   C88       1.0  0.80994  0.23015  0.32942  1.0000
  C   C89       1.0  0.79691  0.24525  0.33351  1.0000
  C   C90       1.0  0.76889  0.23177  0.34212  1.0000
  C   C91       1.0  0.80928  0.18676  0.33676  1.0000
  C   C92       1.0  0.79812  0.16123  0.29612  1.0000
  C   C93       1.0  0.81159  0.14653  0.29665  1.0000
  C   C94       1.0  0.83708  0.15668  0.33689  1.0000
  C   C95       1.0  0.84826  0.18226  0.37720  1.0000
  C   C96       1.0  0.83464  0.19677  0.37785  1.0000
  C   C97       1.0  0.72513  0.19100  0.35806  1.0000
  C   C98       1.0  0.70770  0.16876  0.30476  1.0000
  C   C99       1.0  0.67989  0.15890  0.30496  1.0000
  C   C100      1.0  0.66849  0.17077  0.35895  1.0000
  C   C101      1.0  0.68589  0.19251  0.41392  1.0000
  C   C102      1.0  0.71353  0.20214  0.41452  1.0000
  C   C103      1.0  0.81107  0.27358  0.33275  1.0000
  C   C104      1.0  0.81150  0.28767  0.41062  1.0000
  C   C105      1.0  0.82071  0.31525  0.40720  1.0000
  C   C106      1.0  0.82925  0.32943  0.32545  1.0000
  C   C107      1.0  0.82939  0.31535  0.24803  1.0000
  C   C108      1.0  0.82054  0.28779  0.25161  1.0000
  H   H52       1.0  0.66806  0.14340  0.26316  1.0000
  H   H53       1.0  0.71524  0.16053  0.26116  1.0000
  H   H54       1.0  0.67880  0.20251  0.45113  1.0000
  H   H55       1.0  0.72529  0.21825  0.45424  1.0000
  H   H56       1.0  0.80378  0.27768  0.46951  1.0000
  H   H57       1.0  0.81923  0.32444  0.46373  1.0000
  H   H58       1.0  0.81945  0.27788  0.19355  1.0000
  H   H59       1.0  0.83496  0.32488  0.18750  1.0000
  H   H60       1.0  0.84352  0.21482  0.40998  1.0000
  H   H61       1.0  0.86681  0.19098  0.40580  1.0000
  H   H62       1.0  0.80221  0.12799  0.26788  1.0000
  H   H63       1.0  0.78006  0.15309  0.26422  1.0000
  H   H64       1.0  0.75650  0.16879  0.35478  1.0000
  H   H65       1.0  0.75947  0.24283  0.34222  1.0000
  H   H66       1.0  0.83026  0.24013  0.32155  1.0000
  C   C109      1.0  0.79146  0.55089  0.34913  1.0000
  C   C110      1.0  0.80602  0.57919  0.34616  1.0000
  C   C111      1.0  0.79326  0.59468  0.33662  1.0000
  C   C112      1.0  0.76494  0.58072  0.32921  1.0000
  C   C113      1.0  0.74984  0.55259  0.33340  1.0000
  C   C114      1.0  0.76332  0.53805  0.34211  1.0000
  C   C115      1.0  0.80832  0.62346  0.33656  1.0000
  C   C116      1.0  0.83386  0.63783  0.29602  1.0000
  C   C117      1.0  0.84856  0.66599  0.29656  1.0000
  C   C118      1.0  0.83840  0.68134  0.33668  1.0000
  C   C119      1.0  0.81280  0.66693  0.37684  1.0000
  C   C120      1.0  0.79828  0.63880  0.37751  1.0000
  C   C121      1.0  0.80411  0.53509  0.35816  1.0000
  C   C122      1.0  0.82631  0.53986  0.30476  1.0000
  C   C123      1.0  0.83618  0.52192  0.30506  1.0000
  C   C124      1.0  0.82431  0.49865  0.35907  1.0000
  C   C125      1.0  0.80259  0.49433  0.41411  1.0000
  C   C126      1.0  0.79296  0.51235  0.41463  1.0000
  C   C127      1.0  0.72150  0.53841  0.33259  1.0000
  C   C128      1.0  0.70742  0.52465  0.41033  1.0000
  C   C129      1.0  0.67983  0.50629  0.40683  1.0000
  C   C130      1.0  0.66565  0.50079  0.32512  1.0000
  C   C131      1.0  0.67973  0.51506  0.24782  1.0000
  C   C132      1.0  0.70730  0.53379  0.25151  1.0000
  H   H67       1.0  0.85169  0.52558  0.26327  1.0000
  H   H68       1.0  0.83458  0.55566  0.26128  1.0000
  H   H69       1.0  0.79255  0.47723  0.45123  1.0000
  H   H70       1.0  0.77685  0.50800  0.45435  1.0000
  H   H71       1.0  0.71738  0.52690  0.46925  1.0000
  H   H72       1.0  0.67060  0.49564  0.46335  1.0000
  H   H73       1.0  0.71721  0.54265  0.19350  1.0000
  H   H74       1.0  0.67020  0.51121  0.18732  1.0000
  H   H75       1.0  0.78022  0.62964  0.40956  1.0000
  H   H76       1.0  0.80407  0.67677  0.40537  1.0000
  H   H77       1.0  0.86712  0.67516  0.26790  1.0000
  H   H78       1.0  0.84202  0.62791  0.26423  1.0000
  H   H79       1.0  0.82630  0.58866  0.35477  1.0000
  H   H80       1.0  0.75227  0.51757  0.34224  1.0000
  H   H81       1.0  0.75495  0.59105  0.32126  1.0000
  C   C133      1.0  0.18304  0.09562  0.41278  1.0000
  C   C134      1.0  0.15493  0.08111  0.41160  1.0000
  H   H82       1.0  0.19228  0.10292  0.47294  1.0000
  H   H83       1.0  0.14506  0.07783  0.47128  1.0000
  C   C135      1.0  0.26987  0.12744  0.40876  1.0000
  C   C136      1.0  0.24172  0.11323  0.40759  1.0000
  H   H84       1.0  0.27921  0.12560  0.46418  1.0000
  H   H85       1.0  0.23206  0.10101  0.46070  1.0000
  C   C137      1.0  0.89959  0.08841  0.41284  1.0000
  C   C138      1.0  0.91409  0.07480  0.41163  1.0000
  H   H86       1.0  0.89237  0.09042  0.47304  1.0000
  H   H87       1.0  0.91746  0.06829  0.47133  1.0000
  C   C139      1.0  0.86776  0.14341  0.40872  1.0000
  C   C140      1.0  0.88196  0.12947  0.40753  1.0000
  H   H88       1.0  0.86966  0.15464  0.46406  1.0000
  H   H89       1.0  0.89425  0.13209  0.46050  1.0000
  C   C141      1.0  0.90666  0.81211  0.41282  1.0000
  C   C142      1.0  0.92028  0.84022  0.41165  1.0000
  H   H90       1.0  0.90460  0.80287  0.47304  1.0000
  H   H91       1.0  0.92675  0.85009  0.47138  1.0000
  C   C143      1.0  0.85163  0.72528  0.40847  1.0000
  C   C144      1.0  0.86559  0.75343  0.40732  1.0000
  H   H92       1.0  0.84037  0.71595  0.46376  1.0000
  H   H93       1.0  0.86294  0.76309  0.46024  1.0000
  C   C145      1.0  0.64088  0.16331  0.35227  1.0000
  C   C146      1.0  0.62465  0.15921  0.42888  1.0000
  C   C147      1.0  0.59881  0.15598  0.41828  1.0000
  C   C148      1.0  0.58827  0.15650  0.33322  1.0000
  C   C149      1.0  0.56337  0.15628  0.32484  1.0000
  C   C150      1.0  0.54156  0.14106  0.38310  1.0000
  C   C151      1.0  0.51845  0.14341  0.38151  1.0000
  C   C152      1.0  0.51601  0.16071  0.32018  1.0000
  H   H94       1.0  0.54247  0.12841  0.42902  1.0000
  H   H95       1.0  0.50355  0.13270  0.42672  1.0000
  H   H96       1.0  0.58816  0.15447  0.47480  1.0000
  N   N4        1.0  0.63434  0.15820  0.51514  1.0000
  O   O7        1.0  0.63513  0.17590  0.56615  1.0000
  O   O8        1.0  0.62011  0.13577  0.55114  1.0000
  C   C153      1.0  0.83176  0.47850  0.35240  1.0000
  C   C154      1.0  0.83585  0.46637  0.42902  1.0000
  C   C155      1.0  0.83908  0.44376  0.41844  1.0000
  C   C156      1.0  0.83858  0.43269  0.33338  1.0000
  C   C157      1.0  0.83878  0.40801  0.32503  1.0000
  C   C158      1.0  0.85401  0.40143  0.38328  1.0000
  C   C159      1.0  0.85166  0.37596  0.38169  1.0000
  C   C160      1.0  0.83437  0.35622  0.32036  1.0000
  H   H97       1.0  0.86666  0.41499  0.42922  1.0000
  H   H98       1.0  0.86237  0.37177  0.42692  1.0000
  H   H99       1.0  0.84059  0.43462  0.47498  1.0000
  N   N5        1.0  0.83685  0.47705  0.51528  1.0000
  O   O9        1.0  0.81915  0.46015  0.56628  1.0000
  O   O10       1.0  0.85928  0.48525  0.55131  1.0000
  C   C161      1.0  0.51660  0.35426  0.35207  1.0000
  C   C162      1.0  0.52873  0.37048  0.42869  1.0000
  C   C163      1.0  0.55131  0.39634  0.41809  1.0000
  C   C164      1.0  0.56236  0.40691  0.33302  1.0000
  C   C165      1.0  0.58704  0.43180  0.32464  1.0000
  C   C166      1.0  0.59364  0.45360  0.38294  1.0000
  C   C167      1.0  0.61911  0.47671  0.38133  1.0000
  C   C168      1.0  0.63883  0.47916  0.31993  1.0000
  H   H100      1.0  0.58010  0.45268  0.42896  1.0000
  H   H101      1.0  0.62332  0.49159  0.42666  1.0000
  H   H102      1.0  0.56047  0.40698  0.47462  1.0000
  N   N6        1.0  0.51807  0.36078  0.51497  1.0000
  O   O11       1.0  0.53500  0.36001  0.56589  1.0000
  O   O12       1.0  0.50985  0.37498  0.55108  1.0000
