data_image0
_chemical_formula_structural       C3H2C2HC2O2C7H3NO2NHC7H3NO2NHC3HC4H2C2O2C2H2C3H2NHC2H2C3H2NHC3H2C2HC2O2C7H3NO2NHC7H3NO2NHC3HC4H2C2O2C2H2C3H2NHC2H2C3H2NHC3H2C2HC2O2C7H3NO2NHC7H3NO2NHC3HC4H2C2O2C2H2C3H2NHC2H2C3H2NHC3H2C2HC2O2C7H3NO2NHC7H3NO2NHC3HC4H2C2O2C2H2C3H2NHC2H2C3H2NH
_chemical_formula_sum              "C160 H96 O32 N24"
_cell_length_a       39.1478
_cell_length_b       39.1478
_cell_length_c       15.0334
_cell_angle_alpha    90
_cell_angle_beta     90
_cell_angle_gamma    90

_space_group_name_H-M_alt    "P 1"
_space_group_IT_number       1

loop_
  _space_group_symop_operation_xyz
  'x, y, z'

loop_
  _atom_site_type_symbol
  _atom_site_label
  _atom_site_symmetry_multiplicity
  _atom_site_fract_x
  _atom_site_fract_y
  _atom_site_fract_z
  _atom_site_occupancy
  C   C1        1.0  0.49344  0.45170  0.30338  1.0000
  C   C2        1.0  0.46870  0.42541  0.29659  1.0000
  C   C3        1.0  0.43521  0.43335  0.32439  1.0000
  H   H1        1.0  0.01716  0.44642  0.27916  1.0000
  H   H2        1.0  0.41696  0.41469  0.32195  1.0000
  C   C4        1.0  0.02612  0.07325  0.36591  1.0000
  C   C5        1.0  0.00224  0.04732  0.34515  1.0000
  H   H3        1.0  0.47765  0.05480  0.33451  1.0000
  C   C6        1.0  0.01801  0.10864  0.37153  1.0000
  C   C7        1.0  0.47558  0.39191  0.26444  1.0000
  O   O1        1.0  0.04148  0.12871  0.41303  1.0000
  O   O2        1.0  0.44792  0.37284  0.24136  1.0000
  C   C8        1.0  0.99085  0.15925  0.31083  1.0000
  C   C9        1.0  0.98423  0.17410  0.22620  1.0000
  C   C10       1.0  0.98839  0.20983  0.21388  1.0000
  C   C11       1.0  0.99897  0.23208  0.28334  1.0000
  C   C12       1.0  0.00551  0.26769  0.27037  1.0000
  C   C13       1.0  0.49136  0.28628  0.19813  1.0000
  C   C14       1.0  0.49356  0.32211  0.19390  1.0000
  H   H4        1.0  0.47589  0.27476  0.15251  1.0000
  H   H5        1.0  0.48114  0.33435  0.14329  1.0000
  H   H6        1.0  0.98626  0.21884  0.15043  1.0000
  N   N1        1.0  0.97663  0.15267  0.15286  1.0000
  O   O3        1.0  0.94830  0.16016  0.11874  1.0000
  O   O4        1.0  0.49929  0.15414  0.09376  1.0000
  N   N2        1.0  0.99333  0.12445  0.32155  1.0000
  H   H7        1.0  0.98265  0.11022  0.27636  1.0000
  C   C15       1.0  0.33962  0.00402  0.36088  1.0000
  C   C16       1.0  0.32222  0.01733  0.28521  1.0000
  C   C17       1.0  0.28652  0.01293  0.27782  1.0000
  C   C18       1.0  0.26660  0.99602  0.34354  1.0000
  C   C19       1.0  0.23064  0.99078  0.33457  1.0000
  C   C20       1.0  0.21055  0.51150  0.27744  1.0000
  C   C21       1.0  0.17477  0.51027  0.27953  1.0000
  H   H8        1.0  0.22106  0.53075  0.24082  1.0000
  H   H9        1.0  0.16152  0.52728  0.24109  1.0000
  H   H10       1.0  0.27560  0.02008  0.21903  1.0000
  N   N3        1.0  0.33835  0.03169  0.20963  1.0000
  O   O5        1.0  0.35365  0.05899  0.22793  1.0000
  O   O6        1.0  0.35849  0.51120  0.17233  1.0000
  N   N4        1.0  0.37450  0.00197  0.36366  1.0000
  H   H11       1.0  0.38704  0.01866  0.32868  1.0000
  C   C22       1.0  0.48553  0.48561  0.33191  1.0000
  C   C23       1.0  0.42546  0.46604  0.35402  1.0000
  C   C24       1.0  0.45074  0.49178  0.35488  1.0000
  H   H12       1.0  0.44394  0.01449  0.38291  1.0000
  C   C25       1.0  0.01094  0.01191  0.34102  1.0000
  C   C26       1.0  0.04643  0.00414  0.34819  1.0000
  C   C27       1.0  0.07172  0.02914  0.36496  1.0000
  C   C28       1.0  0.06028  0.06293  0.37880  1.0000
  H   H13       1.0  0.05433  0.47946  0.34415  1.0000
  H   H14       1.0  0.07805  0.08144  0.39100  1.0000
  C   C29       1.0  0.10745  0.02266  0.36256  1.0000
  C   C30       1.0  0.39105  0.47177  0.37964  1.0000
  O   O7        1.0  0.37224  0.44367  0.40061  1.0000
  O   O8        1.0  0.12857  0.04992  0.37471  1.0000
  C   C31       1.0  0.00145  0.21707  0.36891  1.0000
  C   C32       1.0  0.99691  0.18193  0.38241  1.0000
  H   H15       1.0  0.00574  0.23163  0.42417  1.0000
  H   H16       1.0  0.99865  0.17288  0.44604  1.0000
  C   C33       1.0  0.01045  0.34123  0.26069  1.0000
  C   C34       1.0  0.02950  0.32256  0.32401  1.0000
  C   C35       1.0  0.02627  0.28683  0.33004  1.0000
  H   H17       1.0  0.04257  0.33510  0.37310  1.0000
  H   H18       1.0  0.03940  0.27506  0.38010  1.0000
  N   N5        1.0  0.00655  0.37582  0.27152  1.0000
  H   H19       1.0  0.02338  0.38739  0.30857  1.0000
  C   C36       1.0  0.28427  0.98571  0.42133  1.0000
  C   C37       1.0  0.31966  0.98996  0.43018  1.0000
  H   H20       1.0  0.27161  0.97567  0.47464  1.0000
  H   H21       1.0  0.33106  0.98189  0.48772  1.0000
  C   C38       1.0  0.15719  0.98804  0.33792  1.0000
  C   C39       1.0  0.17671  0.96341  0.38375  1.0000
  C   C40       1.0  0.21264  0.96549  0.38401  1.0000
  H   H22       1.0  0.16502  0.94641  0.42553  1.0000
  H   H23       1.0  0.22542  0.94808  0.42211  1.0000
  N   N6        1.0  0.12294  0.99153  0.35359  1.0000
  H   H24       1.0  0.11058  0.97185  0.37660  1.0000
  C   C41       1.0  0.49344  0.95170  0.30338  1.0000
  C   C42       1.0  0.46870  0.92540  0.29659  1.0000
  C   C43       1.0  0.43521  0.93335  0.32439  1.0000
  H   H25       1.0  0.01716  0.94642  0.27916  1.0000
  H   H26       1.0  0.41696  0.91469  0.32195  1.0000
  C   C44       1.0  0.02612  0.57325  0.36591  1.0000
  C   C45       1.0  0.00224  0.54732  0.34515  1.0000
  H   H27       1.0  0.47765  0.55480  0.33451  1.0000
  C   C46       1.0  0.01801  0.60864  0.37153  1.0000
  C   C47       1.0  0.47558  0.89191  0.26444  1.0000
  O   O9        1.0  0.04148  0.62871  0.41303  1.0000
  O   O10       1.0  0.44792  0.87284  0.24136  1.0000
  C   C48       1.0  0.99085  0.65925  0.31083  1.0000
  C   C49       1.0  0.98423  0.67410  0.22620  1.0000
  C   C50       1.0  0.98839  0.70983  0.21388  1.0000
  C   C51       1.0  0.99897  0.73208  0.28334  1.0000
  C   C52       1.0  0.00551  0.76769  0.27037  1.0000
  C   C53       1.0  0.49136  0.78628  0.19813  1.0000
  C   C54       1.0  0.49356  0.82211  0.19390  1.0000
  H   H28       1.0  0.47589  0.77476  0.15251  1.0000
  H   H29       1.0  0.48114  0.83435  0.14329  1.0000
  H   H30       1.0  0.98626  0.71884  0.15043  1.0000
  N   N7        1.0  0.97663  0.65267  0.15286  1.0000
  O   O11       1.0  0.94830  0.66016  0.11874  1.0000
  O   O12       1.0  0.49929  0.65414  0.09376  1.0000
  N   N8        1.0  0.99333  0.62445  0.32155  1.0000
  H   H31       1.0  0.98265  0.61022  0.27636  1.0000
  C   C55       1.0  0.33962  0.50402  0.36088  1.0000
  C   C56       1.0  0.32222  0.51733  0.28521  1.0000
  C   C57       1.0  0.28652  0.51293  0.27782  1.0000
  C   C58       1.0  0.26660  0.49601  0.34354  1.0000
  C   C59       1.0  0.23064  0.49078  0.33457  1.0000
  C   C60       1.0  0.21055  0.01150  0.27744  1.0000
  C   C61       1.0  0.17477  0.01027  0.27953  1.0000
  H   H32       1.0  0.22106  0.03075  0.24082  1.0000
  H   H33       1.0  0.16152  0.02728  0.24109  1.0000
  H   H34       1.0  0.27560  0.52008  0.21903  1.0000
  N   N9        1.0  0.33835  0.53169  0.20963  1.0000
  O   O13       1.0  0.35365  0.55900  0.22793  1.0000
  O   O14       1.0  0.35849  0.01120  0.17233  1.0000
  N   N10       1.0  0.37450  0.50197  0.36366  1.0000
  H   H35       1.0  0.38704  0.51866  0.32868  1.0000
  C   C62       1.0  0.48553  0.98561  0.33191  1.0000
  C   C63       1.0  0.42546  0.96604  0.35402  1.0000
  C   C64       1.0  0.45074  0.99178  0.35488  1.0000
  H   H36       1.0  0.44394  0.51449  0.38291  1.0000
  C   C65       1.0  0.01094  0.51191  0.34102  1.0000
  C   C66       1.0  0.04643  0.50414  0.34819  1.0000
  C   C67       1.0  0.07172  0.52914  0.36496  1.0000
  C   C68       1.0  0.06028  0.56293  0.37880  1.0000
  H   H37       1.0  0.05433  0.97946  0.34415  1.0000
  H   H38       1.0  0.07805  0.58144  0.39100  1.0000
  C   C69       1.0  0.10745  0.52266  0.36256  1.0000
  C   C70       1.0  0.39105  0.97177  0.37964  1.0000
  O   O15       1.0  0.37224  0.94367  0.40061  1.0000
  O   O16       1.0  0.12857  0.54992  0.37471  1.0000
  C   C71       1.0  0.00145  0.71708  0.36891  1.0000
  C   C72       1.0  0.99691  0.68193  0.38241  1.0000
  H   H39       1.0  0.00574  0.73163  0.42417  1.0000
  H   H40       1.0  0.99865  0.67288  0.44604  1.0000
  C   C73       1.0  0.01045  0.84123  0.26069  1.0000
  C   C74       1.0  0.02950  0.82256  0.32401  1.0000
  C   C75       1.0  0.02627  0.78683  0.33004  1.0000
  H   H41       1.0  0.04257  0.83510  0.37310  1.0000
  H   H42       1.0  0.03940  0.77506  0.38010  1.0000
  N   N11       1.0  0.00655  0.87582  0.27152  1.0000
  H   H43       1.0  0.02338  0.88739  0.30857  1.0000
  C   C76       1.0  0.28427  0.48571  0.42133  1.0000
  C   C77       1.0  0.31966  0.48996  0.43018  1.0000
  H   H44       1.0  0.27161  0.47567  0.47464  1.0000
  H   H45       1.0  0.33106  0.48190  0.48772  1.0000
  C   C78       1.0  0.15719  0.48804  0.33792  1.0000
  C   C79       1.0  0.17671  0.46341  0.38375  1.0000
  C   C80       1.0  0.21264  0.46549  0.38401  1.0000
  H   H46       1.0  0.16502  0.44641  0.42553  1.0000
  H   H47       1.0  0.22542  0.44808  0.42211  1.0000
  N   N12       1.0  0.12294  0.49153  0.35359  1.0000
  H   H48       1.0  0.11058  0.47185  0.37660  1.0000
  C   C81       1.0  0.99344  0.45170  0.30338  1.0000
  C   C82       1.0  0.96870  0.42541  0.29659  1.0000
  C   C83       1.0  0.93521  0.43335  0.32439  1.0000
  H   H49       1.0  0.51716  0.44642  0.27916  1.0000
  H   H50       1.0  0.91696  0.41469  0.32195  1.0000
  C   C84       1.0  0.52611  0.07325  0.36591  1.0000
  C   C85       1.0  0.50224  0.04732  0.34515  1.0000
  H   H51       1.0  0.97765  0.05480  0.33451  1.0000
  C   C86       1.0  0.51801  0.10864  0.37153  1.0000
  C   C87       1.0  0.97558  0.39191  0.26444  1.0000
  O   O17       1.0  0.54148  0.12871  0.41303  1.0000
  O   O18       1.0  0.94792  0.37284  0.24136  1.0000
  C   C88       1.0  0.49085  0.15925  0.31083  1.0000
  C   C89       1.0  0.48423  0.17410  0.22620  1.0000
  C   C90       1.0  0.48840  0.20983  0.21388  1.0000
  C   C91       1.0  0.49897  0.23208  0.28334  1.0000
  C   C92       1.0  0.50552  0.26769  0.27037  1.0000
  C   C93       1.0  0.99136  0.28628  0.19813  1.0000
  C   C94       1.0  0.99356  0.32211  0.19390  1.0000
  H   H52       1.0  0.97589  0.27476  0.15251  1.0000
  H   H53       1.0  0.98114  0.33435  0.14329  1.0000
  H   H54       1.0  0.48626  0.21884  0.15043  1.0000
  N   N13       1.0  0.47663  0.15267  0.15286  1.0000
  O   O19       1.0  0.44830  0.16016  0.11874  1.0000
  O   O20       1.0  0.99930  0.15414  0.09376  1.0000
  N   N14       1.0  0.49334  0.12445  0.32155  1.0000
  H   H55       1.0  0.48265  0.11022  0.27636  1.0000
  C   C95       1.0  0.83962  0.00402  0.36088  1.0000
  C   C96       1.0  0.82222  0.01733  0.28521  1.0000
  C   C97       1.0  0.78652  0.01293  0.27782  1.0000
  C   C98       1.0  0.76661  0.99602  0.34354  1.0000
  C   C99       1.0  0.73064  0.99078  0.33457  1.0000
  C   C100      1.0  0.71055  0.51150  0.27744  1.0000
  C   C101      1.0  0.67477  0.51027  0.27953  1.0000
  H   H56       1.0  0.72106  0.53075  0.24082  1.0000
  H   H57       1.0  0.66152  0.52728  0.24109  1.0000
  H   H58       1.0  0.77560  0.02008  0.21903  1.0000
  N   N15       1.0  0.83835  0.03169  0.20963  1.0000
  O   O21       1.0  0.85366  0.05899  0.22793  1.0000
  O   O22       1.0  0.85849  0.51120  0.17233  1.0000
  N   N16       1.0  0.87450  0.00197  0.36366  1.0000
  H   H59       1.0  0.88704  0.01866  0.32868  1.0000
  C   C102      1.0  0.98553  0.48561  0.33191  1.0000
  C   C103      1.0  0.92546  0.46604  0.35402  1.0000
  C   C104      1.0  0.95074  0.49178  0.35488  1.0000
  H   H60       1.0  0.94394  0.01449  0.38291  1.0000
  C   C105      1.0  0.51094  0.01191  0.34102  1.0000
  C   C106      1.0  0.54643  0.00414  0.34819  1.0000
  C   C107      1.0  0.57172  0.02914  0.36496  1.0000
  C   C108      1.0  0.56027  0.06293  0.37880  1.0000
  H   H61       1.0  0.55433  0.47946  0.34415  1.0000
  H   H62       1.0  0.57805  0.08144  0.39100  1.0000
  C   C109      1.0  0.60745  0.02266  0.36256  1.0000
  C   C110      1.0  0.89105  0.47177  0.37964  1.0000
  O   O23       1.0  0.87224  0.44367  0.40061  1.0000
  O   O24       1.0  0.62857  0.04992  0.37471  1.0000
  C   C111      1.0  0.50145  0.21707  0.36891  1.0000
  C   C112      1.0  0.49691  0.18193  0.38241  1.0000
  H   H63       1.0  0.50574  0.23163  0.42417  1.0000
  H   H64       1.0  0.49865  0.17288  0.44604  1.0000
  C   C113      1.0  0.51045  0.34123  0.26069  1.0000
  C   C114      1.0  0.52950  0.32256  0.32401  1.0000
  C   C115      1.0  0.52627  0.28683  0.33004  1.0000
  H   H65       1.0  0.54257  0.33510  0.37310  1.0000
  H   H66       1.0  0.53940  0.27506  0.38010  1.0000
  N   N17       1.0  0.50655  0.37582  0.27152  1.0000
  H   H67       1.0  0.52338  0.38739  0.30857  1.0000
  C   C116      1.0  0.78427  0.98571  0.42133  1.0000
  C   C117      1.0  0.81966  0.98996  0.43018  1.0000
  H   H68       1.0  0.77161  0.97567  0.47464  1.0000
  H   H69       1.0  0.83106  0.98189  0.48772  1.0000
  C   C118      1.0  0.65719  0.98804  0.33792  1.0000
  C   C119      1.0  0.67671  0.96341  0.38375  1.0000
  C   C120      1.0  0.71264  0.96549  0.38401  1.0000
  H   H70       1.0  0.66502  0.94641  0.42553  1.0000
  H   H71       1.0  0.72542  0.94808  0.42211  1.0000
  N   N18       1.0  0.62294  0.99153  0.35359  1.0000
  H   H72       1.0  0.61058  0.97185  0.37660  1.0000
  C   C121      1.0  0.99344  0.95170  0.30338  1.0000
  C   C122      1.0  0.96870  0.92540  0.29659  1.0000
  C   C123      1.0  0.93521  0.93335  0.32439  1.0000
  H   H73       1.0  0.51716  0.94642  0.27916  1.0000
  H   H74       1.0  0.91696  0.91469  0.32195  1.0000
  C   C124      1.0  0.52611  0.57325  0.36591  1.0000
  C   C125      1.0  0.50224  0.54732  0.34515  1.0000
  H   H75       1.0  0.97765  0.55480  0.33451  1.0000
  C   C126      1.0  0.51801  0.60864  0.37153  1.0000
  C   C127      1.0  0.97558  0.89191  0.26444  1.0000
  O   O25       1.0  0.54148  0.62871  0.41303  1.0000
  O   O26       1.0  0.94792  0.87284  0.24136  1.0000
  C   C128      1.0  0.49085  0.65925  0.31083  1.0000
  C   C129      1.0  0.48423  0.67410  0.22620  1.0000
  C   C130      1.0  0.48840  0.70983  0.21388  1.0000
  C   C131      1.0  0.49897  0.73208  0.28334  1.0000
  C   C132      1.0  0.50552  0.76769  0.27037  1.0000
  C   C133      1.0  0.99136  0.78628  0.19813  1.0000
  C   C134      1.0  0.99356  0.82211  0.19390  1.0000
  H   H76       1.0  0.97589  0.77476  0.15251  1.0000
  H   H77       1.0  0.98114  0.83435  0.14329  1.0000
  H   H78       1.0  0.48626  0.71884  0.15043  1.0000
  N   N19       1.0  0.47663  0.65267  0.15286  1.0000
  O   O27       1.0  0.44830  0.66016  0.11874  1.0000
  O   O28       1.0  0.99930  0.65414  0.09376  1.0000
  N   N20       1.0  0.49334  0.62445  0.32155  1.0000
  H   H79       1.0  0.48265  0.61022  0.27636  1.0000
  C   C135      1.0  0.83962  0.50402  0.36088  1.0000
  C   C136      1.0  0.82222  0.51733  0.28521  1.0000
  C   C137      1.0  0.78652  0.51293  0.27782  1.0000
  C   C138      1.0  0.76661  0.49601  0.34354  1.0000
  C   C139      1.0  0.73064  0.49078  0.33457  1.0000
  C   C140      1.0  0.71055  0.01150  0.27744  1.0000
  C   C141      1.0  0.67477  0.01027  0.27953  1.0000
  H   H80       1.0  0.72106  0.03075  0.24082  1.0000
  H   H81       1.0  0.66152  0.02728  0.24109  1.0000
  H   H82       1.0  0.77560  0.52008  0.21903  1.0000
  N   N21       1.0  0.83835  0.53169  0.20963  1.0000
  O   O29       1.0  0.85366  0.55900  0.22793  1.0000
  O   O30       1.0  0.85849  0.01120  0.17233  1.0000
  N   N22       1.0  0.87450  0.50197  0.36366  1.0000
  H   H83       1.0  0.88704  0.51866  0.32868  1.0000
  C   C142      1.0  0.98553  0.98561  0.33191  1.0000
  C   C143      1.0  0.92546  0.96604  0.35402  1.0000
  C   C144      1.0  0.95074  0.99178  0.35488  1.0000
  H   H84       1.0  0.94394  0.51449  0.38291  1.0000
  C   C145      1.0  0.51094  0.51191  0.34102  1.0000
  C   C146      1.0  0.54643  0.50414  0.34819  1.0000
  C   C147      1.0  0.57172  0.52914  0.36496  1.0000
  C   C148      1.0  0.56027  0.56293  0.37880  1.0000
  H   H85       1.0  0.55433  0.97946  0.34415  1.0000
  H   H86       1.0  0.57805  0.58144  0.39100  1.0000
  C   C149      1.0  0.60745  0.52266  0.36256  1.0000
  C   C150      1.0  0.89105  0.97177  0.37964  1.0000
  O   O31       1.0  0.87224  0.94367  0.40061  1.0000
  O   O32       1.0  0.62857  0.54992  0.37471  1.0000
  C   C151      1.0  0.50145  0.71708  0.36891  1.0000
  C   C152      1.0  0.49691  0.68193  0.38241  1.0000
  H   H87       1.0  0.50574  0.73163  0.42417  1.0000
  H   H88       1.0  0.49865  0.67288  0.44604  1.0000
  C   C153      1.0  0.51045  0.84123  0.26069  1.0000
  C   C154      1.0  0.52950  0.82256  0.32401  1.0000
  C   C155      1.0  0.52627  0.78683  0.33004  1.0000
  H   H89       1.0  0.54257  0.83510  0.37310  1.0000
  H   H90       1.0  0.53940  0.77506  0.38010  1.0000
  N   N23       1.0  0.50655  0.87582  0.27152  1.0000
  H   H91       1.0  0.52338  0.88739  0.30857  1.0000
  C   C156      1.0  0.78427  0.48571  0.42133  1.0000
  C   C157      1.0  0.81966  0.48996  0.43018  1.0000
  H   H92       1.0  0.77161  0.47567  0.47464  1.0000
  H   H93       1.0  0.83106  0.48190  0.48772  1.0000
  C   C158      1.0  0.65719  0.48804  0.33792  1.0000
  C   C159      1.0  0.67671  0.46341  0.38375  1.0000
  C   C160      1.0  0.71264  0.46549  0.38401  1.0000
  H   H94       1.0  0.66502  0.44641  0.42553  1.0000
  H   H95       1.0  0.72542  0.44808  0.42211  1.0000
  N   N24       1.0  0.62294  0.49153  0.35359  1.0000
  H   H96       1.0  0.61058  0.47185  0.37660  1.0000
