data_image0
_chemical_formula_structural       C8H12C3NC2NC2HNHC3NC2NC2HNHC3NC3NC5NC5NC20H18CHCHCHCHC3H2C2H3NHC3H2C2H3NH
_chemical_formula_sum              "C72 H50 N12"
_cell_length_a       25.3149
_cell_length_b       25.3165
_cell_length_c       15.0028
_cell_angle_alpha    90
_cell_angle_beta     90
_cell_angle_gamma    90.0376

_space_group_name_H-M_alt    "P 1"
_space_group_IT_number       1

loop_
  _space_group_symop_operation_xyz
  'x, y, z'

loop_
  _atom_site_type_symbol
  _atom_site_label
  _atom_site_symmetry_multiplicity
  _atom_site_fract_x
  _atom_site_fract_y
  _atom_site_fract_z
  _atom_site_occupancy
  C   C1        1.0  0.72844  0.95666  0.23681  1.0000
  C   C2        1.0  0.78353  0.96251  0.24364  1.0000
  C   C3        1.0  0.95725  0.27383  0.23429  1.0000
  C   C4        1.0  0.96265  0.21873  0.24126  1.0000
  C   C5        1.0  0.22430  0.02800  0.27302  1.0000
  C   C6        1.0  0.27896  0.03737  0.27912  1.0000
  C   C7        1.0  0.02655  0.77814  0.27342  1.0000
  C   C8        1.0  0.03554  0.72343  0.27958  1.0000
  H   H1        1.0  0.03617  0.70137  0.22241  1.0000
  H   H2        1.0  0.02106  0.79486  0.21199  1.0000
  H   H3        1.0  0.20774  0.02133  0.21178  1.0000
  H   H4        1.0  0.30117  0.03709  0.22211  1.0000
  H   H5        1.0  0.95789  0.19595  0.18543  1.0000
  H   H6        1.0  0.94880  0.28990  0.17337  1.0000
  H   H7        1.0  0.80638  0.95665  0.18821  1.0000
  H   H8        1.0  0.71250  0.94676  0.17641  1.0000
  H   H9        1.0  0.94205  0.37601  0.23909  1.0000
  H   H10       1.0  0.62602  0.94263  0.24114  1.0000
  H   H11       1.0  0.08525  0.63105  0.32135  1.0000
  H   H12       1.0  0.37155  0.08738  0.31986  1.0000
  C   C9        1.0  0.01340  0.44541  0.31462  1.0000
  C   C10       1.0  0.00023  0.47840  0.24172  1.0000
  C   C11       1.0  0.99840  0.53413  0.25265  1.0000
  N   N1        1.0  0.98443  0.56433  0.18138  1.0000
  C   C12       1.0  0.97235  0.54372  0.10032  1.0000
  C   C13       1.0  0.97437  0.48812  0.08934  1.0000
  N   N2        1.0  0.98824  0.45798  0.16034  1.0000
  C   C14       1.0  0.95755  0.57609  0.02818  1.0000
  C   C15       1.0  0.96131  0.46527  0.00665  1.0000
  H   H13       1.0  0.95593  0.61623  0.03557  1.0000
  N   N3        1.0  0.01360  0.38959  0.30996  1.0000
  H   H14       1.0  0.03762  0.37779  0.25845  1.0000
  C   C16       1.0  0.55651  0.01433  0.31545  1.0000
  C   C17       1.0  0.52338  0.00108  0.24273  1.0000
  C   C18       1.0  0.46763  0.99967  0.25377  1.0000
  N   N4        1.0  0.43723  0.98589  0.18264  1.0000
  C   C19       1.0  0.45764  0.97359  0.10156  1.0000
  C   C20       1.0  0.51325  0.97515  0.09043  1.0000
  N   N5        1.0  0.54361  0.98884  0.16132  1.0000
  C   C21       1.0  0.42503  0.95911  0.02952  1.0000
  C   C22       1.0  0.53586  0.96197  0.00761  1.0000
  H   H15       1.0  0.38489  0.95785  0.03704  1.0000
  N   N6        1.0  0.61233  0.01456  0.31058  1.0000
  H   H16       1.0  0.62411  0.03829  0.25866  1.0000
  C   C23       1.0  0.92041  0.85408  0.34501  1.0000
  C   C24       1.0  0.87718  0.88720  0.34110  1.0000
  C   C25       1.0  0.89541  0.93922  0.33538  1.0000
  N   N7        1.0  0.94884  0.93567  0.33594  1.0000
  C   C26       1.0  0.96606  0.88509  0.34182  1.0000
  C   C27       1.0  0.01859  0.86527  0.34502  1.0000
  C   C28       1.0  0.06495  0.89683  0.34532  1.0000
  N   N8        1.0  0.06815  0.95006  0.34322  1.0000
  C   C29       1.0  0.11875  0.96695  0.34598  1.0000
  C   C30       1.0  0.15009  0.92165  0.34982  1.0000
  C   C31       1.0  0.11692  0.87839  0.34898  1.0000
  C   C32       1.0  0.13719  0.01986  0.34498  1.0000
  C   C33       1.0  0.10437  0.06532  0.34006  1.0000
  N   N9        1.0  0.05096  0.06889  0.33973  1.0000
  C   C34       1.0  0.03385  0.11947  0.33348  1.0000
  C   C35       1.0  0.07958  0.15037  0.32931  1.0000
  C   C36       1.0  0.12272  0.11726  0.33373  1.0000
  C   C37       1.0  0.98136  0.13943  0.33045  1.0000
  C   C38       1.0  0.93502  0.10783  0.33021  1.0000
  N   N10       1.0  0.93175  0.05459  0.33262  1.0000
  C   C39       1.0  0.88115  0.03768  0.32983  1.0000
  C   C40       1.0  0.84994  0.08309  0.32525  1.0000
  C   C41       1.0  0.88311  0.12633  0.32637  1.0000
  C   C42       1.0  0.86258  0.98475  0.33095  1.0000
  C   C43       1.0  0.80694  0.97695  0.32556  1.0000
  C   C44       1.0  0.77423  0.98546  0.40049  1.0000
  C   C45       1.0  0.71906  0.98028  0.39318  1.0000
  C   C46       1.0  0.69549  0.96577  0.31132  1.0000
  C   C47       1.0  0.97475  0.19516  0.32411  1.0000
  C   C48       1.0  0.98177  0.22771  0.39967  1.0000
  C   C49       1.0  0.97714  0.28290  0.39223  1.0000
  C   C50       1.0  0.96457  0.30660  0.30960  1.0000
  C   C51       1.0  0.19269  0.02801  0.35056  1.0000
  C   C52       1.0  0.30298  0.04751  0.36249  1.0000
  C   C53       1.0  0.27112  0.04738  0.43988  1.0000
  C   C54       1.0  0.21654  0.03765  0.43407  1.0000
  C   C55       1.0  0.02562  0.80962  0.35110  1.0000
  C   C56       1.0  0.03373  0.78552  0.43487  1.0000
  C   C57       1.0  0.04321  0.73091  0.44074  1.0000
  C   C58       1.0  0.04448  0.69922  0.36317  1.0000
  H   H17       1.0  0.04906  0.71444  0.50223  1.0000
  H   H18       1.0  0.03341  0.80765  0.49199  1.0000
  H   H19       1.0  0.91817  0.81388  0.35018  1.0000
  H   H20       1.0  0.83881  0.87467  0.34328  1.0000
  H   H21       1.0  0.97197  0.96563  0.33116  1.0000
  H   H22       1.0  0.02783  0.03901  0.34564  1.0000
  H   H23       1.0  0.12930  0.84000  0.35139  1.0000
  H   H24       1.0  0.19039  0.91973  0.35251  1.0000
  H   H25       1.0  0.19431  0.03791  0.49109  1.0000
  H   H26       1.0  0.28746  0.05405  0.50123  1.0000
  H   H27       1.0  0.16111  0.12974  0.33129  1.0000
  H   H28       1.0  0.08201  0.19050  0.32315  1.0000
  H   H29       1.0  0.80968  0.08519  0.32181  1.0000
  H   H30       1.0  0.87075  0.16472  0.32361  1.0000
  H   H31       1.0  0.99099  0.21151  0.46023  1.0000
  H   H32       1.0  0.98293  0.30575  0.44766  1.0000
  H   H33       1.0  0.69610  0.98733  0.44805  1.0000
  H   H34       1.0  0.79029  0.99639  0.46035  1.0000
  C   C59       1.0  0.96050  0.36492  0.30227  1.0000
  H   H35       1.0  0.93471  0.37924  0.35560  1.0000
  C   C60       1.0  0.63713  0.96151  0.30396  1.0000
  H   H36       1.0  0.62287  0.93607  0.35783  1.0000
  C   C61       1.0  0.05400  0.64143  0.36860  1.0000
  H   H37       1.0  0.06780  0.63027  0.43513  1.0000
  C   C62       1.0  0.36084  0.05671  0.36801  1.0000
  H   H38       1.0  0.37201  0.07111  0.43417  1.0000
  C   C63       1.0  0.01015  0.55707  0.33611  1.0000
  C   C64       1.0  0.02445  0.52387  0.40786  1.0000
  C   C65       1.0  0.02635  0.46876  0.39703  1.0000
  H   H39       1.0  0.03577  0.44554  0.45054  1.0000
  H   H40       1.0  0.03261  0.53970  0.46902  1.0000
  C   C66       1.0  0.94425  0.55305  0.61241  1.0000
  C   C67       1.0  0.94594  0.49780  0.60180  1.0000
  H   H41       1.0  0.93313  0.57648  0.56018  1.0000
  H   H42       1.0  0.93590  0.48124  0.54197  1.0000
  H   H43       1.0  0.96231  0.42516  0.66524  1.0000
  N   N11       1.0  0.00475  0.61232  0.34696  1.0000
  H   H44       1.0  0.97659  0.61941  0.39486  1.0000
  C   C68       1.0  0.44482  0.01186  0.33715  1.0000
  C   C69       1.0  0.47815  0.02617  0.40872  1.0000
  C   C70       1.0  0.53328  0.02768  0.39778  1.0000
  H   H45       1.0  0.55659  0.03722  0.45113  1.0000
  H   H46       1.0  0.46239  0.03468  0.46979  1.0000
  C   C71       1.0  0.44783  0.94574  0.61361  1.0000
  C   C72       1.0  0.50309  0.94699  0.60281  1.0000
  H   H47       1.0  0.42423  0.93490  0.56142  1.0000
  H   H48       1.0  0.51947  0.93693  0.54287  1.0000
  H   H49       1.0  0.57596  0.96270  0.66602  1.0000
  N   N12       1.0  0.38952  0.00702  0.34799  1.0000
  H   H50       1.0  0.38208  0.97937  0.39660  1.0000
