data_image0
_chemical_formula_structural       C17H12C15H9C3NC2NC5NC3NC17H14C3NC2NC5NC3NC17H14C3NC2NC5NC3NC17H14C13H9C15H12C14H12C14H12C14H12
_chemical_formula_sum              "C192 H120 N12"
_cell_length_a       43.0342
_cell_length_b       43.0249
_cell_length_c       14.9435
_cell_angle_alpha    89.9858
_cell_angle_beta     90.0142
_cell_angle_gamma    120.223

_space_group_name_H-M_alt    "P 1"
_space_group_IT_number       1

loop_
  _space_group_symop_operation_xyz
  'x, y, z'

loop_
  _atom_site_type_symbol
  _atom_site_label
  _atom_site_symmetry_multiplicity
  _atom_site_fract_x
  _atom_site_fract_y
  _atom_site_fract_z
  _atom_site_occupancy
  C   C1        1.0  0.26773  0.47738  0.30873  1.0000
  C   C2        1.0  0.27724  0.51385  0.31193  1.0000
  C   C3        1.0  0.31287  0.59498  0.29106  1.0000
  C   C4        1.0  0.32420  0.63139  0.29846  1.0000
  C   C5        1.0  0.36121  0.65768  0.29770  1.0000
  C   C6        1.0  0.37282  0.69483  0.29790  1.0000
  C   C7        1.0  0.34666  0.70554  0.29725  1.0000
  C   C8        1.0  0.30948  0.67986  0.29792  1.0000
  C   C9        1.0  0.29863  0.64286  0.29773  1.0000
  C   C10       1.0  0.28442  0.69110  0.29012  1.0000
  C   C11       1.0  0.23174  0.69299  0.34238  1.0000
  C   C12       1.0  0.23975  0.72735  0.31124  1.0000
  C   C13       1.0  0.21308  0.73717  0.30816  1.0000
  C   C14       1.0  0.40926  0.71995  0.29018  1.0000
  C   C15       1.0  0.46410  0.77264  0.34234  1.0000
  C   C16       1.0  0.47598  0.80839  0.36977  1.0000
  C   C17       1.0  0.51270  0.83483  0.36795  1.0000
  H   H1        1.0  0.24253  0.45882  0.28700  1.0000
  H   H2        1.0  0.25854  0.52053  0.29258  1.0000
  H   H3        1.0  0.27177  0.62404  0.29484  1.0000
  H   H4        1.0  0.37994  0.64964  0.29485  1.0000
  H   H5        1.0  0.35480  0.73238  0.29408  1.0000
  H   H6        1.0  0.22010  0.76245  0.28659  1.0000
  H   H7        1.0  0.26529  0.74590  0.29183  1.0000
  H   H8        1.0  0.52013  0.86039  0.38796  1.0000
  H   H9        1.0  0.45793  0.81556  0.39182  1.0000
  H   H10       1.0  0.28682  0.70626  0.23742  1.0000
  H   H11       1.0  0.29760  0.58203  0.23858  1.0000
  H   H12       1.0  0.42211  0.71743  0.23787  1.0000
  C   C18       1.0  0.46719  0.29069  0.33552  1.0000
  C   C19       1.0  0.54154  0.31033  0.33065  1.0000
  C   C20       1.0  0.53032  0.33445  0.30145  1.0000
  C   C21       1.0  0.49384  0.32479  0.30358  1.0000
  C   C22       1.0  0.57782  0.32039  0.32377  1.0000
  C   C23       1.0  0.68355  0.25641  0.32439  1.0000
  C   C24       1.0  0.69387  0.23044  0.33129  1.0000
  C   C25       1.0  0.67003  0.19491  0.30186  1.0000
  C   C26       1.0  0.71422  0.17635  0.33570  1.0000
  C   C27       1.0  0.68004  0.16839  0.30377  1.0000
  C   C28       1.0  0.74780  0.42636  0.32454  1.0000
  C   C29       1.0  0.77372  0.46282  0.33132  1.0000
  C   C30       1.0  0.76544  0.48918  0.36034  1.0000
  C   C31       1.0  0.82771  0.53760  0.33554  1.0000
  C   C32       1.0  0.79206  0.52587  0.36330  1.0000
  H   H13       1.0  0.48692  0.34311  0.28223  1.0000
  H   H14       1.0  0.54870  0.35942  0.27785  1.0000
  H   H15       1.0  0.73976  0.48203  0.37830  1.0000
  H   H16       1.0  0.64502  0.18795  0.27820  1.0000
  H   H17       1.0  0.66191  0.14300  0.28226  1.0000
  H   H18       1.0  0.78488  0.54412  0.38344  1.0000
  H   H19       1.0  0.66810  0.25440  0.27249  1.0000
  H   H20       1.0  0.59150  0.33600  0.27222  1.0000
  H   H21       1.0  0.74997  0.41284  0.27310  1.0000
  C   C33       1.0  0.88966  0.73718  0.33780  1.0000
  C   C34       1.0  0.88957  0.70505  0.33605  1.0000
  C   C35       1.0  0.92519  0.71263  0.33789  1.0000
  N   N1        1.0  0.94549  0.74904  0.33938  1.0000
  C   C36       1.0  0.92536  0.76522  0.33908  1.0000
  C   C37       1.0  0.93646  0.80246  0.34036  1.0000
  N   N2        1.0  0.00300  0.82826  0.33645  1.0000
  C   C38       1.0  0.03321  0.86096  0.33467  1.0000
  C   C39       1.0  0.02170  0.88607  0.33633  1.0000
  C   C40       1.0  0.98467  0.86754  0.33744  1.0000
  C   C41       1.0  0.06959  0.86910  0.33249  1.0000
  C   C42       1.0  0.08053  0.84292  0.33340  1.0000
  N   N3        1.0  0.06025  0.80649  0.33366  1.0000
  C   C43       1.0  0.08041  0.79036  0.33473  1.0000
  C   C44       1.0  0.11610  0.81854  0.33566  1.0000
  C   C45       1.0  0.11618  0.85065  0.33380  1.0000
  N   N4        1.0  0.00274  0.72716  0.33660  1.0000
  C   C46       1.0  0.97248  0.69446  0.33742  1.0000
  C   C47       1.0  0.93608  0.68635  0.33769  1.0000
  C   C48       1.0  0.90862  0.64923  0.33698  1.0000
  C   C49       1.0  0.90175  0.62823  0.25887  1.0000
  C   C50       1.0  0.87534  0.59149  0.25874  1.0000
  C   C51       1.0  0.85448  0.57485  0.33599  1.0000
  C   C52       1.0  0.11699  0.74721  0.25846  1.0000
  C   C53       1.0  0.14394  0.73779  0.25938  1.0000
  C   C54       1.0  0.15083  0.72355  0.33738  1.0000
  C   C55       1.0  0.09669  0.90629  0.33031  1.0000
  C   C56       1.0  0.14227  0.98297  0.33406  1.0000
  C   C57       1.0  0.12360  0.96474  0.25523  1.0000
  C   C58       1.0  0.10160  0.92709  0.25287  1.0000
  C   C59       1.0  0.90951  0.81259  0.34245  1.0000
  C   C60       1.0  0.89044  0.81108  0.26415  1.0000
  C   C61       1.0  0.86781  0.82593  0.26293  1.0000
  C   C62       1.0  0.86419  0.84373  0.33876  1.0000
  H   H22       1.0  0.85477  0.82446  0.20452  1.0000
  H   H23       1.0  0.89385  0.80026  0.20658  1.0000
  H   H24       1.0  0.86679  0.68033  0.33401  1.0000
  H   H25       1.0  0.97128  0.76193  0.34171  1.0000
  H   H26       1.0  0.03445  0.79354  0.33237  1.0000
  H   H27       1.0  0.96934  0.87952  0.33756  1.0000
  H   H28       1.0  0.03718  0.91347  0.33641  1.0000
  H   H29       1.0  0.08721  0.91520  0.19600  1.0000
  H   H30       1.0  0.12403  0.97878  0.19959  1.0000
  H   H31       1.0  0.13890  0.87544  0.33376  1.0000
  H   H32       1.0  0.11232  0.75695  0.20062  1.0000
  H   H33       1.0  0.15794  0.74060  0.20171  1.0000
  H   H34       1.0  0.87107  0.57710  0.20102  1.0000
  H   H35       1.0  0.91621  0.63949  0.20174  1.0000
  C   C63       1.0  0.26794  0.15406  0.33899  1.0000
  C   C64       1.0  0.30013  0.18622  0.33738  1.0000
  C   C65       1.0  0.29269  0.21433  0.33861  1.0000
  N   N5        1.0  0.25630  0.19810  0.33963  1.0000
  C   C66       1.0  0.24000  0.16168  0.33959  1.0000
  C   C67       1.0  0.20273  0.13541  0.34044  1.0000
  N   N6        1.0  0.17712  0.17612  0.33651  1.0000
  C   C68       1.0  0.14448  0.17353  0.33451  1.0000
  C   C69       1.0  0.11929  0.13676  0.33578  1.0000
  C   C70       1.0  0.13772  0.11829  0.33686  1.0000
  C   C71       1.0  0.13647  0.20181  0.33257  1.0000
  C   C72       1.0  0.16277  0.23907  0.33372  1.0000
  N   N7        1.0  0.19918  0.25533  0.33377  1.0000
  C   C73       1.0  0.21544  0.29174  0.33497  1.0000
  C   C74       1.0  0.18737  0.29922  0.33636  1.0000
  C   C75       1.0  0.15519  0.26704  0.33458  1.0000
  N   N8        1.0  0.27847  0.27742  0.33679  1.0000
  C   C76       1.0  0.31111  0.27996  0.33743  1.0000
  C   C77       1.0  0.31907  0.25163  0.33815  1.0000
  C   C78       1.0  0.35613  0.26135  0.33763  1.0000
  C   C79       1.0  0.37703  0.27494  0.25915  1.0000
  C   C80       1.0  0.41359  0.28487  0.25883  1.0000
  C   C81       1.0  0.43015  0.28077  0.33628  1.0000
  C   C82       1.0  0.25860  0.37164  0.25830  1.0000
  C   C83       1.0  0.26783  0.40804  0.25936  1.0000
  C   C84       1.0  0.28193  0.42920  0.33748  1.0000
  C   C85       1.0  0.09933  0.19163  0.33054  1.0000
  C   C86       1.0  0.02274  0.16065  0.33436  1.0000
  C   C87       1.0  0.04085  0.16014  0.25551  1.0000
  C   C88       1.0  0.07846  0.17571  0.25314  1.0000
  C   C89       1.0  0.19252  0.09824  0.34244  1.0000
  C   C90       1.0  0.19422  0.08077  0.26422  1.0000
  C   C91       1.0  0.17944  0.04321  0.26294  1.0000
  C   C92       1.0  0.16154  0.02164  0.33863  1.0000
  H   H36       1.0  0.18102  0.03169  0.20460  1.0000
  H   H37       1.0  0.20516  0.09513  0.20677  1.0000
  H   H38       1.0  0.32480  0.18821  0.33575  1.0000
  H   H39       1.0  0.24348  0.21100  0.34124  1.0000
  H   H40       1.0  0.21205  0.24249  0.33170  1.0000
  H   H41       1.0  0.12568  0.09089  0.33684  1.0000
  H   H42       1.0  0.09190  0.12473  0.33570  1.0000
  H   H43       1.0  0.09028  0.17327  0.19619  1.0000
  H   H44       1.0  0.02675  0.14657  0.19983  1.0000
  H   H45       1.0  0.13045  0.26493  0.33461  1.0000
  H   H46       1.0  0.24885  0.35718  0.20046  1.0000
  H   H47       1.0  0.26487  0.41918  0.20181  1.0000
  H   H48       1.0  0.42787  0.29448  0.20073  1.0000
  H   H49       1.0  0.36579  0.27791  0.20177  1.0000
  C   C93       1.0  0.85173  0.11509  0.33930  1.0000
  C   C94       1.0  0.81961  0.11498  0.33750  1.0000
  C   C95       1.0  0.79146  0.07926  0.33854  1.0000
  N   N9        1.0  0.80763  0.05913  0.33953  1.0000
  C   C96       1.0  0.84404  0.07944  0.33971  1.0000
  C   C97       1.0  0.87025  0.06854  0.34056  1.0000
  N   N10       1.0  0.82947  0.00192  0.33660  1.0000
  C   C98       1.0  0.83204  0.97187  0.33447  1.0000
  C   C99       1.0  0.86880  0.98366  0.33552  1.0000
  C   C100      1.0  0.88729  0.02069  0.33663  1.0000
  C   C101      1.0  0.80375  0.93539  0.33269  1.0000
  C   C102      1.0  0.76651  0.92425  0.33402  1.0000
  N   N11       1.0  0.75030  0.94435  0.33380  1.0000
  C   C103      1.0  0.71390  0.92402  0.33540  1.0000
  C   C104      1.0  0.70636  0.88840  0.33728  1.0000
  C   C105      1.0  0.73849  0.88853  0.33534  1.0000
  N   N12       1.0  0.72835  0.00156  0.33677  1.0000
  C   C106      1.0  0.72585  0.03168  0.33707  1.0000
  C   C107      1.0  0.75419  0.06816  0.33783  1.0000
  C   C108      1.0  0.74449  0.09546  0.33725  1.0000
  C   C109      1.0  0.73079  0.10261  0.25883  1.0000
  C   C110      1.0  0.72060  0.12899  0.25867  1.0000
  C   C111      1.0  0.72451  0.14956  0.33623  1.0000
  C   C112      1.0  0.63395  0.88677  0.25908  1.0000
  C   C113      1.0  0.59739  0.85982  0.26000  1.0000
  C   C114      1.0  0.57614  0.85326  0.33767  1.0000
  C   C115      1.0  0.81391  0.90845  0.33066  1.0000
  C   C116      1.0  0.84495  0.86305  0.33435  1.0000
  C   C117      1.0  0.84534  0.88164  0.25548  1.0000
  C   C118      1.0  0.82974  0.90355  0.25316  1.0000
  C   C119      1.0  0.90742  0.09568  0.34271  1.0000
  C   C120      1.0  0.92499  0.11489  0.26448  1.0000
  C   C121      1.0  0.96257  0.13770  0.26322  1.0000
  C   C122      1.0  0.98407  0.14135  0.33894  1.0000
  H   H50       1.0  0.97417  0.15083  0.20485  1.0000
  H   H51       1.0  0.91068  0.11146  0.20699  1.0000
  H   H52       1.0  0.81766  0.13767  0.33588  1.0000
  H   H53       1.0  0.79470  0.03333  0.34106  1.0000
  H   H54       1.0  0.76317  0.97014  0.33133  1.0000
  H   H55       1.0  0.91468  0.03621  0.33647  1.0000
  H   H56       1.0  0.88080  0.96836  0.33531  1.0000
  H   H57       1.0  0.83223  0.91790  0.19629  1.0000
  H   H58       1.0  0.85895  0.88126  0.19981  1.0000
  H   H59       1.0  0.74056  0.86589  0.33586  1.0000
  H   H60       1.0  0.64843  0.89126  0.20143  1.0000
  H   H61       1.0  0.58617  0.84559  0.20257  1.0000
  H   H62       1.0  0.71087  0.13351  0.20064  1.0000
  H   H63       1.0  0.72787  0.08842  0.20143  1.0000
  C   C123      1.0  0.29185  0.46624  0.33830  1.0000
  C   C124      1.0  0.31150  0.54061  0.34317  1.0000
  C   C125      1.0  0.33562  0.52938  0.37231  1.0000
  C   C126      1.0  0.32595  0.49289  0.37018  1.0000
  C   C127      1.0  0.32157  0.57690  0.34998  1.0000
  C   C128      1.0  0.25772  0.68268  0.34923  1.0000
  C   C129      1.0  0.19621  0.66910  0.37167  1.0000
  C   C130      1.0  0.17764  0.71330  0.33795  1.0000
  C   C131      1.0  0.16969  0.67909  0.36976  1.0000
  C   C132      1.0  0.42763  0.74676  0.34909  1.0000
  C   C133      1.0  0.49040  0.76430  0.31324  1.0000
  C   C134      1.0  0.53889  0.82654  0.33815  1.0000
  C   C135      1.0  0.52710  0.79087  0.31029  1.0000
  H   H64       1.0  0.34427  0.48597  0.39146  1.0000
  H   H65       1.0  0.36059  0.54776  0.39584  1.0000
  H   H66       1.0  0.48320  0.73860  0.29525  1.0000
  H   H67       1.0  0.18926  0.64407  0.39520  1.0000
  H   H68       1.0  0.14429  0.66093  0.39115  1.0000
  H   H69       1.0  0.54532  0.78365  0.29013  1.0000
  H   H70       1.0  0.25572  0.66722  0.40110  1.0000
  H   H71       1.0  0.33719  0.59059  0.40151  1.0000
  H   H72       1.0  0.41415  0.74889  0.40065  1.0000
  C   C136      1.0  0.47833  0.26660  0.36524  1.0000
  C   C137      1.0  0.51478  0.27609  0.36196  1.0000
  C   C138      1.0  0.59591  0.31168  0.38263  1.0000
  C   C139      1.0  0.63230  0.32297  0.37517  1.0000
  C   C140      1.0  0.65861  0.35998  0.37580  1.0000
  C   C141      1.0  0.69575  0.37157  0.37549  1.0000
  C   C142      1.0  0.70642  0.34537  0.37617  1.0000
  C   C143      1.0  0.68072  0.30819  0.37558  1.0000
  C   C144      1.0  0.64374  0.29737  0.37588  1.0000
  C   C145      1.0  0.69195  0.28312  0.38347  1.0000
  C   C146      1.0  0.72820  0.23844  0.36259  1.0000
  C   C147      1.0  0.73805  0.21179  0.36562  1.0000
  C   C148      1.0  0.72089  0.40802  0.38323  1.0000
  C   C149      1.0  0.80946  0.47465  0.30399  1.0000
  C   C150      1.0  0.83595  0.51136  0.30581  1.0000
  H   H73       1.0  0.45977  0.24138  0.38691  1.0000
  H   H74       1.0  0.52145  0.25738  0.38134  1.0000
  H   H75       1.0  0.62491  0.27051  0.37881  1.0000
  H   H76       1.0  0.65060  0.37874  0.37865  1.0000
  H   H77       1.0  0.73325  0.35349  0.37936  1.0000
  H   H78       1.0  0.76331  0.21882  0.38733  1.0000
  H   H79       1.0  0.74673  0.26398  0.38211  1.0000
  H   H80       1.0  0.86150  0.51874  0.28585  1.0000
  H   H81       1.0  0.81659  0.45656  0.28198  1.0000
  H   H82       1.0  0.70710  0.28553  0.43621  1.0000
  H   H83       1.0  0.58297  0.29641  0.43513  1.0000
  H   H84       1.0  0.71834  0.42089  0.43543  1.0000
  C   C151      1.0  0.97292  0.83078  0.33856  1.0000
  C   C152      1.0  0.06934  0.75308  0.33557  1.0000
  C   C153      1.0  0.03289  0.72471  0.33638  1.0000
  C   C154      1.0  0.98403  0.66939  0.33824  1.0000
  C   C155      1.0  0.02112  0.68796  0.33661  1.0000
  C   C156      1.0  0.86103  0.59613  0.41359  1.0000
  C   C157      1.0  0.88799  0.63270  0.41444  1.0000
  C   C158      1.0  0.09667  0.74343  0.33622  1.0000
  C   C159      1.0  0.13026  0.71963  0.41491  1.0000
  C   C160      1.0  0.10384  0.72977  0.41468  1.0000
  C   C161      1.0  0.11589  0.92388  0.40854  1.0000
  C   C162      1.0  0.13863  0.96148  0.40981  1.0000
  C   C163      1.0  0.90461  0.82841  0.41997  1.0000
  C   C164      1.0  0.88280  0.84412  0.41759  1.0000
  H   H85       1.0  0.88236  0.85765  0.47334  1.0000
  H   H86       1.0  0.91894  0.83088  0.47686  1.0000
  H   H87       1.0  0.86702  0.73922  0.33741  1.0000
  H   H88       1.0  0.11243  0.90959  0.46609  1.0000
  H   H89       1.0  0.15173  0.97310  0.46820  1.0000
  H   H90       1.0  0.13881  0.81662  0.33729  1.0000
  H   H91       1.0  0.96846  0.64199  0.33949  1.0000
  H   H92       1.0  0.03657  0.67610  0.33613  1.0000
  H   H93       1.0  0.08963  0.72682  0.47206  1.0000
  H   H94       1.0  0.13477  0.70990  0.47295  1.0000
  H   H95       1.0  0.89247  0.64722  0.47204  1.0000
  H   H96       1.0  0.84679  0.58494  0.47102  1.0000
  C   C165      1.0  0.17449  0.14346  0.33837  1.0000
  C   C166      1.0  0.25274  0.31809  0.33542  1.0000
  C   C167      1.0  0.28104  0.31009  0.33613  1.0000
  C   C168      1.0  0.33628  0.31673  0.33766  1.0000
  C   C169      1.0  0.31781  0.33524  0.33588  1.0000
  C   C170      1.0  0.40896  0.26664  0.41435  1.0000
  C   C171      1.0  0.37259  0.25744  0.41536  1.0000
  C   C172      1.0  0.26249  0.35516  0.33599  1.0000
  C   C173      1.0  0.28600  0.41261  0.41490  1.0000
  C   C174      1.0  0.27609  0.37604  0.41451  1.0000
  C   C175      1.0  0.08186  0.19330  0.40879  1.0000
  C   C176      1.0  0.04430  0.17851  0.41009  1.0000
  C   C177      1.0  0.17657  0.07738  0.41982  1.0000
  C   C178      1.0  0.16100  0.03976  0.41746  1.0000
  H   H97       1.0  0.14734  0.02564  0.47303  1.0000
  H   H98       1.0  0.17405  0.08919  0.47669  1.0000
  H   H99       1.0  0.26579  0.12930  0.33894  1.0000
  H   H100      1.0  0.09620  0.20417  0.46630  1.0000
  H   H101      1.0  0.03278  0.18006  0.46846  1.0000
  H   H102      1.0  0.18939  0.32390  0.33809  1.0000
  H   H103      1.0  0.36366  0.32863  0.33853  1.0000
  H   H104      1.0  0.32974  0.36263  0.33501  1.0000
  H   H105      1.0  0.27905  0.36478  0.47187  1.0000
  H   H106      1.0  0.29563  0.42688  0.47301  1.0000
  H   H107      1.0  0.35812  0.24771  0.47318  1.0000
  H   H108      1.0  0.42010  0.26372  0.47195  1.0000
  C   C179      1.0  0.86215  0.03216  0.33837  1.0000
  C   C180      1.0  0.68761  0.93488  0.33573  1.0000
  C   C181      1.0  0.69567  0.97127  0.33602  1.0000
  C   C182      1.0  0.68910  0.01988  0.33694  1.0000
  C   C183      1.0  0.67057  0.98278  0.33531  1.0000
  C   C184      1.0  0.73878  0.14268  0.41419  1.0000
  C   C185      1.0  0.74826  0.11576  0.41504  1.0000
  C   C186      1.0  0.65051  0.90739  0.33654  1.0000
  C   C187      1.0  0.59282  0.87411  0.41492  1.0000
  C   C188      1.0  0.62955  0.90050  0.41473  1.0000
  C   C189      1.0  0.81235  0.88934  0.40892  1.0000
  C   C190      1.0  0.82717  0.86669  0.41016  1.0000
  C   C191      1.0  0.92823  0.10059  0.42012  1.0000
  C   C192      1.0  0.96587  0.12266  0.41777  1.0000
  H   H109      1.0  0.97991  0.12307  0.47338  1.0000
  H   H110      1.0  0.91634  0.08619  0.47698  1.0000
  H   H111      1.0  0.87650  0.13783  0.33921  1.0000
  H   H112      1.0  0.80150  0.89273  0.46646  1.0000
  H   H113      1.0  0.82563  0.85358  0.46852  1.0000
  H   H114      1.0  0.68166  0.86560  0.33944  1.0000
  H   H115      1.0  0.67721  0.03530  0.33754  1.0000
  H   H116      1.0  0.64318  0.96718  0.33416  1.0000
  H   H117      1.0  0.64084  0.91495  0.47186  1.0000
  H   H118      1.0  0.57846  0.86982  0.47271  1.0000
  H   H119      1.0  0.75802  0.11111  0.47286  1.0000
  H   H120      1.0  0.74159  0.15668  0.47187  1.0000
