data_image0
_chemical_formula_structural       C3H2CH2C4NC2NHOHC4NC2NHOHC4NC2NHOHC2H2CH2C2H2CH2C2H2CH2C20H11C24H15C24H15C24H15C2H2CH2C2H2CH2C2H2CH2C4NC2NHOHC4NC2NHOHC4NC2NHOH
_chemical_formula_sum              "C150 H96 N12 O6"
_cell_length_a       45.7871
_cell_length_b       45.7872
_cell_length_c       14.9506
_cell_angle_alpha    90
_cell_angle_beta     90
_cell_angle_gamma    120

_space_group_name_H-M_alt    "P 1"
_space_group_IT_number       1

loop_
  _space_group_symop_operation_xyz
  'x, y, z'

loop_
  _atom_site_type_symbol
  _atom_site_label
  _atom_site_symmetry_multiplicity
  _atom_site_fract_x
  _atom_site_fract_y
  _atom_site_fract_z
  _atom_site_occupancy
  C   C1        1.0  0.01190  0.03217  0.31786  1.0000
  C   C2        1.0  0.03055  0.01509  0.32176  1.0000
  C   C3        1.0  0.01202  0.97936  0.32321  1.0000
  H   H1        1.0  0.02476  0.05795  0.31717  1.0000
  H   H2        1.0  0.02466  0.96630  0.32951  1.0000
  C   C4        1.0  0.06688  0.03320  0.32338  1.0000
  H   H3        1.0  0.07380  0.99933  0.24050  1.0000
  H   H4        1.0  0.07325  0.07361  0.40697  1.0000
  C   C5        1.0  0.24867  0.12484  0.33078  1.0000
  C   C6        1.0  0.23135  0.11267  0.24830  1.0000
  C   C7        1.0  0.19541  0.09475  0.24465  1.0000
  C   C8        1.0  0.17587  0.08824  0.32370  1.0000
  N   N1        1.0  0.18066  0.08455  0.16277  1.0000
  C   C9        1.0  0.19806  0.09004  0.08538  1.0000
  C   C10       1.0  0.23344  0.10772  0.08852  1.0000
  N   N2        1.0  0.24838  0.11804  0.16978  1.0000
  H   H5        1.0  0.18549  0.08123  0.02626  1.0000
  O   O1        1.0  0.25186  0.11169  0.01287  1.0000
  H   H6        1.0  0.29355  0.15932  0.04113  1.0000
  C   C11       1.0  0.86741  0.12430  0.31898  1.0000
  C   C12       1.0  0.87895  0.11880  0.23591  1.0000
  C   C13       1.0  0.89666  0.10057  0.23141  1.0000
  C   C14       1.0  0.90356  0.08768  0.31012  1.0000
  N   N3        1.0  0.90622  0.09564  0.14907  1.0000
  C   C15       1.0  0.90031  0.10739  0.07197  1.0000
  C   C16       1.0  0.88285  0.12530  0.07599  1.0000
  N   N4        1.0  0.87314  0.13029  0.15770  1.0000
  H   H7        1.0  0.90866  0.10336  0.01243  1.0000
  O   O2        1.0  0.87850  0.13961  0.00060  1.0000
  H   H8        1.0  0.83058  0.13276  0.02969  1.0000
  C   C17       1.0  0.86855  0.74387  0.32532  1.0000
  C   C18       1.0  0.87116  0.76144  0.24458  1.0000
  C   C19       1.0  0.88873  0.79738  0.24198  1.0000
  C   C20       1.0  0.90408  0.81655  0.32007  1.0000
  N   N5        1.0  0.88960  0.81262  0.16296  1.0000
  C   C21       1.0  0.87525  0.79552  0.08652  1.0000
  C   C22       1.0  0.85881  0.76014  0.08772  1.0000
  N   N6        1.0  0.85723  0.74479  0.16677  1.0000
  H   H9        1.0  0.87652  0.80833  0.02938  1.0000
  O   O3        1.0  0.84260  0.74206  0.01299  1.0000
  H   H10       1.0  0.85022  0.70082  0.02995  1.0000
  C   C23       1.0  0.54795  0.13984  0.26712  1.0000
  C   C24       1.0  0.57755  0.13783  0.26413  1.0000
  H   H11       1.0  0.58769  0.13838  0.20272  1.0000
  H   H12       1.0  0.53774  0.14150  0.20769  1.0000
  C   C25       1.0  0.62812  0.15764  0.01413  1.0000
  H   H13       1.0  0.63584  0.15167  0.07734  1.0000
  H   H14       1.0  0.63076  0.18265  0.02000  1.0000
  C   C26       1.0  0.85291  0.40867  0.26649  1.0000
  C   C27       1.0  0.85477  0.44021  0.26360  1.0000
  H   H15       1.0  0.85418  0.44981  0.20224  1.0000
  H   H16       1.0  0.85123  0.39682  0.20701  1.0000
  C   C28       1.0  0.83411  0.47029  0.01358  1.0000
  H   H17       1.0  0.83993  0.48394  0.07682  1.0000
  H   H18       1.0  0.80919  0.44778  0.01932  1.0000
  C   C29       1.0  0.58349  0.44478  0.26773  1.0000
  C   C30       1.0  0.55190  0.41513  0.26495  1.0000
  H   H19       1.0  0.54224  0.40497  0.20360  1.0000
  H   H20       1.0  0.59529  0.45495  0.20820  1.0000
  C   C31       1.0  0.52171  0.36429  0.01455  1.0000
  H   H21       1.0  0.50818  0.35655  0.07799  1.0000
  H   H22       1.0  0.54401  0.36150  0.01968  1.0000
  C   C32       1.0  0.97616  0.01497  0.31485  1.0000
  C   C33       1.0  0.97638  0.96095  0.31965  1.0000
  C   C34       1.0  0.95905  0.97924  0.31525  1.0000
  C   C35       1.0  0.08543  0.06399  0.37064  1.0000
  C   C36       1.0  0.12096  0.08198  0.37044  1.0000
  C   C37       1.0  0.13966  0.06991  0.32350  1.0000
  C   C38       1.0  0.12125  0.03885  0.27775  1.0000
  C   C39       1.0  0.08574  0.02112  0.27698  1.0000
  C   C40       1.0  0.95785  0.03297  0.31207  1.0000
  C   C41       1.0  0.96981  0.06340  0.26323  1.0000
  C   C42       1.0  0.95218  0.08130  0.26245  1.0000
  C   C43       1.0  0.92142  0.06934  0.30931  1.0000
  C   C44       1.0  0.90932  0.03890  0.35787  1.0000
  C   C45       1.0  0.92718  0.02126  0.35954  1.0000
  C   C46       1.0  0.95840  0.92487  0.32005  1.0000
  C   C47       1.0  0.93072  0.90647  0.37821  1.0000
  C   C48       1.0  0.91306  0.87095  0.37869  1.0000
  C   C49       1.0  0.92212  0.85258  0.31995  1.0000
  C   C50       1.0  0.94978  0.87089  0.26183  1.0000
  C   C51       1.0  0.96770  0.90640  0.26219  1.0000
  H   H23       1.0  0.96245  0.10361  0.22820  1.0000
  H   H24       1.0  0.99157  0.07288  0.22672  1.0000
  H   H25       1.0  0.88716  0.02916  0.39278  1.0000
  H   H26       1.0  0.91767  0.99989  0.39773  1.0000
  H   H27       1.0  0.92344  0.91883  0.42196  1.0000
  H   H28       1.0  0.89312  0.85857  0.42157  1.0000
  H   H29       1.0  0.98734  0.91870  0.21840  1.0000
  H   H30       1.0  0.95737  0.85846  0.21921  1.0000
  H   H31       1.0  0.13357  0.02861  0.24467  1.0000
  H   H32       1.0  0.13311  0.10434  0.40451  1.0000
  H   H33       1.0  0.93332  0.96608  0.30950  1.0000
  C   C52       1.0  0.44729  0.25454  0.35294  1.0000
  C   C53       1.0  0.41164  0.23562  0.35042  1.0000
  C   C54       1.0  0.39368  0.19979  0.35410  1.0000
  C   C55       1.0  0.41281  0.18314  0.35927  1.0000
  C   C56       1.0  0.44847  0.20099  0.36079  1.0000
  C   C57       1.0  0.46487  0.23660  0.36115  1.0000
  C   C58       1.0  0.35743  0.18095  0.34874  1.0000
  C   C59       1.0  0.33723  0.19215  0.39196  1.0000
  C   C60       1.0  0.30177  0.17384  0.38612  1.0000
  C   C61       1.0  0.28480  0.14333  0.33718  1.0000
  C   C62       1.0  0.30485  0.13179  0.29518  1.0000
  C   C63       1.0  0.34029  0.15033  0.30009  1.0000
  C   C64       1.0  0.46595  0.29051  0.34295  1.0000
  C   C65       1.0  0.45855  0.31229  0.39295  1.0000
  C   C66       1.0  0.48019  0.34763  0.39052  1.0000
  C   C67       1.0  0.50994  0.36251  0.33797  1.0000
  C   C68       1.0  0.51613  0.34064  0.28447  1.0000
  C   C69       1.0  0.49446  0.30559  0.28603  1.0000
  C   C70       1.0  0.46800  0.18440  0.35561  1.0000
  C   C71       1.0  0.49654  0.19743  0.29876  1.0000
  C   C72       1.0  0.51750  0.18325  0.29615  1.0000
  C   C73       1.0  0.51055  0.15473  0.34853  1.0000
  C   C74       1.0  0.48125  0.14072  0.40271  1.0000
  C   C75       1.0  0.46033  0.15522  0.40603  1.0000
  H   H34       1.0  0.47460  0.36238  0.43017  1.0000
  H   H35       1.0  0.43845  0.30250  0.43585  1.0000
  H   H36       1.0  0.53767  0.34980  0.24701  1.0000
  H   H37       1.0  0.50070  0.29100  0.24760  1.0000
  H   H38       1.0  0.50285  0.21798  0.25913  1.0000
  H   H39       1.0  0.53868  0.19483  0.25708  1.0000
  H   H40       1.0  0.44007  0.14497  0.44842  1.0000
  H   H41       1.0  0.47510  0.11998  0.44130  1.0000
  H   H42       1.0  0.35347  0.14125  0.26609  1.0000
  H   H43       1.0  0.29379  0.10950  0.26068  1.0000
  H   H44       1.0  0.28838  0.18330  0.41741  1.0000
  H   H45       1.0  0.34816  0.21375  0.42938  1.0000
  H   H46       1.0  0.39867  0.24823  0.34142  1.0000
  H   H47       1.0  0.49062  0.24996  0.36622  1.0000
  H   H48       1.0  0.40060  0.15737  0.36011  1.0000
  C   C76       1.0  0.73807  0.19340  0.35133  1.0000
  C   C77       1.0  0.75692  0.17662  0.34688  1.0000
  C   C78       1.0  0.79276  0.19444  0.34931  1.0000
  C   C79       1.0  0.80950  0.23019  0.35537  1.0000
  C   C80       1.0  0.79170  0.24802  0.35897  1.0000
  C   C81       1.0  0.75610  0.22888  0.36045  1.0000
  C   C82       1.0  0.81148  0.17697  0.34177  1.0000
  C   C83       1.0  0.80052  0.14555  0.38456  1.0000
  C   C84       1.0  0.81873  0.12836  0.37689  1.0000
  C   C85       1.0  0.84890  0.14188  0.32644  1.0000
  C   C86       1.0  0.86014  0.17343  0.28451  1.0000
  C   C87       1.0  0.84171  0.19040  0.29134  1.0000
  C   C88       1.0  0.70210  0.17621  0.34178  1.0000
  C   C89       1.0  0.68032  0.14693  0.39135  1.0000
  C   C90       1.0  0.64499  0.13330  0.38917  1.0000
  C   C91       1.0  0.63012  0.14829  0.33701  1.0000
  C   C92       1.0  0.65202  0.17651  0.28404  1.0000
  C   C93       1.0  0.68706  0.18985  0.28542  1.0000
  C   C94       1.0  0.80830  0.28414  0.35415  1.0000
  C   C95       1.0  0.79515  0.29968  0.29787  1.0000
  C   C96       1.0  0.80935  0.33483  0.29548  1.0000
  C   C97       1.0  0.83795  0.35633  0.34766  1.0000
  C   C98       1.0  0.85203  0.34100  0.40145  1.0000
  C   C99       1.0  0.83754  0.30558  0.40443  1.0000
  H   H49       1.0  0.63021  0.11284  0.42841  1.0000
  H   H50       1.0  0.69011  0.13648  0.43379  1.0000
  H   H51       1.0  0.64287  0.18900  0.24698  1.0000
  H   H52       1.0  0.70166  0.21079  0.24739  1.0000
  H   H53       1.0  0.77451  0.28547  0.25847  1.0000
  H   H54       1.0  0.79770  0.34448  0.25686  1.0000
  H   H55       1.0  0.84787  0.29552  0.44635  1.0000
  H   H56       1.0  0.87281  0.35557  0.43991  1.0000
  H   H57       1.0  0.85057  0.21269  0.25765  1.0000
  H   H58       1.0  0.88218  0.18462  0.24889  1.0000
  H   H59       1.0  0.80949  0.10554  0.40818  1.0000
  H   H60       1.0  0.77921  0.13492  0.42317  1.0000
  H   H61       1.0  0.74422  0.15108  0.33708  1.0000
  H   H62       1.0  0.74280  0.24130  0.36664  1.0000
  H   H63       1.0  0.83529  0.24371  0.35521  1.0000
  C   C100      1.0  0.79886  0.54489  0.35081  1.0000
  C   C101      1.0  0.81567  0.58052  0.34691  1.0000
  C   C102      1.0  0.79799  0.59868  0.35077  1.0000
  C   C103      1.0  0.76223  0.57964  0.35729  1.0000
  C   C104      1.0  0.74431  0.54398  0.35967  1.0000
  C   C105      1.0  0.76339  0.52746  0.36007  1.0000
  C   C106      1.0  0.81559  0.63497  0.34442  1.0000
  C   C107      1.0  0.84781  0.65516  0.38365  1.0000
  C   C108      1.0  0.86515  0.69060  0.37685  1.0000
  C   C109      1.0  0.85097  0.70769  0.33131  1.0000
  C   C110      1.0  0.81855  0.68766  0.29350  1.0000
  C   C111      1.0  0.80153  0.65223  0.29885  1.0000
  C   C112      1.0  0.81606  0.52612  0.34114  1.0000
  C   C113      1.0  0.84532  0.53363  0.39086  1.0000
  C   C114      1.0  0.85902  0.51200  0.38865  1.0000
  C   C115      1.0  0.84405  0.48214  0.33656  1.0000
  C   C116      1.0  0.81581  0.47574  0.28358  1.0000
  C   C117      1.0  0.80241  0.49740  0.28496  1.0000
  C   C118      1.0  0.70816  0.52453  0.35500  1.0000
  C   C119      1.0  0.69252  0.49595  0.29833  1.0000
  C   C120      1.0  0.65736  0.47506  0.29603  1.0000
  C   C121      1.0  0.63592  0.48212  0.34864  1.0000
  C   C122      1.0  0.65135  0.51144  0.40274  1.0000
  C   C123      1.0  0.68679  0.53231  0.40567  1.0000
  H   H64       1.0  0.87950  0.51772  0.42787  1.0000
  H   H65       1.0  0.85581  0.55393  0.43310  1.0000
  H   H66       1.0  0.80331  0.45407  0.24668  1.0000
  H   H67       1.0  0.78145  0.49102  0.24698  1.0000
  H   H68       1.0  0.70666  0.48957  0.25850  1.0000
  H   H69       1.0  0.64765  0.45385  0.25703  1.0000
  H   H70       1.0  0.69690  0.55260  0.44792  1.0000
  H   H71       1.0  0.63685  0.51765  0.44151  1.0000
  H   H72       1.0  0.77866  0.63915  0.26767  1.0000
  H   H73       1.0  0.80670  0.69872  0.26207  1.0000
  H   H74       1.0  0.88856  0.70388  0.40526  1.0000
  H   H75       1.0  0.85900  0.64428  0.41906  1.0000
  H   H76       1.0  0.84118  0.59328  0.33670  1.0000
  H   H77       1.0  0.75093  0.50172  0.36579  1.0000
  H   H78       1.0  0.74870  0.59188  0.35846  1.0000
  C   C124      1.0  0.19343  0.10047  0.40543  1.0000
  C   C125      1.0  0.22887  0.11838  0.40880  1.0000
  H   H79       1.0  0.24016  0.12610  0.46998  1.0000
  H   H80       1.0  0.18048  0.09588  0.46439  1.0000
  C   C126      1.0  0.27461  0.14623  0.65578  1.0000
  H   H81       1.0  0.28774  0.14649  0.59466  1.0000
  H   H82       1.0  0.26100  0.15971  0.64294  1.0000
  C   C127      1.0  0.89214  0.09359  0.39247  1.0000
  C   C128      1.0  0.87445  0.11131  0.39673  1.0000
  H   H83       1.0  0.86725  0.11520  0.45831  1.0000
  H   H84       1.0  0.89710  0.08543  0.45125  1.0000
  C   C129      1.0  0.84382  0.12729  0.64400  1.0000
  H   H85       1.0  0.84323  0.14011  0.58313  1.0000
  H   H86       1.0  0.83070  0.10020  0.63088  1.0000
  C   C130      1.0  0.90121  0.79896  0.40020  1.0000
  C   C131      1.0  0.88401  0.76352  0.40253  1.0000
  H   H87       1.0  0.88249  0.75211  0.46249  1.0000
  H   H88       1.0  0.91208  0.81190  0.45794  1.0000
  C   C132      1.0  0.85478  0.72048  0.64776  1.0000
  H   H89       1.0  0.84104  0.70816  0.58679  1.0000
  H   H90       1.0  0.88158  0.73482  0.63195  1.0000
  C   C133      1.0  0.59521  0.13907  0.34306  1.0000
  C   C134      1.0  0.57961  0.13810  0.42603  1.0000
  C   C135      1.0  0.54963  0.14034  0.42915  1.0000
  C   C136      1.0  0.53448  0.14317  0.34919  1.0000
  N   N7        1.0  0.53722  0.14133  0.51121  1.0000
  C   C137      1.0  0.55107  0.13930  0.58941  1.0000
  C   C138      1.0  0.58049  0.13698  0.58683  1.0000
  N   N8        1.0  0.59340  0.13658  0.50534  1.0000
  H   H91       1.0  0.54011  0.13940  0.64881  1.0000
  O   O4        1.0  0.59369  0.13234  0.66402  1.0000
  H   H92       1.0  0.64491  0.15795  0.62852  1.0000
  C   C139      1.0  0.85338  0.45653  0.34256  1.0000
  C   C140      1.0  0.85432  0.44187  0.42551  1.0000
  C   C141      1.0  0.85220  0.40970  0.42855  1.0000
  C   C142      1.0  0.84952  0.39182  0.34851  1.0000
  N   N9        1.0  0.85114  0.39623  0.51055  1.0000
  C   C143      1.0  0.85300  0.41202  0.58880  1.0000
  C   C144      1.0  0.85519  0.44370  0.58632  1.0000
  N   N10       1.0  0.85565  0.45706  0.50487  1.0000
  H   H93       1.0  0.85285  0.40091  0.64819  1.0000
  O   O5        1.0  0.85963  0.46145  0.66358  1.0000
  H   H94       1.0  0.83368  0.48671  0.62798  1.0000
  C   C145      1.0  0.53562  0.39744  0.34396  1.0000
  C   C146      1.0  0.55038  0.41302  0.42684  1.0000
  C   C147      1.0  0.58257  0.44303  0.42976  1.0000
  C   C148      1.0  0.60041  0.45825  0.34968  1.0000
  N   N11       1.0  0.59611  0.45542  0.51172  1.0000
  C   C149      1.0  0.58038  0.44151  0.59003  1.0000
  C   C150      1.0  0.54866  0.41205  0.58767  1.0000
  N   N12       1.0  0.53523  0.39918  0.50626  1.0000
  H   H95       1.0  0.59153  0.45246  0.64937  1.0000
  O   O6        1.0  0.53098  0.39880  0.66506  1.0000
  H   H96       1.0  0.50504  0.34763  0.62904  1.0000
