data_image0
_chemical_formula_structural       C2HC2NHNO2CHC2HC2NHNO2CHC2HC2NHNO2CHC6H3N3C6H3N3C2NC4H2NO2CHC2NC4H2NO2CHC2NC4H2NO2CH
_chemical_formula_sum              "C48 H24 N18 O12"
_cell_length_a       29.3841
_cell_length_b       29.384
_cell_length_c       14.9925
_cell_angle_alpha    90
_cell_angle_beta     90
_cell_angle_gamma    120

_space_group_name_H-M_alt    "P 1"
_space_group_IT_number       1

loop_
  _space_group_symop_operation_xyz
  'x, y, z'

loop_
  _atom_site_type_symbol
  _atom_site_label
  _atom_site_symmetry_multiplicity
  _atom_site_fract_x
  _atom_site_fract_y
  _atom_site_fract_z
  _atom_site_occupancy
  C   C1        1.0  0.56128  0.49838  0.28684  1.0000
  C   C2        1.0  0.57871  0.46147  0.29467  1.0000
  H   H1        1.0  0.60982  0.46665  0.25643  1.0000
  C   C3        1.0  0.45065  0.58904  0.31489  1.0000
  C   C4        1.0  0.47001  0.57348  0.24199  1.0000
  N   N1        1.0  0.49111  0.54229  0.25544  1.0000
  H   H2        1.0  0.46815  0.58493  0.17830  1.0000
  N   N2        1.0  0.58709  0.54247  0.22977  1.0000
  O   O1        1.0  0.58515  0.52869  0.14987  1.0000
  O   O2        1.0  0.63440  0.57132  0.25151  1.0000
  C   C5        1.0  0.43002  0.62176  0.30208  1.0000
  H   H3        1.0  0.44679  0.65065  0.25749  1.0000
  C   C6        1.0  0.50224  0.06304  0.28684  1.0000
  C   C7        1.0  0.53916  0.11739  0.29467  1.0000
  H   H4        1.0  0.53398  0.14332  0.25644  1.0000
  C   C8        1.0  0.41161  0.86175  0.31484  1.0000
  C   C9        1.0  0.42714  0.89668  0.24195  1.0000
  N   N3        1.0  0.45834  0.94897  0.25541  1.0000
  H   H5        1.0  0.41569  0.88337  0.17826  1.0000
  N   N4        1.0  0.45815  0.04476  0.22978  1.0000
  O   O3        1.0  0.47193  0.05660  0.14988  1.0000
  O   O4        1.0  0.42930  0.06322  0.25153  1.0000
  C   C10       1.0  0.37886  0.80840  0.30202  1.0000
  H   H6        1.0  0.34996  0.79629  0.25746  1.0000
  C   C11       1.0  0.93759  0.43931  0.28684  1.0000
  C   C12       1.0  0.88325  0.42189  0.29465  1.0000
  H   H7        1.0  0.85732  0.39079  0.25640  1.0000
  C   C13       1.0  0.13888  0.54997  0.31483  1.0000
  C   C14       1.0  0.10395  0.53057  0.24195  1.0000
  N   N5        1.0  0.05166  0.50948  0.25541  1.0000
  H   H8        1.0  0.11725  0.53242  0.17826  1.0000
  N   N6        1.0  0.95587  0.41351  0.22976  1.0000
  O   O5        1.0  0.94404  0.41546  0.14986  1.0000
  O   O6        1.0  0.93740  0.36620  0.25150  1.0000
  C   C15       1.0  0.19224  0.57060  0.30200  1.0000
  H   H9        1.0  0.20434  0.55377  0.25751  1.0000
  C   C16       1.0  0.36285  0.64035  0.33973  1.0000
  C   C17       1.0  0.30746  0.61172  0.34065  1.0000
  C   C18       1.0  0.27800  0.63777  0.33960  1.0000
  C   C19       1.0  0.30476  0.69317  0.34058  1.0000
  C   C20       1.0  0.36028  0.72263  0.33960  1.0000
  C   C21       1.0  0.38890  0.69587  0.34063  1.0000
  H   H10       1.0  0.28365  0.71227  0.34269  1.0000
  H   H11       1.0  0.42912  0.71698  0.34280  1.0000
  H   H12       1.0  0.28835  0.57151  0.34280  1.0000
  N   N7        1.0  0.38836  0.61374  0.34357  1.0000
  N   N8        1.0  0.22588  0.61228  0.34345  1.0000
  N   N9        1.0  0.38689  0.77474  0.34346  1.0000
  C   C22       1.0  0.63926  0.36163  0.33968  1.0000
  C   C23       1.0  0.69467  0.38875  0.33892  1.0000
  C   C24       1.0  0.72287  0.36137  0.33959  1.0000
  C   C25       1.0  0.69458  0.30596  0.33892  1.0000
  C   C26       1.0  0.63900  0.27776  0.33968  1.0000
  C   C27       1.0  0.61188  0.30605  0.33895  1.0000
  H   H13       1.0  0.71479  0.28596  0.33706  1.0000
  H   H14       1.0  0.57167  0.28584  0.33712  1.0000
  H   H15       1.0  0.71467  0.42897  0.33706  1.0000
  N   N10       1.0  0.61589  0.39042  0.33756  1.0000
  N   N11       1.0  0.77502  0.38473  0.33750  1.0000
  N   N12       1.0  0.61021  0.22561  0.33757  1.0000
  C   C28       1.0  0.55410  0.41801  0.35330  1.0000
  C   C29       1.0  0.51123  0.41298  0.40366  1.0000
  N   N13       1.0  0.49532  0.44876  0.39510  1.0000
  C   C30       1.0  0.51813  0.49114  0.33996  1.0000
  C   C31       1.0  0.49604  0.52453  0.33666  1.0000
  C   C32       1.0  0.47753  0.53913  0.41287  1.0000
  C   C33       1.0  0.45498  0.57149  0.40055  1.0000
  H   H16       1.0  0.44236  0.58293  0.45533  1.0000
  H   H17       1.0  0.49142  0.38250  0.44724  1.0000
  N   N14       1.0  0.48363  0.52338  0.49918  1.0000
  O   O7        1.0  0.44004  0.49664  0.53732  1.0000
  O   O8        1.0  0.51251  0.56230  0.54735  1.0000
  C   C34       1.0  0.56989  0.38081  0.36150  1.0000
  H   H18       1.0  0.54533  0.34627  0.38914  1.0000
  C   C35       1.0  0.58262  0.13623  0.35330  1.0000
  C   C36       1.0  0.58766  0.09838  0.40364  1.0000
  N   N15       1.0  0.55187  0.04669  0.39508  1.0000
  C   C37       1.0  0.50949  0.02713  0.33994  1.0000
  C   C38       1.0  0.47610  0.97165  0.33663  1.0000
  C   C39       1.0  0.46150  0.93852  0.41283  1.0000
  C   C40       1.0  0.42916  0.88361  0.40050  1.0000
  H   H19       1.0  0.41771  0.85956  0.45528  1.0000
  H   H20       1.0  0.61814  0.10905  0.44721  1.0000
  N   N16       1.0  0.47724  0.96038  0.49914  1.0000
  O   O9        1.0  0.50399  0.94354  0.53729  1.0000
  O   O10       1.0  0.43832  0.95032  0.54732  1.0000
  C   C41       1.0  0.61982  0.18922  0.36150  1.0000
  H   H21       1.0  0.65436  0.19918  0.38910  1.0000
  C   C42       1.0  0.86440  0.44652  0.35326  1.0000
  C   C43       1.0  0.90224  0.48939  0.40362  1.0000
  N   N17       1.0  0.95394  0.50530  0.39508  1.0000
  C   C44       1.0  0.97349  0.48246  0.33995  1.0000
  C   C45       1.0  0.02899  0.50458  0.33663  1.0000
  C   C46       1.0  0.06211  0.52310  0.41283  1.0000
  C   C47       1.0  0.11702  0.54568  0.40050  1.0000
  H   H22       1.0  0.14108  0.55828  0.45527  1.0000
  H   H23       1.0  0.89158  0.50922  0.44717  1.0000
  N   N18       1.0  0.04026  0.51701  0.49914  1.0000
  O   O11       1.0  0.05710  0.56060  0.53728  1.0000
  O   O12       1.0  0.05032  0.48815  0.54733  1.0000
  C   C48       1.0  0.81142  0.43074  0.36143  1.0000
  H   H24       1.0  0.80145  0.45532  0.38902  1.0000
