data_image0
_chemical_formula_structural       C6H4C4H2C4HNH2C6H2C6H4NH2NHC19H12C4H3NH3C6H4C4H2C4HNH2C6H2C6H4NH2NHC19H12C4H3NH3C6H4C4H2C4HNH2C6H2C6H4NH2NHC19H12C4H3NH3C6H4C4H2C4HNH2C6H2C6H4NH2NHC19H12C4H3NH3
_chemical_formula_sum              "C196 H144 N16"
_cell_length_a       32.787
_cell_length_b       32.7874
_cell_length_c       15.0105
_cell_angle_alpha    90
_cell_angle_beta     90
_cell_angle_gamma    90.0514

_space_group_name_H-M_alt    "P 1"
_space_group_IT_number       1

loop_
  _space_group_symop_operation_xyz
  'x, y, z'

loop_
  _atom_site_type_symbol
  _atom_site_label
  _atom_site_symmetry_multiplicity
  _atom_site_fract_x
  _atom_site_fract_y
  _atom_site_fract_z
  _atom_site_occupancy
  C   C1        1.0  0.08702  0.03066  0.04988  1.0000
  C   C2        1.0  0.10229  0.49218  0.07605  1.0000
  C   C3        1.0  0.07967  0.45715  0.05224  1.0000
  C   C4        1.0  0.40863  0.46563  0.04050  1.0000
  C   C5        1.0  0.39351  0.00312  0.07352  1.0000
  C   C6        1.0  0.41588  0.03882  0.05330  1.0000
  H   H1        1.0  0.10252  0.05683  0.06536  1.0000
  H   H2        1.0  0.08946  0.42871  0.07053  1.0000
  H   H3        1.0  0.39343  0.43891  0.05244  1.0000
  H   H4        1.0  0.40666  0.06658  0.07706  1.0000
  C   C7        1.0  0.49174  0.14608  0.33799  1.0000
  C   C8        1.0  0.49488  0.23055  0.29195  1.0000
  C   C9        1.0  0.02389  0.20283  0.25769  1.0000
  C   C10       1.0  0.02213  0.16120  0.27984  1.0000
  H   H5        1.0  0.04835  0.21321  0.22179  1.0000
  H   H6        1.0  0.04495  0.14253  0.25759  1.0000
  C   C11       1.0  0.50443  0.27284  0.29065  1.0000
  C   C12       1.0  0.51063  0.35713  0.33405  1.0000
  C   C13       1.0  0.98538  0.34379  0.26330  1.0000
  C   C14       1.0  0.48181  0.30195  0.24056  1.0000
  H   H7        1.0  0.96753  0.36471  0.23098  1.0000
  N   N1        1.0  0.45555  0.29068  0.17488  1.0000
  H   H8        1.0  0.45280  0.26240  0.15645  1.0000
  H   H9        1.0  0.94032  0.31090  0.14102  1.0000
  C   C15       1.0  0.35412  0.50528  0.11423  1.0000
  C   C16       1.0  0.33983  0.47471  0.17318  1.0000
  C   C17       1.0  0.29795  0.47083  0.19510  1.0000
  C   C18       1.0  0.26983  0.49926  0.15828  1.0000
  C   C19       1.0  0.28448  0.03200  0.10613  1.0000
  C   C20       1.0  0.32593  0.03489  0.08438  1.0000
  H   H10       1.0  0.26459  0.05147  0.07508  1.0000
  H   H11       1.0  0.33424  0.05635  0.03829  1.0000
  C   C21       1.0  0.22750  0.49077  0.15052  1.0000
  C   C22       1.0  0.19953  0.51504  0.19868  1.0000
  C   C23       1.0  0.15766  0.51399  0.17850  1.0000
  C   C24       1.0  0.14266  0.48844  0.11018  1.0000
  C   C25       1.0  0.17070  0.96315  0.06462  1.0000
  C   C26       1.0  0.21303  0.46423  0.08223  1.0000
  H   H12       1.0  0.20973  0.53560  0.24498  1.0000
  H   H13       1.0  0.13845  0.53350  0.21119  1.0000
  H   H14       1.0  0.16065  0.94601  0.01189  1.0000
  H   H15       1.0  0.35984  0.45310  0.19579  1.0000
  N   N2        1.0  0.28558  0.43887  0.24623  1.0000
  H   H16       1.0  0.30506  0.41938  0.27033  1.0000
  H   H17       1.0  0.25719  0.43539  0.26332  1.0000
  N   N3        1.0  0.23802  0.44141  0.02946  1.0000
  H   H18       1.0  0.26743  0.44154  0.03636  1.0000
  C   C27       1.0  0.50747  0.39705  0.37100  1.0000
  C   C28       1.0  0.46900  0.41305  0.39515  1.0000
  C   C29       1.0  0.46605  0.44708  0.45186  1.0000
  C   C30       1.0  0.50119  0.46546  0.48995  1.0000
  C   C31       1.0  0.03939  0.45252  0.45512  1.0000
  C   C32       1.0  0.04263  0.41853  0.39862  1.0000
  C   C33       1.0  0.49874  0.00023  0.55754  1.0000
  C   C34       1.0  0.49788  0.03651  0.49380  1.0000
  C   C35       1.0  0.03381  0.05592  0.46247  1.0000
  C   C36       1.0  0.03212  0.09077  0.40792  1.0000
  C   C37       1.0  0.49437  0.10636  0.37738  1.0000
  C   C38       1.0  0.45888  0.08368  0.39797  1.0000
  C   C39       1.0  0.46070  0.04950  0.45427  1.0000
  C   C40       1.0  0.46250  0.00055  0.62143  1.0000
  C   C41       1.0  0.03343  0.49830  0.62538  1.0000
  C   C42       1.0  0.05260  0.03356  0.66093  1.0000
  C   C43       1.0  0.04560  0.46033  0.66266  1.0000
  C   C44       1.0  0.44296  0.46438  0.65109  1.0000
  C   C45       1.0  0.44975  0.03741  0.66273  1.0000
  H   H19       1.0  0.04328  0.06202  0.64225  1.0000
  H   H20       1.0  0.03140  0.43390  0.64410  1.0000
  H   H21       1.0  0.45247  0.43649  0.62911  1.0000
  H   H22       1.0  0.46414  0.06430  0.64846  1.0000
  H   H23       1.0  0.43389  0.03513  0.46931  1.0000
  H   H24       1.0  0.43091  0.09293  0.37544  1.0000
  H   H25       1.0  0.05879  0.10589  0.39515  1.0000
  H   H26       1.0  0.06188  0.04610  0.48270  1.0000
  H   H27       1.0  0.06586  0.46617  0.47538  1.0000
  H   H28       1.0  0.43756  0.45686  0.46911  1.0000
  H   H29       1.0  0.44270  0.39826  0.37750  1.0000
  H   H30       1.0  0.07108  0.40832  0.38157  1.0000
  C   C46       1.0  0.46143  0.17371  0.36749  1.0000
  C   C47       1.0  0.46249  0.21574  0.34641  1.0000
  C   C48       1.0  0.53168  0.28636  0.35732  1.0000
  C   C49       1.0  0.53475  0.32784  0.37857  1.0000
  H   H31       1.0  0.54676  0.26586  0.39696  1.0000
  H   H32       1.0  0.55186  0.33577  0.43297  1.0000
  H   H33       1.0  0.44001  0.16397  0.41235  1.0000
  N   N4        1.0  0.43376  0.24047  0.38369  1.0000
  H   H34       1.0  0.41219  0.22953  0.42139  1.0000
  H   H35       1.0  0.43304  0.26959  0.37258  1.0000
  H   H36       1.0  0.22717  0.92413  0.64899  1.0000
  C   C50       1.0  0.08703  0.53066  0.04988  1.0000
  C   C51       1.0  0.10229  0.99218  0.07605  1.0000
  C   C52       1.0  0.07967  0.95715  0.05224  1.0000
  C   C53       1.0  0.40862  0.96563  0.04050  1.0000
  C   C54       1.0  0.39351  0.50312  0.07352  1.0000
  C   C55       1.0  0.41588  0.53882  0.05330  1.0000
  H   H37       1.0  0.10252  0.55683  0.06536  1.0000
  H   H38       1.0  0.08946  0.92871  0.07053  1.0000
  H   H39       1.0  0.39343  0.93892  0.05244  1.0000
  H   H40       1.0  0.40666  0.56658  0.07706  1.0000
  C   C56       1.0  0.49174  0.64608  0.33799  1.0000
  C   C57       1.0  0.49488  0.73054  0.29195  1.0000
  C   C58       1.0  0.02389  0.70283  0.25769  1.0000
  C   C59       1.0  0.02213  0.66121  0.27984  1.0000
  H   H41       1.0  0.04835  0.71321  0.22179  1.0000
  H   H42       1.0  0.04495  0.64253  0.25759  1.0000
  C   C60       1.0  0.50443  0.77284  0.29065  1.0000
  C   C61       1.0  0.51063  0.85713  0.33405  1.0000
  C   C62       1.0  0.98538  0.84380  0.26330  1.0000
  C   C63       1.0  0.48181  0.80195  0.24056  1.0000
  H   H43       1.0  0.96753  0.86471  0.23098  1.0000
  N   N5        1.0  0.45554  0.79068  0.17488  1.0000
  H   H44       1.0  0.45280  0.76240  0.15645  1.0000
  H   H45       1.0  0.94031  0.81090  0.14102  1.0000
  C   C64       1.0  0.35412  0.00528  0.11423  1.0000
  C   C65       1.0  0.33983  0.97471  0.17318  1.0000
  C   C66       1.0  0.29795  0.97083  0.19510  1.0000
  C   C67       1.0  0.26983  0.99926  0.15828  1.0000
  C   C68       1.0  0.28448  0.53200  0.10613  1.0000
  C   C69       1.0  0.32593  0.53489  0.08438  1.0000
  H   H46       1.0  0.26459  0.55147  0.07508  1.0000
  H   H47       1.0  0.33424  0.55635  0.03829  1.0000
  C   C70       1.0  0.22750  0.99077  0.15052  1.0000
  C   C71       1.0  0.19953  0.01504  0.19868  1.0000
  C   C72       1.0  0.15766  0.01399  0.17850  1.0000
  C   C73       1.0  0.14266  0.98844  0.11018  1.0000
  C   C74       1.0  0.17070  0.46315  0.06462  1.0000
  C   C75       1.0  0.21303  0.96423  0.08223  1.0000
  H   H48       1.0  0.20973  0.03560  0.24498  1.0000
  H   H49       1.0  0.13845  0.03350  0.21119  1.0000
  H   H50       1.0  0.16065  0.44601  0.01189  1.0000
  H   H51       1.0  0.35985  0.95310  0.19579  1.0000
  N   N6        1.0  0.28558  0.93887  0.24623  1.0000
  H   H52       1.0  0.30506  0.91938  0.27033  1.0000
  H   H53       1.0  0.25720  0.93539  0.26332  1.0000
  N   N7        1.0  0.23802  0.94141  0.02946  1.0000
  H   H54       1.0  0.26743  0.94154  0.03636  1.0000
  C   C76       1.0  0.50748  0.89705  0.37101  1.0000
  C   C77       1.0  0.46900  0.91305  0.39515  1.0000
  C   C78       1.0  0.46605  0.94708  0.45186  1.0000
  C   C79       1.0  0.50119  0.96545  0.48995  1.0000
  C   C80       1.0  0.03939  0.95252  0.45512  1.0000
  C   C81       1.0  0.04263  0.91853  0.39862  1.0000
  C   C82       1.0  0.49874  0.50023  0.55754  1.0000
  C   C83       1.0  0.49788  0.53651  0.49380  1.0000
  C   C84       1.0  0.03381  0.55592  0.46247  1.0000
  C   C85       1.0  0.03212  0.59077  0.40792  1.0000
  C   C86       1.0  0.49437  0.60635  0.37738  1.0000
  C   C87       1.0  0.45888  0.58368  0.39797  1.0000
  C   C88       1.0  0.46070  0.54950  0.45426  1.0000
  C   C89       1.0  0.46250  0.50055  0.62142  1.0000
  C   C90       1.0  0.03343  0.99829  0.62538  1.0000
  C   C91       1.0  0.05260  0.53356  0.66093  1.0000
  C   C92       1.0  0.04560  0.96034  0.66266  1.0000
  C   C93       1.0  0.44296  0.96438  0.65109  1.0000
  C   C94       1.0  0.44975  0.53741  0.66273  1.0000
  H   H55       1.0  0.04328  0.56202  0.64225  1.0000
  H   H56       1.0  0.03140  0.93390  0.64410  1.0000
  H   H57       1.0  0.45247  0.93649  0.62911  1.0000
  H   H58       1.0  0.46414  0.56430  0.64846  1.0000
  H   H59       1.0  0.43389  0.53513  0.46930  1.0000
  H   H60       1.0  0.43092  0.59293  0.37544  1.0000
  H   H61       1.0  0.05879  0.60589  0.39515  1.0000
  H   H62       1.0  0.06188  0.54610  0.48270  1.0000
  H   H63       1.0  0.06586  0.96618  0.47538  1.0000
  H   H64       1.0  0.43756  0.95686  0.46911  1.0000
  H   H65       1.0  0.44270  0.89826  0.37750  1.0000
  H   H66       1.0  0.07108  0.90832  0.38158  1.0000
  C   C95       1.0  0.46143  0.67371  0.36749  1.0000
  C   C96       1.0  0.46249  0.71574  0.34641  1.0000
  C   C97       1.0  0.53168  0.78637  0.35732  1.0000
  C   C98       1.0  0.53475  0.82784  0.37858  1.0000
  H   H67       1.0  0.54676  0.76586  0.39696  1.0000
  H   H68       1.0  0.55186  0.83577  0.43297  1.0000
  H   H69       1.0  0.44001  0.66397  0.41235  1.0000
  N   N8        1.0  0.43376  0.74046  0.38370  1.0000
  H   H70       1.0  0.41219  0.72953  0.42139  1.0000
  H   H71       1.0  0.43304  0.76959  0.37258  1.0000
  H   H72       1.0  0.22717  0.42413  0.64899  1.0000
  C   C99       1.0  0.58703  0.03066  0.04988  1.0000
  C   C100      1.0  0.60229  0.49218  0.07605  1.0000
  C   C101      1.0  0.57967  0.45715  0.05224  1.0000
  C   C102      1.0  0.90862  0.46563  0.04050  1.0000
  C   C103      1.0  0.89351  0.00312  0.07352  1.0000
  C   C104      1.0  0.91588  0.03882  0.05330  1.0000
  H   H73       1.0  0.60252  0.05683  0.06536  1.0000
  H   H74       1.0  0.58946  0.42871  0.07053  1.0000
  H   H75       1.0  0.89343  0.43891  0.05244  1.0000
  H   H76       1.0  0.90666  0.06658  0.07706  1.0000
  C   C105      1.0  0.99174  0.14608  0.33799  1.0000
  C   C106      1.0  0.99487  0.23055  0.29195  1.0000
  C   C107      1.0  0.52389  0.20283  0.25769  1.0000
  C   C108      1.0  0.52213  0.16120  0.27984  1.0000
  H   H77       1.0  0.54835  0.21321  0.22179  1.0000
  H   H78       1.0  0.54495  0.14253  0.25759  1.0000
  C   C109      1.0  0.00443  0.27284  0.29065  1.0000
  C   C110      1.0  0.01063  0.35713  0.33405  1.0000
  C   C111      1.0  0.48538  0.34379  0.26330  1.0000
  C   C112      1.0  0.98181  0.30195  0.24056  1.0000
  H   H79       1.0  0.46753  0.36471  0.23098  1.0000
  N   N9        1.0  0.95555  0.29068  0.17488  1.0000
  H   H80       1.0  0.95280  0.26240  0.15645  1.0000
  H   H81       1.0  0.44031  0.31090  0.14102  1.0000
  C   C113      1.0  0.85412  0.50528  0.11423  1.0000
  C   C114      1.0  0.83983  0.47471  0.17318  1.0000
  C   C115      1.0  0.79795  0.47083  0.19510  1.0000
  C   C116      1.0  0.76983  0.49926  0.15828  1.0000
  C   C117      1.0  0.78448  0.03200  0.10613  1.0000
  C   C118      1.0  0.82593  0.03489  0.08438  1.0000
  H   H82       1.0  0.76459  0.05147  0.07508  1.0000
  H   H83       1.0  0.83423  0.05635  0.03829  1.0000
  C   C119      1.0  0.72750  0.49077  0.15052  1.0000
  C   C120      1.0  0.69953  0.51504  0.19868  1.0000
  C   C121      1.0  0.65766  0.51399  0.17850  1.0000
  C   C122      1.0  0.64266  0.48844  0.11018  1.0000
  C   C123      1.0  0.67070  0.96315  0.06462  1.0000
  C   C124      1.0  0.71303  0.46423  0.08223  1.0000
  H   H84       1.0  0.70973  0.53560  0.24498  1.0000
  H   H85       1.0  0.63845  0.53350  0.21119  1.0000
  H   H86       1.0  0.66065  0.94601  0.01189  1.0000
  H   H87       1.0  0.85984  0.45310  0.19579  1.0000
  N   N10       1.0  0.78558  0.43887  0.24623  1.0000
  H   H88       1.0  0.80506  0.41938  0.27033  1.0000
  H   H89       1.0  0.75720  0.43539  0.26332  1.0000
  N   N11       1.0  0.73803  0.44141  0.02946  1.0000
  H   H90       1.0  0.76743  0.44154  0.03636  1.0000
  C   C125      1.0  0.00747  0.39705  0.37100  1.0000
  C   C126      1.0  0.96900  0.41305  0.39515  1.0000
  C   C127      1.0  0.96606  0.44708  0.45186  1.0000
  C   C128      1.0  0.00120  0.46546  0.48995  1.0000
  C   C129      1.0  0.53939  0.45252  0.45512  1.0000
  C   C130      1.0  0.54263  0.41853  0.39862  1.0000
  C   C131      1.0  0.99874  0.00023  0.55754  1.0000
  C   C132      1.0  0.99788  0.03651  0.49380  1.0000
  C   C133      1.0  0.53381  0.05592  0.46247  1.0000
  C   C134      1.0  0.53212  0.09077  0.40792  1.0000
  C   C135      1.0  0.99437  0.10636  0.37738  1.0000
  C   C136      1.0  0.95888  0.08368  0.39797  1.0000
  C   C137      1.0  0.96071  0.04950  0.45427  1.0000
  C   C138      1.0  0.96250  0.00055  0.62143  1.0000
  C   C139      1.0  0.53343  0.49830  0.62538  1.0000
  C   C140      1.0  0.55261  0.03356  0.66093  1.0000
  C   C141      1.0  0.54560  0.46033  0.66266  1.0000
  C   C142      1.0  0.94296  0.46438  0.65109  1.0000
  C   C143      1.0  0.94975  0.03741  0.66273  1.0000
  H   H91       1.0  0.54328  0.06202  0.64225  1.0000
  H   H92       1.0  0.53140  0.43390  0.64410  1.0000
  H   H93       1.0  0.95247  0.43649  0.62911  1.0000
  H   H94       1.0  0.96414  0.06430  0.64846  1.0000
  H   H95       1.0  0.93390  0.03513  0.46931  1.0000
  H   H96       1.0  0.93092  0.09293  0.37544  1.0000
  H   H97       1.0  0.55879  0.10589  0.39515  1.0000
  H   H98       1.0  0.56188  0.04610  0.48270  1.0000
  H   H99       1.0  0.56586  0.46617  0.47538  1.0000
  H   H100      1.0  0.93756  0.45686  0.46911  1.0000
  H   H101      1.0  0.94270  0.39826  0.37750  1.0000
  H   H102      1.0  0.57109  0.40832  0.38157  1.0000
  C   C144      1.0  0.96143  0.17371  0.36749  1.0000
  C   C145      1.0  0.96249  0.21574  0.34641  1.0000
  C   C146      1.0  0.03168  0.28636  0.35732  1.0000
  C   C147      1.0  0.03475  0.32784  0.37857  1.0000
  H   H103      1.0  0.04676  0.26586  0.39696  1.0000
  H   H104      1.0  0.05186  0.33577  0.43297  1.0000
  H   H105      1.0  0.94001  0.16397  0.41235  1.0000
  N   N12       1.0  0.93376  0.24047  0.38369  1.0000
  H   H106      1.0  0.91220  0.22953  0.42139  1.0000
  H   H107      1.0  0.93304  0.26959  0.37258  1.0000
  H   H108      1.0  0.72717  0.92413  0.64899  1.0000
  C   C148      1.0  0.58703  0.53066  0.04988  1.0000
  C   C149      1.0  0.60229  0.99218  0.07605  1.0000
  C   C150      1.0  0.57967  0.95715  0.05224  1.0000
  C   C151      1.0  0.90863  0.96563  0.04050  1.0000
  C   C152      1.0  0.89351  0.50312  0.07352  1.0000
  C   C153      1.0  0.91588  0.53882  0.05330  1.0000
  H   H109      1.0  0.60252  0.55683  0.06536  1.0000
  H   H110      1.0  0.58946  0.92871  0.07053  1.0000
  H   H111      1.0  0.89343  0.93892  0.05244  1.0000
  H   H112      1.0  0.90666  0.56658  0.07706  1.0000
  C   C154      1.0  0.99174  0.64608  0.33799  1.0000
  C   C155      1.0  0.99487  0.73054  0.29195  1.0000
  C   C156      1.0  0.52389  0.70283  0.25769  1.0000
  C   C157      1.0  0.52213  0.66121  0.27984  1.0000
  H   H113      1.0  0.54835  0.71321  0.22179  1.0000
  H   H114      1.0  0.54495  0.64253  0.25759  1.0000
  C   C158      1.0  0.00443  0.77284  0.29065  1.0000
  C   C159      1.0  0.01063  0.85713  0.33405  1.0000
  C   C160      1.0  0.48539  0.84380  0.26330  1.0000
  C   C161      1.0  0.98181  0.80195  0.24056  1.0000
  H   H115      1.0  0.46753  0.86471  0.23098  1.0000
  N   N13       1.0  0.95555  0.79068  0.17488  1.0000
  H   H116      1.0  0.95280  0.76240  0.15645  1.0000
  H   H117      1.0  0.44031  0.81090  0.14102  1.0000
  C   C162      1.0  0.85413  0.00528  0.11423  1.0000
  C   C163      1.0  0.83983  0.97471  0.17318  1.0000
  C   C164      1.0  0.79795  0.97083  0.19510  1.0000
  C   C165      1.0  0.76983  0.99926  0.15828  1.0000
  C   C166      1.0  0.78448  0.53200  0.10613  1.0000
  C   C167      1.0  0.82593  0.53489  0.08438  1.0000
  H   H118      1.0  0.76459  0.55147  0.07508  1.0000
  H   H119      1.0  0.83423  0.55635  0.03829  1.0000
  C   C168      1.0  0.72750  0.99077  0.15052  1.0000
  C   C169      1.0  0.69953  0.01504  0.19868  1.0000
  C   C170      1.0  0.65766  0.01399  0.17850  1.0000
  C   C171      1.0  0.64266  0.98844  0.11018  1.0000
  C   C172      1.0  0.67070  0.46315  0.06462  1.0000
  C   C173      1.0  0.71303  0.96423  0.08223  1.0000
  H   H120      1.0  0.70973  0.03560  0.24498  1.0000
  H   H121      1.0  0.63845  0.03350  0.21119  1.0000
  H   H122      1.0  0.66065  0.44601  0.01189  1.0000
  H   H123      1.0  0.85984  0.95310  0.19579  1.0000
  N   N14       1.0  0.78558  0.93887  0.24623  1.0000
  H   H124      1.0  0.80506  0.91938  0.27033  1.0000
  H   H125      1.0  0.75720  0.93539  0.26332  1.0000
  N   N15       1.0  0.73803  0.94141  0.02946  1.0000
  H   H126      1.0  0.76743  0.94154  0.03636  1.0000
  C   C174      1.0  0.00747  0.89705  0.37101  1.0000
  C   C175      1.0  0.96900  0.91305  0.39515  1.0000
  C   C176      1.0  0.96606  0.94708  0.45186  1.0000
  C   C177      1.0  0.00120  0.96545  0.48995  1.0000
  C   C178      1.0  0.53939  0.95252  0.45512  1.0000
  C   C179      1.0  0.54263  0.91853  0.39862  1.0000
  C   C180      1.0  0.99874  0.50023  0.55754  1.0000
  C   C181      1.0  0.99788  0.53651  0.49380  1.0000
  C   C182      1.0  0.53381  0.55592  0.46247  1.0000
  C   C183      1.0  0.53212  0.59077  0.40792  1.0000
  C   C184      1.0  0.99437  0.60635  0.37738  1.0000
  C   C185      1.0  0.95888  0.58368  0.39797  1.0000
  C   C186      1.0  0.96071  0.54950  0.45426  1.0000
  C   C187      1.0  0.96250  0.50055  0.62142  1.0000
  C   C188      1.0  0.53343  0.99829  0.62538  1.0000
  C   C189      1.0  0.55261  0.53356  0.66093  1.0000
  C   C190      1.0  0.54560  0.96034  0.66266  1.0000
  C   C191      1.0  0.94296  0.96438  0.65109  1.0000
  C   C192      1.0  0.94975  0.53741  0.66273  1.0000
  H   H127      1.0  0.54328  0.56202  0.64225  1.0000
  H   H128      1.0  0.53140  0.93390  0.64410  1.0000
  H   H129      1.0  0.95248  0.93649  0.62911  1.0000
  H   H130      1.0  0.96414  0.56430  0.64846  1.0000
  H   H131      1.0  0.93390  0.53513  0.46930  1.0000
  H   H132      1.0  0.93092  0.59293  0.37544  1.0000
  H   H133      1.0  0.55879  0.60589  0.39515  1.0000
  H   H134      1.0  0.56188  0.54610  0.48270  1.0000
  H   H135      1.0  0.56586  0.96618  0.47538  1.0000
  H   H136      1.0  0.93756  0.95686  0.46911  1.0000
  H   H137      1.0  0.94270  0.89826  0.37750  1.0000
  H   H138      1.0  0.57109  0.90832  0.38158  1.0000
  C   C193      1.0  0.96143  0.67371  0.36749  1.0000
  C   C194      1.0  0.96249  0.71574  0.34641  1.0000
  C   C195      1.0  0.03168  0.78637  0.35732  1.0000
  C   C196      1.0  0.03475  0.82784  0.37858  1.0000
  H   H139      1.0  0.04676  0.76586  0.39696  1.0000
  H   H140      1.0  0.05186  0.83577  0.43297  1.0000
  H   H141      1.0  0.94001  0.66397  0.41235  1.0000
  N   N16       1.0  0.93376  0.74046  0.38370  1.0000
  H   H142      1.0  0.91219  0.72953  0.42139  1.0000
  H   H143      1.0  0.93304  0.76959  0.37258  1.0000
  H   H144      1.0  0.72717  0.42413  0.64899  1.0000
