data_image0
_chemical_formula_structural       N2C4HNH2C4HNH2C4HNH2C2H2C2H2C2H2C3NC18H12CNCNCNC18H12CNCNCNC18H12CNCNCNC18H12C2H2C2H2C2H2C4HNH2C4HNH2C4HNH2
_chemical_formula_sum              "N18 C120 H78"
_cell_length_a       44.9637
_cell_length_b       44.9637
_cell_length_c       14.9838
_cell_angle_alpha    90
_cell_angle_beta     90
_cell_angle_gamma    120

_space_group_name_H-M_alt    "P 1"
_space_group_IT_number       1

loop_
  _space_group_symop_operation_xyz
  'x, y, z'

loop_
  _atom_site_type_symbol
  _atom_site_label
  _atom_site_symmetry_multiplicity
  _atom_site_fract_x
  _atom_site_fract_y
  _atom_site_fract_z
  _atom_site_occupancy
  N   N1        1.0  0.00999  0.97935  0.33494  1.0000
  N   N2        1.0  0.01000  0.03092  0.33494  1.0000
  C   C1        1.0  0.24760  0.12391  0.33188  1.0000
  C   C2        1.0  0.22973  0.11498  0.24994  1.0000
  C   C3        1.0  0.19335  0.09679  0.24672  1.0000
  C   C4        1.0  0.17475  0.08750  0.32864  1.0000
  H   H1        1.0  0.24346  0.12184  0.19159  1.0000
  N   N3        1.0  0.17762  0.08893  0.16559  1.0000
  H   H2        1.0  0.19084  0.09555  0.11045  1.0000
  H   H3        1.0  0.15277  0.07652  0.15977  1.0000
  C   C5        1.0  0.86542  0.12395  0.33187  1.0000
  C   C6        1.0  0.87435  0.11501  0.24993  1.0000
  C   C7        1.0  0.89254  0.09681  0.24672  1.0000
  C   C8        1.0  0.90184  0.08752  0.32864  1.0000
  H   H4        1.0  0.86748  0.12187  0.19159  1.0000
  N   N4        1.0  0.90040  0.08894  0.16559  1.0000
  H   H5        1.0  0.89379  0.09556  0.11045  1.0000
  H   H6        1.0  0.91282  0.07652  0.15977  1.0000
  C   C9        1.0  0.86536  0.74174  0.33188  1.0000
  C   C10       1.0  0.87431  0.75962  0.24994  1.0000
  C   C11       1.0  0.89251  0.79600  0.24672  1.0000
  C   C12       1.0  0.90182  0.81460  0.32864  1.0000
  H   H7        1.0  0.86744  0.74588  0.19159  1.0000
  N   N5        1.0  0.90038  0.81173  0.16559  1.0000
  H   H8        1.0  0.89377  0.79851  0.11045  1.0000
  H   H9        1.0  0.91282  0.83657  0.15977  1.0000
  C   C13       1.0  0.54461  0.13222  0.25855  1.0000
  C   C14       1.0  0.57594  0.13238  0.25656  1.0000
  H   H10       1.0  0.53512  0.13548  0.19946  1.0000
  H   H11       1.0  0.58816  0.13590  0.19653  1.0000
  C   C15       1.0  0.85710  0.41271  0.25850  1.0000
  C   C16       1.0  0.85705  0.44392  0.25660  1.0000
  H   H12       1.0  0.85398  0.40000  0.19939  1.0000
  H   H13       1.0  0.85360  0.45267  0.19656  1.0000
  C   C17       1.0  0.57667  0.44471  0.25858  1.0000
  C   C18       1.0  0.54552  0.41337  0.25664  1.0000
  H   H14       1.0  0.58942  0.45420  0.19948  1.0000
  H   H15       1.0  0.53682  0.40115  0.19661  1.0000
  C   C19       1.0  0.97507  0.96107  0.33500  1.0000
  C   C20       1.0  0.02828  0.01427  0.33500  1.0000
  C   C21       1.0  0.97507  0.01428  0.33500  1.0000
  N   N6        1.0  0.95843  0.97935  0.33494  1.0000
  C   C22       1.0  0.06495  0.03261  0.33438  1.0000
  C   C23       1.0  0.08385  0.01508  0.33379  1.0000
  C   C24       1.0  0.12000  0.03310  0.33237  1.0000
  C   C25       1.0  0.13838  0.06932  0.33156  1.0000
  C   C26       1.0  0.12000  0.08716  0.33237  1.0000
  C   C27       1.0  0.08386  0.06904  0.33379  1.0000
  C   C28       1.0  0.95673  0.92439  0.33438  1.0000
  C   C29       1.0  0.97425  0.90548  0.33379  1.0000
  C   C30       1.0  0.95622  0.86934  0.33237  1.0000
  C   C31       1.0  0.92001  0.85097  0.33157  1.0000
  C   C32       1.0  0.90217  0.86935  0.33237  1.0000
  C   C33       1.0  0.92030  0.90549  0.33379  1.0000
  C   C34       1.0  0.95673  0.03261  0.33438  1.0000
  C   C35       1.0  0.92031  0.01509  0.33379  1.0000
  C   C36       1.0  0.90218  0.03311  0.33238  1.0000
  C   C37       1.0  0.92002  0.06933  0.33157  1.0000
  C   C38       1.0  0.95624  0.08717  0.33237  1.0000
  C   C39       1.0  0.97426  0.06904  0.33379  1.0000
  H   H16       1.0  0.96973  0.85656  0.33149  1.0000
  H   H17       1.0  0.00050  0.91779  0.33404  1.0000
  H   H18       1.0  0.87588  0.85657  0.33149  1.0000
  H   H19       1.0  0.90636  0.91780  0.33404  1.0000
  H   H20       1.0  0.90636  0.98884  0.33404  1.0000
  H   H21       1.0  0.87589  0.01960  0.33150  1.0000
  H   H22       1.0  0.00051  0.08299  0.33403  1.0000
  H   H23       1.0  0.96975  0.11346  0.33149  1.0000
  H   H24       1.0  0.07155  0.08298  0.33404  1.0000
  H   H25       1.0  0.13279  0.11345  0.33150  1.0000
  H   H26       1.0  0.13278  0.01959  0.33150  1.0000
  H   H27       1.0  0.07154  0.98883  0.33404  1.0000
  C   C40       1.0  0.44711  0.19698  0.33434  1.0000
  N   N7        1.0  0.41220  0.18023  0.33430  1.0000
  C   C41       1.0  0.39402  0.19711  0.33400  1.0000
  N   N8        1.0  0.41220  0.23217  0.33379  1.0000
  C   C42       1.0  0.44711  0.25033  0.33378  1.0000
  N   N9        1.0  0.46331  0.23175  0.33411  1.0000
  C   C43       1.0  0.35733  0.17877  0.33398  1.0000
  C   C44       1.0  0.33841  0.14233  0.33390  1.0000
  C   C45       1.0  0.30227  0.12421  0.33351  1.0000
  C   C46       1.0  0.28389  0.14205  0.33331  1.0000
  C   C47       1.0  0.30227  0.17826  0.33347  1.0000
  C   C48       1.0  0.33842  0.19628  0.33386  1.0000
  C   C49       1.0  0.46691  0.18014  0.33514  1.0000
  C   C50       1.0  0.45156  0.14385  0.33451  1.0000
  C   C51       1.0  0.47175  0.12786  0.33576  1.0000
  C   C52       1.0  0.50792  0.14787  0.33805  1.0000
  C   C53       1.0  0.52344  0.18398  0.33863  1.0000
  C   C54       1.0  0.50330  0.19974  0.33702  1.0000
  C   C55       1.0  0.46691  0.28696  0.33385  1.0000
  C   C56       1.0  0.50331  0.30376  0.33321  1.0000
  C   C57       1.0  0.52346  0.33967  0.33382  1.0000
  C   C58       1.0  0.50794  0.36025  0.33502  1.0000
  C   C59       1.0  0.47177  0.34410  0.33569  1.0000
  C   C60       1.0  0.45157  0.30791  0.33496  1.0000
  H   H28       1.0  0.45996  0.10162  0.33558  1.0000
  H   H29       1.0  0.42541  0.12861  0.33323  1.0000
  H   H30       1.0  0.54964  0.19919  0.34034  1.0000
  H   H31       1.0  0.51595  0.22600  0.33767  1.0000
  H   H32       1.0  0.51596  0.29014  0.33248  1.0000
  H   H33       1.0  0.54967  0.35065  0.33366  1.0000
  H   H34       1.0  0.42542  0.29701  0.33562  1.0000
  H   H35       1.0  0.45997  0.35853  0.33686  1.0000
  H   H36       1.0  0.35071  0.22254  0.33384  1.0000
  H   H37       1.0  0.28949  0.19178  0.33310  1.0000
  H   H38       1.0  0.28948  0.09792  0.33316  1.0000
  H   H39       1.0  0.35071  0.12838  0.33390  1.0000
  C   C61       1.0  0.79232  0.25036  0.33442  1.0000
  N   N10       1.0  0.80908  0.23221  0.33436  1.0000
  C   C62       1.0  0.79220  0.19714  0.33406  1.0000
  N   N11       1.0  0.75714  0.18026  0.33385  1.0000
  C   C63       1.0  0.73898  0.19702  0.33385  1.0000
  N   N12       1.0  0.75755  0.23179  0.33419  1.0000
  C   C64       1.0  0.81055  0.17880  0.33402  1.0000
  C   C65       1.0  0.84698  0.19632  0.33392  1.0000
  C   C66       1.0  0.86511  0.17831  0.33351  1.0000
  C   C67       1.0  0.84727  0.14209  0.33330  1.0000
  C   C68       1.0  0.81106  0.12425  0.33347  1.0000
  C   C69       1.0  0.79303  0.14237  0.33387  1.0000
  C   C70       1.0  0.80915  0.28700  0.33522  1.0000
  C   C71       1.0  0.84544  0.30795  0.33456  1.0000
  C   C72       1.0  0.86143  0.34414  0.33576  1.0000
  C   C73       1.0  0.84140  0.36028  0.33807  1.0000
  C   C74       1.0  0.80530  0.33968  0.33863  1.0000
  C   C75       1.0  0.78955  0.30378  0.33707  1.0000
  C   C76       1.0  0.70234  0.18018  0.33390  1.0000
  C   C77       1.0  0.68554  0.19978  0.33324  1.0000
  C   C78       1.0  0.64964  0.18403  0.33382  1.0000
  C   C79       1.0  0.62905  0.14792  0.33502  1.0000
  C   C80       1.0  0.64520  0.12790  0.33570  1.0000
  C   C81       1.0  0.68140  0.14389  0.33500  1.0000
  H   H40       1.0  0.88766  0.35858  0.33556  1.0000
  H   H41       1.0  0.86070  0.29706  0.33328  1.0000
  H   H42       1.0  0.79008  0.35066  0.34029  1.0000
  H   H43       1.0  0.76328  0.29015  0.33770  1.0000
  H   H44       1.0  0.69916  0.22604  0.33252  1.0000
  H   H45       1.0  0.63865  0.19925  0.33364  1.0000
  H   H46       1.0  0.69229  0.12864  0.33566  1.0000
  H   H47       1.0  0.63077  0.10167  0.33684  1.0000
  H   H48       1.0  0.76678  0.12841  0.33386  1.0000
  H   H49       1.0  0.79755  0.09796  0.33309  1.0000
  H   H50       1.0  0.89140  0.19182  0.33317  1.0000
  H   H51       1.0  0.86093  0.22258  0.33394  1.0000
  C   C82       1.0  0.73894  0.54223  0.33435  1.0000
  N   N13       1.0  0.75709  0.57715  0.33430  1.0000
  C   C83       1.0  0.79215  0.59533  0.33402  1.0000
  N   N14       1.0  0.80904  0.57715  0.33383  1.0000
  C   C84       1.0  0.79229  0.54224  0.33383  1.0000
  N   N15       1.0  0.75751  0.52604  0.33414  1.0000
  C   C85       1.0  0.81050  0.63202  0.33399  1.0000
  C   C86       1.0  0.79298  0.65093  0.33390  1.0000
  C   C87       1.0  0.81100  0.68708  0.33350  1.0000
  C   C88       1.0  0.84722  0.70546  0.33331  1.0000
  C   C89       1.0  0.86506  0.68708  0.33347  1.0000
  C   C90       1.0  0.84693  0.65093  0.33386  1.0000
  C   C91       1.0  0.70230  0.52244  0.33514  1.0000
  C   C92       1.0  0.68136  0.53778  0.33451  1.0000
  C   C93       1.0  0.64517  0.51759  0.33576  1.0000
  C   C94       1.0  0.62902  0.48142  0.33804  1.0000
  C   C95       1.0  0.64961  0.46591  0.33861  1.0000
  C   C96       1.0  0.68551  0.48604  0.33699  1.0000
  C   C97       1.0  0.80913  0.52245  0.33390  1.0000
  C   C98       1.0  0.78954  0.48605  0.33330  1.0000
  C   C99       1.0  0.80531  0.46591  0.33391  1.0000
  C   C100      1.0  0.84141  0.48144  0.33508  1.0000
  C   C101      1.0  0.86142  0.51761  0.33568  1.0000
  C   C102      1.0  0.84542  0.53781  0.33497  1.0000
  H   H52       1.0  0.63074  0.52939  0.33560  1.0000
  H   H53       1.0  0.69226  0.56393  0.33325  1.0000
  H   H54       1.0  0.63862  0.43971  0.34031  1.0000
  H   H55       1.0  0.69913  0.47340  0.33764  1.0000
  H   H56       1.0  0.76328  0.47340  0.33261  1.0000
  H   H57       1.0  0.79009  0.43971  0.33375  1.0000
  H   H58       1.0  0.86067  0.56396  0.33557  1.0000
  H   H59       1.0  0.88765  0.52942  0.33678  1.0000
  H   H60       1.0  0.86088  0.63864  0.33386  1.0000
  H   H61       1.0  0.89135  0.69986  0.33311  1.0000
  H   H62       1.0  0.79749  0.69986  0.33315  1.0000
  H   H63       1.0  0.76673  0.63864  0.33390  1.0000
  C   C103      1.0  0.19274  0.09649  0.41059  1.0000
  C   C104      1.0  0.22882  0.11452  0.41226  1.0000
  H   H64       1.0  0.17971  0.08997  0.46998  1.0000
  H   H65       1.0  0.24124  0.12073  0.47249  1.0000
  C   C105      1.0  0.89285  0.09652  0.41059  1.0000
  C   C106      1.0  0.87481  0.11456  0.41225  1.0000
  H   H66       1.0  0.89936  0.09000  0.46998  1.0000
  H   H67       1.0  0.86860  0.12077  0.47248  1.0000
  C   C107      1.0  0.89281  0.79661  0.41059  1.0000
  C   C108      1.0  0.87476  0.76053  0.41226  1.0000
  H   H68       1.0  0.89933  0.80963  0.46998  1.0000
  H   H69       1.0  0.86855  0.74811  0.47249  1.0000
  C   C109      1.0  0.59296  0.13362  0.33674  1.0000
  C   C110      1.0  0.57694  0.13239  0.41881  1.0000
  C   C111      1.0  0.54557  0.13263  0.42218  1.0000
  C   C112      1.0  0.52975  0.13353  0.34061  1.0000
  H   H70       1.0  0.59013  0.13517  0.47691  1.0000
  N   N16       1.0  0.53282  0.13430  0.50326  1.0000
  H   H71       1.0  0.54399  0.13380  0.55843  1.0000
  H   H72       1.0  0.51109  0.13391  0.50892  1.0000
  C   C113      1.0  0.85571  0.45966  0.33677  1.0000
  C   C114      1.0  0.85694  0.44481  0.41875  1.0000
  C   C115      1.0  0.85666  0.41317  0.42206  1.0000
  C   C116      1.0  0.85570  0.39643  0.34043  1.0000
  H   H73       1.0  0.85407  0.45511  0.47690  1.0000
  N   N17       1.0  0.85495  0.39872  0.50313  1.0000
  H   H74       1.0  0.85560  0.41047  0.55830  1.0000
  H   H75       1.0  0.85543  0.37744  0.50874  1.0000
  C   C117      1.0  0.52973  0.39634  0.33683  1.0000
  C   C118      1.0  0.54453  0.41241  0.41884  1.0000
  C   C119      1.0  0.57613  0.44379  0.42220  1.0000
  C   C120      1.0  0.59286  0.45959  0.34062  1.0000
  H   H76       1.0  0.53414  0.39923  0.47696  1.0000
  N   N18       1.0  0.59056  0.45656  0.50327  1.0000
  H   H77       1.0  0.57888  0.44539  0.55844  1.0000
  H   H78       1.0  0.61189  0.47828  0.50890  1.0000
