data_image0
_chemical_formula_structural       CHC4H2C2HC2H2C2HCHC14H10C17H12C6H4C6H4C2H2C10H7C13H9C2H2C4H2C2H2C4H2C4H2
_chemical_formula_sum              "C96 H66"
_cell_length_a       44.904
_cell_length_b       44.8785
_cell_length_c       14.8593
_cell_angle_alpha    90
_cell_angle_beta     90
_cell_angle_gamma    120.03

_space_group_name_H-M_alt    "P 1"
_space_group_IT_number       1

loop_
  _space_group_symop_operation_xyz
  'x, y, z'

loop_
  _atom_site_type_symbol
  _atom_site_label
  _atom_site_symmetry_multiplicity
  _atom_site_fract_x
  _atom_site_fract_y
  _atom_site_fract_z
  _atom_site_occupancy
  C   C1        1.0  0.15306  0.54659  0.31358  1.0000
  H   H1        1.0  0.13925  0.52116  0.29586  1.0000
  C   C2        1.0  0.09928  0.54824  0.33567  1.0000
  C   C3        1.0  0.08007  0.52800  0.26138  1.0000
  C   C4        1.0  0.04388  0.51118  0.26094  1.0000
  C   C5        1.0  0.02549  0.51349  0.33541  1.0000
  H   H2        1.0  0.09233  0.52562  0.20611  1.0000
  H   H3        1.0  0.03101  0.49657  0.20613  1.0000
  C   C6        1.0  0.13599  0.56483  0.33684  1.0000
  C   C7        1.0  0.15643  0.59967  0.36342  1.0000
  H   H4        1.0  0.14514  0.61384  0.38028  1.0000
  C   C8        1.0  0.04468  0.53362  0.40986  1.0000
  C   C9        1.0  0.08089  0.55087  0.40970  1.0000
  H   H5        1.0  0.03242  0.53627  0.46475  1.0000
  H   H6        1.0  0.09372  0.56481  0.46543  1.0000
  C   C10       1.0  0.20942  0.59719  0.34419  1.0000
  C   C11       1.0  0.18914  0.56239  0.31794  1.0000
  H   H7        1.0  0.20048  0.54813  0.30218  1.0000
  C   C12       1.0  0.19257  0.61565  0.36685  1.0000
  H   H8        1.0  0.20644  0.64075  0.38751  1.0000
  C   C13       1.0  0.45314  0.85554  0.31535  1.0000
  C   C14       1.0  0.43417  0.81933  0.32023  1.0000
  C   C15       1.0  0.38109  0.74329  0.30142  1.0000
  C   C16       1.0  0.36078  0.70775  0.31031  1.0000
  C   C17       1.0  0.32445  0.69152  0.31245  1.0000
  C   C18       1.0  0.30347  0.65522  0.31268  1.0000
  C   C19       1.0  0.31978  0.63516  0.30940  1.0000
  C   C20       1.0  0.35603  0.65060  0.30808  1.0000
  C   C21       1.0  0.37619  0.68694  0.30759  1.0000
  C   C22       1.0  0.37119  0.63025  0.29878  1.0000
  C   C23       1.0  0.41167  0.61212  0.34643  1.0000
  C   C24       1.0  0.39438  0.57733  0.31794  1.0000
  C   C25       1.0  0.41159  0.55834  0.31352  1.0000
  C   C26       1.0  0.26775  0.64043  0.30777  1.0000
  H   H9        1.0  0.47836  0.86712  0.29581  1.0000
  H   H10       1.0  0.44629  0.80588  0.30403  1.0000
  H   H11       1.0  0.40244  0.69841  0.30281  1.0000
  H   H12       1.0  0.31308  0.70645  0.31127  1.0000
  H   H13       1.0  0.30506  0.60888  0.30569  1.0000
  H   H14       1.0  0.39791  0.53305  0.29453  1.0000
  H   H15       1.0  0.36879  0.56515  0.30188  1.0000
  H   H16       1.0  0.36360  0.61411  0.24685  1.0000
  H   H17       1.0  0.39693  0.75192  0.24889  1.0000
  H   H18       1.0  0.25869  0.65219  0.26888  1.0000
  C   C27       1.0  0.56111  0.15395  0.31529  1.0000
  C   C28       1.0  0.58007  0.19016  0.32027  1.0000
  C   C29       1.0  0.63314  0.26620  0.30148  1.0000
  C   C30       1.0  0.65345  0.30174  0.31036  1.0000
  C   C31       1.0  0.68977  0.31797  0.31257  1.0000
  C   C32       1.0  0.71075  0.35427  0.31290  1.0000
  C   C33       1.0  0.69444  0.37433  0.30963  1.0000
  C   C34       1.0  0.65818  0.35888  0.30829  1.0000
  C   C35       1.0  0.63803  0.32254  0.30769  1.0000
  C   C36       1.0  0.64303  0.37924  0.29897  1.0000
  C   C37       1.0  0.60254  0.39737  0.34657  1.0000
  C   C38       1.0  0.61983  0.43216  0.31807  1.0000
  C   C39       1.0  0.60262  0.45114  0.31364  1.0000
  C   C40       1.0  0.74648  0.36907  0.30794  1.0000
  C   C41       1.0  0.80480  0.41230  0.34433  1.0000
  C   C42       1.0  0.82507  0.44710  0.31808  1.0000
  C   C43       1.0  0.86116  0.46291  0.31372  1.0000
  H   H19       1.0  0.53588  0.14237  0.29587  1.0000
  H   H20       1.0  0.56795  0.20361  0.30409  1.0000
  H   H21       1.0  0.61178  0.31107  0.30293  1.0000
  H   H22       1.0  0.70114  0.30304  0.31137  1.0000
  H   H23       1.0  0.70916  0.40061  0.30591  1.0000
  H   H24       1.0  0.61631  0.47644  0.29462  1.0000
  H   H25       1.0  0.64542  0.44433  0.30202  1.0000
  H   H26       1.0  0.87496  0.48834  0.29597  1.0000
  H   H27       1.0  0.81373  0.46136  0.30235  1.0000
  H   H28       1.0  0.65064  0.39539  0.24705  1.0000
  H   H29       1.0  0.61733  0.25756  0.24892  1.0000
  H   H30       1.0  0.75553  0.35731  0.26902  1.0000
  C   C44       1.0  0.46373  0.55360  0.33810  1.0000
  C   C45       1.0  0.46136  0.53299  0.26331  1.0000
  C   C46       1.0  0.47864  0.51403  0.26255  1.0000
  C   C47       1.0  0.49848  0.51450  0.33715  1.0000
  C   C48       1.0  0.53557  0.49544  0.26256  1.0000
  C   C49       1.0  0.55285  0.47649  0.26334  1.0000
  H   H31       1.0  0.53816  0.51015  0.20727  1.0000
  H   H32       1.0  0.56676  0.47742  0.20776  1.0000
  H   H33       1.0  0.44747  0.53207  0.20770  1.0000
  H   H34       1.0  0.47607  0.49933  0.20725  1.0000
  C   C50       1.0  0.45797  0.91248  0.33969  1.0000
  C   C51       1.0  0.47852  0.93065  0.26472  1.0000
  C   C52       1.0  0.49758  0.96690  0.26384  1.0000
  C   C53       1.0  0.49728  0.98635  0.33849  1.0000
  C   C54       1.0  0.51669  0.04260  0.26384  1.0000
  C   C55       1.0  0.53574  0.07884  0.26474  1.0000
  H   H35       1.0  0.50199  0.03052  0.20848  1.0000
  H   H36       1.0  0.53492  0.09189  0.20914  1.0000
  H   H37       1.0  0.47934  0.91761  0.20913  1.0000
  H   H38       1.0  0.51227  0.97898  0.20848  1.0000
  C   C56       1.0  0.97034  0.49833  0.26096  1.0000
  C   C57       1.0  0.93415  0.48150  0.26141  1.0000
  H   H39       1.0  0.98320  0.51295  0.20615  1.0000
  H   H40       1.0  0.92188  0.48389  0.20617  1.0000
  C   C58       1.0  0.43836  0.87570  0.34087  1.0000
  C   C59       1.0  0.39949  0.80188  0.34947  1.0000
  C   C60       1.0  0.38464  0.82205  0.37423  1.0000
  C   C61       1.0  0.40370  0.85822  0.37008  1.0000
  C   C62       1.0  0.38022  0.76612  0.35860  1.0000
  C   C63       1.0  0.39522  0.63143  0.35525  1.0000
  C   C64       1.0  0.44670  0.62702  0.37112  1.0000
  C   C65       1.0  0.44655  0.57319  0.33897  1.0000
  C   C66       1.0  0.46378  0.60794  0.36754  1.0000
  C   C67       1.0  0.24488  0.61184  0.35191  1.0000
  H   H41       1.0  0.39185  0.87174  0.38831  1.0000
  H   H42       1.0  0.35968  0.81054  0.39615  1.0000
  H   H43       1.0  0.46020  0.65206  0.39256  1.0000
  H   H44       1.0  0.48917  0.61986  0.38565  1.0000
  H   H45       1.0  0.40259  0.64801  0.40633  1.0000
  H   H46       1.0  0.36393  0.75693  0.41026  1.0000
  H   H47       1.0  0.25342  0.59966  0.39082  1.0000
  C   C68       1.0  0.57589  0.13380  0.34089  1.0000
  C   C69       1.0  0.61475  0.20761  0.34953  1.0000
  C   C70       1.0  0.62960  0.18745  0.37429  1.0000
  C   C71       1.0  0.61055  0.15127  0.37012  1.0000
  C   C72       1.0  0.63401  0.24337  0.35868  1.0000
  C   C73       1.0  0.61900  0.37805  0.35541  1.0000
  C   C74       1.0  0.56751  0.38246  0.37122  1.0000
  C   C75       1.0  0.56766  0.43629  0.33905  1.0000
  C   C76       1.0  0.55043  0.40154  0.36761  1.0000
  C   C77       1.0  0.76934  0.39766  0.35208  1.0000
  C   C78       1.0  0.82166  0.39385  0.36698  1.0000
  C   C79       1.0  0.87823  0.44467  0.33691  1.0000
  C   C80       1.0  0.85780  0.40984  0.36350  1.0000
  H   H48       1.0  0.62240  0.13775  0.38836  1.0000
  H   H49       1.0  0.65456  0.19896  0.39620  1.0000
  H   H50       1.0  0.80779  0.36875  0.38761  1.0000
  H   H51       1.0  0.55401  0.35742  0.39266  1.0000
  H   H52       1.0  0.52504  0.38962  0.38571  1.0000
  H   H53       1.0  0.86910  0.39566  0.38033  1.0000
  H   H54       1.0  0.61161  0.36146  0.40646  1.0000
  H   H55       1.0  0.65029  0.25256  0.41036  1.0000
  H   H56       1.0  0.76080  0.40982  0.39102  1.0000
  C   C81       1.0  0.50056  0.53486  0.41225  1.0000
  C   C82       1.0  0.48369  0.55417  0.41251  1.0000
  H   H57       1.0  0.51492  0.53628  0.46732  1.0000
  H   H58       1.0  0.48574  0.56831  0.46860  1.0000
  C   C83       1.0  0.51573  0.49498  0.33716  1.0000
  C   C84       1.0  0.55048  0.45588  0.33815  1.0000
  C   C85       1.0  0.53051  0.45532  0.41255  1.0000
  C   C86       1.0  0.51365  0.47463  0.41228  1.0000
  H   H59       1.0  0.52846  0.44116  0.46864  1.0000
  H   H60       1.0  0.49928  0.47319  0.46732  1.0000
  C   C87       1.0  0.47696  0.96815  0.41371  1.0000
  C   C88       1.0  0.45755  0.93196  0.41410  1.0000
  H   H61       1.0  0.47566  0.98115  0.46881  1.0000
  H   H62       1.0  0.44349  0.91992  0.47035  1.0000
  C   C89       1.0  0.51697  0.02314  0.33849  1.0000
  C   C90       1.0  0.55628  0.09701  0.33971  1.0000
  C   C91       1.0  0.55669  0.07753  0.41412  1.0000
  C   C92       1.0  0.53729  0.04134  0.41372  1.0000
  H   H63       1.0  0.57077  0.08958  0.47035  1.0000
  H   H64       1.0  0.53860  0.02835  0.46881  1.0000
  C   C93       1.0  0.98874  0.49603  0.33542  1.0000
  C   C94       1.0  0.91495  0.46127  0.33572  1.0000
  C   C95       1.0  0.93334  0.45865  0.40976  1.0000
  C   C96       1.0  0.96955  0.47591  0.40990  1.0000
  H   H65       1.0  0.92052  0.44471  0.46547  1.0000
  H   H66       1.0  0.98182  0.47325  0.46477  1.0000
