data_image0
_chemical_formula_structural       C8HC7HCH4N3C8HC7HCH4N4C2NCHNHCHC2NCHNHCHC2NCHNHCHC2NCHNHCHC2NCHNHCHC2NCHNHCHC8HC7HCH4N5C3HC6HO2CHC3HC6HO2CHC3HC6HO2CHC3HC6HO2CHC3HC6HO2CHC3HC6HO2CH
_chemical_formula_sum              "C132 H54 N24 O12"
_cell_length_a       38.1086
_cell_length_b       38.1087
_cell_length_c       14.9705
_cell_angle_alpha    90.0002
_cell_angle_beta     89.9998
_cell_angle_gamma    120

_space_group_name_H-M_alt    "P 1"
_space_group_IT_number       1

loop_
  _space_group_symop_operation_xyz
  'x, y, z'

loop_
  _atom_site_type_symbol
  _atom_site_label
  _atom_site_symmetry_multiplicity
  _atom_site_fract_x
  _atom_site_fract_y
  _atom_site_fract_z
  _atom_site_occupancy
  C   C1        1.0  0.55430  0.57879  0.32998  1.0000
  C   C2        1.0  0.59159  0.57849  0.33069  1.0000
  C   C3        1.0  0.62903  0.61559  0.32991  1.0000
  C   C4        1.0  0.62887  0.65254  0.32868  1.0000
  C   C5        1.0  0.59237  0.65336  0.32835  1.0000
  C   C6        1.0  0.55480  0.61645  0.32900  1.0000
  C   C7        1.0  0.59026  0.54076  0.33053  1.0000
  C   C8        1.0  0.51754  0.61607  0.32901  1.0000
  H   H1        1.0  0.65584  0.67935  0.32943  1.0000
  C   C9        1.0  0.51654  0.54151  0.33000  1.0000
  C   C10       1.0  0.51603  0.50385  0.32903  1.0000
  C   C11       1.0  0.47847  0.46694  0.32841  1.0000
  C   C12       1.0  0.44196  0.46777  0.32878  1.0000
  C   C13       1.0  0.44181  0.50471  0.33001  1.0000
  C   C14       1.0  0.47925  0.54181  0.33075  1.0000
  C   C15       1.0  0.55329  0.50423  0.32902  1.0000
  H   H2        1.0  0.41499  0.44095  0.32952  1.0000
  C   C16       1.0  0.48058  0.57955  0.33057  1.0000
  H   H3        1.0  0.55411  0.47780  0.32825  1.0000
  H   H4        1.0  0.61634  0.53926  0.33027  1.0000
  H   H5        1.0  0.45450  0.58105  0.33033  1.0000
  H   H6        1.0  0.51672  0.64250  0.32823  1.0000
  N   N1        1.0  0.59464  0.68927  0.32376  1.0000
  N   N2        1.0  0.40681  0.50447  0.33654  1.0000
  N   N3        1.0  0.47620  0.43104  0.32381  1.0000
  C   C17       1.0  0.51677  0.06039  0.33000  1.0000
  C   C18       1.0  0.51707  0.09798  0.33073  1.0000
  C   C19       1.0  0.47997  0.09831  0.32998  1.0000
  C   C20       1.0  0.44303  0.06122  0.32871  1.0000
  C   C21       1.0  0.44221  0.02388  0.32830  1.0000
  C   C22       1.0  0.47911  0.02323  0.32900  1.0000
  C   C23       1.0  0.55481  0.13439  0.33060  1.0000
  C   C24       1.0  0.47950  0.98635  0.32902  1.0000
  H   H7        1.0  0.41621  0.06136  0.32943  1.0000
  C   C25       1.0  0.55406  0.05991  0.33002  1.0000
  C   C26       1.0  0.59172  0.09707  0.32902  1.0000
  C   C27       1.0  0.62863  0.09642  0.32835  1.0000
  C   C28       1.0  0.62781  0.05909  0.32880  1.0000
  C   C29       1.0  0.59087  0.02200  0.33008  1.0000
  C   C30       1.0  0.55376  0.02233  0.33079  1.0000
  C   C31       1.0  0.59133  0.13395  0.32901  1.0000
  H   H8        1.0  0.65463  0.05894  0.32952  1.0000
  C   C32       1.0  0.51602  0.98591  0.33064  1.0000
  H   H9        1.0  0.61776  0.16120  0.32823  1.0000
  H   H10       1.0  0.55630  0.16196  0.33030  1.0000
  H   H11       1.0  0.51453  0.95834  0.33035  1.0000
  H   H12       1.0  0.45307  0.95911  0.32821  1.0000
  N   N4        1.0  0.40630  0.99025  0.32373  1.0000
  N   N5        1.0  0.47973  0.13307  0.33651  1.0000
  N   N6        1.0  0.59111  0.98723  0.33660  1.0000
  N   N7        1.0  0.66453  0.13006  0.32377  1.0000
  C   C33       1.0  0.34034  0.48881  0.30865  1.0000
  C   C34       1.0  0.31464  0.48683  0.23847  1.0000
  N   N8        1.0  0.28102  0.48925  0.25599  1.0000
  C   C35       1.0  0.17589  0.49472  0.29166  1.0000
  H   H13       1.0  0.32082  0.48352  0.17352  1.0000
  N   N9        1.0  0.21055  0.49328  0.28303  1.0000
  H   H14       1.0  0.16018  0.49295  0.23492  1.0000
  C   C36       1.0  0.37400  0.48499  0.29087  1.0000
  H   H15       1.0  0.37292  0.46751  0.24027  1.0000
  C   C37       1.0  0.60675  0.93642  0.30871  1.0000
  C   C38       1.0  0.60873  0.91270  0.23852  1.0000
  N   N10       1.0  0.60630  0.87665  0.25604  1.0000
  C   C39       1.0  0.60081  0.76604  0.29170  1.0000
  H   H16       1.0  0.61204  0.92218  0.17357  1.0000
  N   N11       1.0  0.60227  0.80215  0.28307  1.0000
  H   H17       1.0  0.60257  0.75209  0.23495  1.0000
  C   C40       1.0  0.61059  0.97391  0.29094  1.0000
  H   H18       1.0  0.62807  0.99030  0.24033  1.0000
  C   C41       1.0  0.15915  0.75522  0.30865  1.0000
  C   C42       1.0  0.18287  0.78092  0.23847  1.0000
  N   N12       1.0  0.21891  0.81454  0.25600  1.0000
  C   C43       1.0  0.32951  0.91967  0.29167  1.0000
  H   H19       1.0  0.17339  0.77475  0.17352  1.0000
  N   N13       1.0  0.29341  0.88501  0.28303  1.0000
  H   H20       1.0  0.34346  0.93538  0.23492  1.0000
  C   C44       1.0  0.12167  0.72157  0.29087  1.0000
  H   H21       1.0  0.10527  0.72266  0.24028  1.0000
  C   C45       1.0  0.73049  0.63149  0.30861  1.0000
  C   C46       1.0  0.75620  0.63347  0.23844  1.0000
  N   N14       1.0  0.78982  0.63104  0.25599  1.0000
  C   C47       1.0  0.89493  0.62556  0.29172  1.0000
  H   H22       1.0  0.75003  0.63677  0.17348  1.0000
  N   N15       1.0  0.86028  0.62701  0.28306  1.0000
  H   H23       1.0  0.91065  0.62732  0.23498  1.0000
  C   C48       1.0  0.69684  0.63532  0.29081  1.0000
  H   H24       1.0  0.69793  0.65280  0.24021  1.0000
  C   C49       1.0  0.46408  0.18388  0.30866  1.0000
  C   C50       1.0  0.46209  0.20760  0.23848  1.0000
  N   N16       1.0  0.46452  0.24365  0.25602  1.0000
  C   C51       1.0  0.47000  0.35426  0.29172  1.0000
  H   H25       1.0  0.45878  0.19812  0.17353  1.0000
  N   N17       1.0  0.46855  0.31815  0.28307  1.0000
  H   H26       1.0  0.46824  0.36821  0.23498  1.0000
  C   C52       1.0  0.46024  0.14640  0.29087  1.0000
  H   H27       1.0  0.44275  0.13000  0.24029  1.0000
  C   C53       1.0  0.91168  0.36508  0.30862  1.0000
  C   C54       1.0  0.88796  0.33937  0.23845  1.0000
  N   N18       1.0  0.85192  0.30575  0.25599  1.0000
  C   C55       1.0  0.74133  0.20062  0.29169  1.0000
  H   H28       1.0  0.89744  0.34554  0.17350  1.0000
  N   N19       1.0  0.77743  0.23528  0.28304  1.0000
  H   H29       1.0  0.72739  0.18489  0.23494  1.0000
  C   C56       1.0  0.94916  0.39873  0.29082  1.0000
  H   H30       1.0  0.96556  0.39765  0.24021  1.0000
  C   C57       1.0  0.03518  0.54127  0.32997  1.0000
  C   C58       1.0  0.99759  0.50398  0.33071  1.0000
  C   C59       1.0  0.99725  0.46654  0.32994  1.0000
  C   C60       1.0  0.03435  0.46669  0.32868  1.0000
  C   C61       1.0  0.07168  0.50320  0.32829  1.0000
  C   C62       1.0  0.07233  0.54076  0.32897  1.0000
  C   C63       1.0  0.96118  0.50531  0.33057  1.0000
  C   C64       1.0  0.10921  0.57803  0.32898  1.0000
  H   H31       1.0  0.03420  0.43973  0.32944  1.0000
  C   C65       1.0  0.03566  0.57903  0.32999  1.0000
  C   C66       1.0  0.99850  0.57954  0.32904  1.0000
  C   C67       1.0  0.99915  0.61710  0.32842  1.0000
  C   C68       1.0  0.03649  0.65361  0.32876  1.0000
  C   C69       1.0  0.07358  0.65376  0.32998  1.0000
  C   C70       1.0  0.07325  0.61632  0.33073  1.0000
  C   C71       1.0  0.96162  0.54228  0.32904  1.0000
  H   H32       1.0  0.03663  0.68057  0.32952  1.0000
  C   C72       1.0  0.10966  0.61499  0.33055  1.0000
  H   H33       1.0  0.93438  0.54146  0.32829  1.0000
  H   H34       1.0  0.93361  0.47923  0.33033  1.0000
  H   H35       1.0  0.13723  0.64107  0.33028  1.0000
  H   H36       1.0  0.13646  0.57884  0.32819  1.0000
  N   N20       1.0  0.10532  0.50094  0.32372  1.0000
  N   N21       1.0  0.96250  0.43154  0.33649  1.0000
  N   N22       1.0  0.10834  0.68876  0.33652  1.0000
  N   N23       1.0  0.96552  0.61937  0.32382  1.0000
  N   N24       1.0  0.66403  0.61584  0.33646  1.0000
  C   C73       1.0  0.26975  0.49345  0.33968  1.0000
  C   C74       1.0  0.29411  0.49551  0.41361  1.0000
  C   C75       1.0  0.32944  0.49321  0.39661  1.0000
  H   H37       1.0  0.34713  0.49408  0.44902  1.0000
  C   C76       1.0  0.23405  0.49531  0.35334  1.0000
  C   C77       1.0  0.16205  0.49846  0.37696  1.0000
  C   C78       1.0  0.18603  0.50064  0.45135  1.0000
  C   C79       1.0  0.22216  0.49914  0.44107  1.0000
  C   C80       1.0  0.24651  0.50118  0.51447  1.0000
  C   C81       1.0  0.28219  0.49941  0.50085  1.0000
  H   H38       1.0  0.17702  0.50341  0.51418  1.0000
  O   O1        1.0  0.23606  0.50474  0.59910  1.0000
  O   O2        1.0  0.30459  0.50134  0.57295  1.0000
  C   C82       1.0  0.12666  0.50013  0.38939  1.0000
  H   H39       1.0  0.11784  0.50140  0.45146  1.0000
  C   C83       1.0  0.60210  0.86119  0.33972  1.0000
  C   C84       1.0  0.60005  0.88348  0.41366  1.0000
  C   C85       1.0  0.60235  0.92111  0.39666  1.0000
  H   H40       1.0  0.60149  0.93794  0.44908  1.0000
  C   C86       1.0  0.60024  0.82362  0.35337  1.0000
  C   C87       1.0  0.59707  0.74846  0.37699  1.0000
  C   C88       1.0  0.59489  0.77026  0.45139  1.0000
  C   C89       1.0  0.59641  0.80790  0.44111  1.0000
  C   C90       1.0  0.59437  0.83020  0.51451  1.0000
  C   C91       1.0  0.59615  0.86766  0.50090  1.0000
  H   H41       1.0  0.59212  0.75848  0.51421  1.0000
  O   O3        1.0  0.59081  0.81619  0.59914  1.0000
  O   O4        1.0  0.59423  0.88813  0.57300  1.0000
  C   C92       1.0  0.59537  0.71139  0.38943  1.0000
  H   H42       1.0  0.59405  0.70128  0.45149  1.0000
  C   C93       1.0  0.23438  0.82581  0.33968  1.0000
  C   C94       1.0  0.21208  0.80145  0.41361  1.0000
  C   C95       1.0  0.17446  0.76613  0.39661  1.0000
  H   H43       1.0  0.15763  0.74843  0.44902  1.0000
  C   C96       1.0  0.27194  0.86151  0.35334  1.0000
  C   C97       1.0  0.34709  0.93351  0.37696  1.0000
  C   C98       1.0  0.32530  0.90953  0.45136  1.0000
  C   C99       1.0  0.28766  0.87340  0.44108  1.0000
  C   C100      1.0  0.26536  0.84905  0.51447  1.0000
  C   C101      1.0  0.22791  0.81337  0.50085  1.0000
  H   H44       1.0  0.33708  0.91854  0.51418  1.0000
  O   O5        1.0  0.27937  0.85950  0.59910  1.0000
  O   O6        1.0  0.20743  0.79098  0.57295  1.0000
  C   C102      1.0  0.38416  0.96889  0.38940  1.0000
  H   H45       1.0  0.39424  0.97771  0.45146  1.0000
  C   C103      1.0  0.80108  0.62685  0.33968  1.0000
  C   C104      1.0  0.77671  0.62479  0.41360  1.0000
  C   C105      1.0  0.74139  0.62709  0.39658  1.0000
  H   H46       1.0  0.72369  0.62623  0.44897  1.0000
  C   C106      1.0  0.83678  0.62498  0.35336  1.0000
  C   C107      1.0  0.90876  0.62182  0.37702  1.0000
  C   C108      1.0  0.88479  0.61964  0.45140  1.0000
  C   C109      1.0  0.84866  0.62116  0.44110  1.0000
  C   C110      1.0  0.82431  0.61912  0.51448  1.0000
  C   C111      1.0  0.78863  0.62089  0.50085  1.0000
  H   H47       1.0  0.89379  0.61688  0.51423  1.0000
  O   O7        1.0  0.83475  0.61556  0.59912  1.0000
  O   O8        1.0  0.76623  0.61897  0.57293  1.0000
  C   C112      1.0  0.94415  0.62013  0.38948  1.0000
  H   H48       1.0  0.95294  0.61884  0.45154  1.0000
  C   C113      1.0  0.46872  0.25911  0.33970  1.0000
  C   C114      1.0  0.47078  0.23681  0.41363  1.0000
  C   C115      1.0  0.46848  0.19919  0.39662  1.0000
  H   H49       1.0  0.46934  0.18235  0.44902  1.0000
  C   C116      1.0  0.47058  0.29668  0.35337  1.0000
  C   C117      1.0  0.47375  0.37183  0.37702  1.0000
  C   C118      1.0  0.47593  0.35003  0.45141  1.0000
  C   C119      1.0  0.47441  0.31239  0.44112  1.0000
  C   C120      1.0  0.47646  0.29009  0.51450  1.0000
  C   C121      1.0  0.47468  0.25263  0.50087  1.0000
  H   H50       1.0  0.47870  0.36181  0.51423  1.0000
  O   O9        1.0  0.48002  0.30409  0.59913  1.0000
  O   O10       1.0  0.47661  0.23216  0.57296  1.0000
  C   C122      1.0  0.47543  0.40890  0.38947  1.0000
  H   H51       1.0  0.47673  0.41899  0.45154  1.0000
  C   C123      1.0  0.83646  0.29449  0.33967  1.0000
  C   C124      1.0  0.85876  0.31885  0.41360  1.0000
  C   C125      1.0  0.89638  0.35418  0.39658  1.0000
  H   H52       1.0  0.91321  0.37187  0.44899  1.0000
  C   C126      1.0  0.79890  0.25878  0.35334  1.0000
  C   C127      1.0  0.72376  0.18678  0.37698  1.0000
  C   C128      1.0  0.74555  0.21076  0.45138  1.0000
  C   C129      1.0  0.78319  0.24689  0.44108  1.0000
  C   C130      1.0  0.80549  0.27125  0.51447  1.0000
  C   C131      1.0  0.84294  0.30693  0.50084  1.0000
  H   H53       1.0  0.73378  0.20175  0.51421  1.0000
  O   O11       1.0  0.79148  0.26080  0.59911  1.0000
  O   O12       1.0  0.86341  0.32933  0.57294  1.0000
  C   C132      1.0  0.68671  0.15138  0.38944  1.0000
  H   H54       1.0  0.67665  0.14253  0.45151  1.0000
