data_image0
_chemical_formula_structural       C17H12C17H12NC2OCH3NC2OCH3NC2OCH3C13H9C13H9CNCOCH3CNCOCH3CNCOCH3
_chemical_formula_sum              "C78 H60 N6 O6"
_cell_length_a       37.3191
_cell_length_b       37.2937
_cell_length_c       14.8603
_cell_angle_alpha    90
_cell_angle_beta     90
_cell_angle_gamma    120.036

_space_group_name_H-M_alt    "P 1"
_space_group_IT_number       1

loop_
  _space_group_symop_operation_xyz
  'x, y, z'

loop_
  _atom_site_type_symbol
  _atom_site_label
  _atom_site_symmetry_multiplicity
  _atom_site_fract_x
  _atom_site_fract_y
  _atom_site_fract_z
  _atom_site_occupancy
  C   C1        1.0  0.47584  0.89305  0.36754  1.0000
  C   C2        1.0  0.45163  0.84958  0.37347  1.0000
  C   C3        1.0  0.39060  0.75833  0.31648  1.0000
  C   C4        1.0  0.36539  0.71535  0.32348  1.0000
  C   C5        1.0  0.32162  0.69578  0.32281  1.0000
  C   C6        1.0  0.29624  0.65211  0.32326  1.0000
  C   C7        1.0  0.31578  0.62789  0.32264  1.0000
  C   C8        1.0  0.35941  0.64618  0.32324  1.0000
  C   C9        1.0  0.38364  0.68998  0.32279  1.0000
  C   C10       1.0  0.37716  0.62098  0.31616  1.0000
  C   C11       1.0  0.42912  0.60242  0.34946  1.0000
  C   C12       1.0  0.40741  0.56001  0.37306  1.0000
  C   C13       1.0  0.42666  0.53583  0.36711  1.0000
  C   C14       1.0  0.25329  0.63436  0.31622  1.0000
  C   C15       1.0  0.18272  0.58239  0.34941  1.0000
  C   C16       1.0  0.15870  0.54100  0.31960  1.0000
  C   C17       1.0  0.11533  0.52207  0.31273  1.0000
  H   H1        1.0  0.50637  0.90692  0.38552  1.0000
  H   H2        1.0  0.46505  0.83323  0.39669  1.0000
  H   H3        1.0  0.41523  0.70372  0.31942  1.0000
  H   H4        1.0  0.30791  0.71365  0.31952  1.0000
  H   H5        1.0  0.29790  0.59627  0.31921  1.0000
  H   H6        1.0  0.41001  0.50529  0.38518  1.0000
  H   H7        1.0  0.37764  0.54654  0.39636  1.0000
  H   H8        1.0  0.09902  0.49171  0.29339  1.0000
  H   H9        1.0  0.17254  0.52411  0.30329  1.0000
  H   H10       1.0  0.36305  0.59637  0.27598  1.0000
  H   H11       1.0  0.41520  0.76885  0.27630  1.0000
  H   H12       1.0  0.24283  0.64854  0.27624  1.0000
  C   C18       1.0  0.53831  0.11633  0.31519  1.0000
  C   C19       1.0  0.56119  0.15996  0.31772  1.0000
  C   C20       1.0  0.62504  0.25129  0.29276  1.0000
  C   C21       1.0  0.64929  0.29417  0.30013  1.0000
  C   C22       1.0  0.69304  0.31404  0.29954  1.0000
  C   C23       1.0  0.71777  0.35774  0.30007  1.0000
  C   C24       1.0  0.69793  0.38164  0.29950  1.0000
  C   C25       1.0  0.65427  0.36267  0.30009  1.0000
  C   C26       1.0  0.63035  0.31889  0.29955  1.0000
  C   C27       1.0  0.63569  0.38693  0.29264  1.0000
  C   C28       1.0  0.58733  0.40855  0.34365  1.0000
  C   C29       1.0  0.60820  0.45073  0.31748  1.0000
  C   C30       1.0  0.58747  0.47360  0.31492  1.0000
  C   C31       1.0  0.76060  0.37634  0.29256  1.0000
  C   C32       1.0  0.83064  0.42471  0.34350  1.0000
  C   C33       1.0  0.85471  0.46703  0.36721  1.0000
  C   C34       1.0  0.89827  0.48756  0.36542  1.0000
  H   H13       1.0  0.50774  0.10218  0.29746  1.0000
  H   H14       1.0  0.54642  0.17597  0.30180  1.0000
  H   H15       1.0  0.59871  0.30482  0.29665  1.0000
  H   H16       1.0  0.70708  0.29644  0.29663  1.0000
  H   H17       1.0  0.71553  0.41331  0.29651  1.0000
  H   H18       1.0  0.60393  0.50419  0.29721  1.0000
  H   H19       1.0  0.63901  0.46555  0.30164  1.0000
  H   H20       1.0  0.91434  0.51830  0.38191  1.0000
  H   H21       1.0  0.84070  0.48343  0.38632  1.0000
  H   H22       1.0  0.64436  0.40648  0.24100  1.0000
  H   H23       1.0  0.60553  0.24039  0.24107  1.0000
  H   H24       1.0  0.77146  0.36763  0.24098  1.0000
  N   N1        1.0  0.53180  0.50578  0.27139  1.0000
  C   C35       1.0  0.51426  0.53003  0.26440  1.0000
  C   C36       1.0  0.48758  0.52859  0.33396  1.0000
  O   O1        1.0  0.52312  0.55456  0.18987  1.0000
  C   C37       1.0  0.49559  0.53384  0.11587  1.0000
  H   H25       1.0  0.50499  0.55542  0.05957  1.0000
  H   H26       1.0  0.46361  0.52451  0.13303  1.0000
  H   H27       1.0  0.49728  0.50672  0.09424  1.0000
  N   N2        1.0  0.50604  0.02838  0.27188  1.0000
  C   C38       1.0  0.48177  0.98655  0.26491  1.0000
  C   C39       1.0  0.48317  0.96130  0.33450  1.0000
  O   O2        1.0  0.45725  0.97088  0.19039  1.0000
  C   C40       1.0  0.47792  0.96401  0.11640  1.0000
  H   H28       1.0  0.45635  0.95183  0.06011  1.0000
  H   H29       1.0  0.48720  0.94132  0.13360  1.0000
  H   H30       1.0  0.50505  0.99283  0.09474  1.0000
  N   N3        1.0  0.98335  0.48007  0.27120  1.0000
  C   C41       1.0  0.02514  0.49755  0.26422  1.0000
  C   C42       1.0  0.05043  0.52415  0.33388  1.0000
  O   O3        1.0  0.04073  0.48871  0.18958  1.0000
  C   C43       1.0  0.04764  0.51635  0.11573  1.0000
  H   H31       1.0  0.05976  0.50697  0.05933  1.0000
  H   H32       1.0  0.07038  0.54833  0.13303  1.0000
  H   H33       1.0  0.01886  0.51474  0.09419  1.0000
  C   C44       1.0  0.45868  0.91722  0.33698  1.0000
  C   C45       1.0  0.40924  0.82891  0.35000  1.0000
  C   C46       1.0  0.39176  0.85288  0.32077  1.0000
  C   C47       1.0  0.41616  0.89629  0.31394  1.0000
  C   C48       1.0  0.38426  0.78631  0.36013  1.0000
  C   C49       1.0  0.41152  0.62738  0.35969  1.0000
  C   C50       1.0  0.47056  0.61994  0.32015  1.0000
  C   C51       1.0  0.46798  0.55304  0.33641  1.0000
  C   C52       1.0  0.48956  0.59558  0.31322  1.0000
  C   C53       1.0  0.22528  0.59992  0.35956  1.0000
  C   C54       1.0  0.16213  0.60410  0.37357  1.0000
  C   C55       1.0  0.09448  0.54367  0.33638  1.0000
  C   C56       1.0  0.11870  0.58492  0.36760  1.0000
  H   H34       1.0  0.40203  0.91256  0.29500  1.0000
  H   H35       1.0  0.36097  0.83898  0.30495  1.0000
  H   H36       1.0  0.17852  0.63382  0.39725  1.0000
  H   H37       1.0  0.48744  0.65076  0.30427  1.0000
  H   H38       1.0  0.51997  0.60976  0.29432  1.0000
  H   H39       1.0  0.10490  0.60159  0.38604  1.0000
  H   H40       1.0  0.42616  0.65184  0.39990  1.0000
  H   H41       1.0  0.35980  0.77647  0.40032  1.0000
  H   H42       1.0  0.23505  0.58519  0.39959  1.0000
  C   C57       1.0  0.55638  0.09236  0.34093  1.0000
  C   C58       1.0  0.60334  0.18127  0.34401  1.0000
  C   C59       1.0  0.62159  0.15728  0.36803  1.0000
  C   C60       1.0  0.59860  0.11369  0.36628  1.0000
  C   C61       1.0  0.62660  0.22441  0.35090  1.0000
  C   C62       1.0  0.60719  0.38530  0.35064  1.0000
  C   C63       1.0  0.54505  0.39023  0.36754  1.0000
  C   C64       1.0  0.54540  0.45546  0.34048  1.0000
  C   C65       1.0  0.52447  0.41319  0.36575  1.0000
  C   C66       1.0  0.78753  0.40490  0.35048  1.0000
  C   C67       1.0  0.85184  0.40373  0.31759  1.0000
  C   C68       1.0  0.91948  0.46653  0.34034  1.0000
  C   C69       1.0  0.89544  0.42440  0.31504  1.0000
  H   H43       1.0  0.61329  0.09768  0.38301  1.0000
  H   H44       1.0  0.65199  0.17137  0.38737  1.0000
  H   H45       1.0  0.83577  0.37289  0.30186  1.0000
  H   H46       1.0  0.52872  0.35980  0.38680  1.0000
  H   H47       1.0  0.49376  0.39847  0.38235  1.0000
  H   H48       1.0  0.90950  0.40789  0.29741  1.0000
  H   H49       1.0  0.59872  0.36528  0.40149  1.0000
  H   H50       1.0  0.64658  0.23599  0.40180  1.0000
  H   H51       1.0  0.77602  0.41341  0.40132  1.0000
  C   C70       1.0  0.52514  0.47929  0.34071  1.0000
  N   N4        1.0  0.48109  0.50221  0.40336  1.0000
  C   C71       1.0  0.49853  0.47791  0.41032  1.0000
  O   O4        1.0  0.49003  0.45383  0.48551  1.0000
  C   C72       1.0  0.51761  0.47513  0.55909  1.0000
  H   H52       1.0  0.50853  0.45386  0.61590  1.0000
  H   H53       1.0  0.51561  0.50218  0.58003  1.0000
  H   H54       1.0  0.54965  0.48472  0.54182  1.0000
  C   C73       1.0  0.53252  0.04823  0.34120  1.0000
  N   N5        1.0  0.50953  0.98119  0.40390  1.0000
  C   C74       1.0  0.53386  0.02296  0.41084  1.0000
  O   O5        1.0  0.55791  0.03854  0.48604  1.0000
  C   C75       1.0  0.53663  0.04485  0.55960  1.0000
  H   H55       1.0  0.55789  0.05705  0.61642  1.0000
  H   H56       1.0  0.50959  0.01578  0.58053  1.0000
  H   H57       1.0  0.52708  0.06732  0.54230  1.0000
  C   C76       1.0  0.96357  0.48673  0.34057  1.0000
  N   N6        1.0  0.03059  0.53066  0.40332  1.0000
  C   C77       1.0  0.98885  0.51329  0.41025  1.0000
  O   O6        1.0  0.97332  0.52183  0.48543  1.0000
  C   C78       1.0  0.96691  0.49419  0.55898  1.0000
  H   H58       1.0  0.95475  0.50331  0.61577  1.0000
  H   H59       1.0  0.99589  0.49612  0.57995  1.0000
  H   H60       1.0  0.94437  0.46215  0.54166  1.0000
