data_image0
_chemical_formula_structural       C2H8C2H8C6H4NHC6H4NHC6H4NHC28H16CHCHCHC28H16CHCHCHC4H2C2H2NHC4H2C2H2NHC4H2C2H2NH
_chemical_formula_sum              "C102 H84 N6"
_cell_length_a       52.4519
_cell_length_b       52.447
_cell_length_c       14.9827
_cell_angle_alpha    90
_cell_angle_beta     90
_cell_angle_gamma    120.001

_space_group_name_H-M_alt    "P 1"
_space_group_IT_number       1

loop_
  _space_group_symop_operation_xyz
  'x, y, z'

loop_
  _atom_site_type_symbol
  _atom_site_label
  _atom_site_symmetry_multiplicity
  _atom_site_fract_x
  _atom_site_fract_y
  _atom_site_fract_z
  _atom_site_occupancy
  C   C1        1.0  0.37768  0.79747  0.34001  1.0000
  C   C2        1.0  0.39662  0.82813  0.33410  1.0000
  H   H1        1.0  0.38746  0.84119  0.32578  1.0000
  H   H2        1.0  0.35544  0.78922  0.33500  1.0000
  H   H3        1.0  0.45487  0.61395  0.32566  1.0000
  H   H4        1.0  0.16019  0.54664  0.32377  1.0000
  H   H5        1.0  0.21215  0.56650  0.33282  1.0000
  H   H6        1.0  0.12511  0.59018  0.28837  1.0000
  H   H7        1.0  0.41161  0.53552  0.28678  1.0000
  H   H8        1.0  0.46587  0.87634  0.28671  1.0000
  C   C3        1.0  0.62203  0.20401  0.30887  1.0000
  C   C4        1.0  0.60431  0.17326  0.31742  1.0000
  H   H9        1.0  0.61361  0.16060  0.30396  1.0000
  H   H10       1.0  0.64357  0.21257  0.29018  1.0000
  H   H11       1.0  0.54817  0.38783  0.30360  1.0000
  H   H12       1.0  0.84089  0.45294  0.30112  1.0000
  H   H13       1.0  0.78891  0.43084  0.28727  1.0000
  H   H14       1.0  0.88031  0.41490  0.31126  1.0000
  H   H15       1.0  0.58636  0.46549  0.31022  1.0000
  H   H16       1.0  0.53595  0.12120  0.31040  1.0000
  C   C5        1.0  0.52360  0.46008  0.25187  1.0000
  C   C6        1.0  0.51177  0.47893  0.24764  1.0000
  C   C7        1.0  0.49400  0.50948  0.32173  1.0000
  C   C8        1.0  0.47048  0.50299  0.26231  1.0000
  C   C9        1.0  0.45792  0.52117  0.25703  1.0000
  C   C10       1.0  0.46823  0.54627  0.31207  1.0000
  H   H17       1.0  0.46196  0.48469  0.22254  1.0000
  H   H18       1.0  0.44124  0.51606  0.21263  1.0000
  H   H19       1.0  0.52657  0.45145  0.19417  1.0000
  H   H20       1.0  0.50686  0.48380  0.18614  1.0000
  N   N1        1.0  0.45676  0.56560  0.30738  1.0000
  H   H21       1.0  0.45950  0.57357  0.24333  1.0000
  C   C11       1.0  0.54131  0.06380  0.25202  1.0000
  C   C12       1.0  0.52246  0.03313  0.24776  1.0000
  C   C13       1.0  0.49191  0.98479  0.32180  1.0000
  C   C14       1.0  0.49841  0.96777  0.26237  1.0000
  C   C15       1.0  0.48023  0.93702  0.25707  1.0000
  C   C16       1.0  0.45513  0.92222  0.31210  1.0000
  H   H22       1.0  0.51671  0.97755  0.22260  1.0000
  H   H23       1.0  0.48534  0.92545  0.21265  1.0000
  H   H24       1.0  0.54996  0.07541  0.19434  1.0000
  H   H25       1.0  0.51761  0.02335  0.18625  1.0000
  N   N2        1.0  0.43581  0.89142  0.30739  1.0000
  H   H26       1.0  0.42783  0.88619  0.24334  1.0000
  C   C17       1.0  0.93765  0.47799  0.25131  1.0000
  C   C18       1.0  0.96834  0.48990  0.24697  1.0000
  C   C19       1.0  0.01666  0.50756  0.32088  1.0000
  C   C20       1.0  0.03369  0.53137  0.26239  1.0000
  C   C21       1.0  0.06444  0.54399  0.25711  1.0000
  C   C22       1.0  0.07921  0.53341  0.31115  1.0000
  H   H27       1.0  0.02390  0.54005  0.22335  1.0000
  H   H28       1.0  0.07603  0.56090  0.21341  1.0000
  H   H29       1.0  0.92604  0.47513  0.19370  1.0000
  H   H30       1.0  0.97813  0.49499  0.18548  1.0000
  N   N3        1.0  0.11001  0.54492  0.30637  1.0000
  H   H31       1.0  0.11529  0.54254  0.24201  1.0000
  C   C23       1.0  0.42753  0.84061  0.34031  1.0000
  C   C24       1.0  0.43879  0.82139  0.35417  1.0000
  C   C25       1.0  0.41994  0.79074  0.35948  1.0000
  C   C26       1.0  0.38913  0.77837  0.35155  1.0000
  C   C27       1.0  0.37016  0.74822  0.35759  1.0000
  C   C28       1.0  0.37203  0.72856  0.30430  1.0000
  C   C29       1.0  0.35311  0.69830  0.30901  1.0000
  C   C30       1.0  0.32216  0.68590  0.30847  1.0000
  C   C31       1.0  0.30306  0.65507  0.30913  1.0000
  C   C32       1.0  0.31546  0.63652  0.30836  1.0000
  C   C33       1.0  0.34630  0.64826  0.30887  1.0000
  C   C34       1.0  0.36484  0.67920  0.30822  1.0000
  C   C35       1.0  0.35764  0.62934  0.30417  1.0000
  C   C36       1.0  0.37920  0.63124  0.35736  1.0000
  C   C37       1.0  0.39038  0.61227  0.35135  1.0000
  C   C38       1.0  0.42093  0.62373  0.33979  1.0000
  C   C39       1.0  0.37194  0.58146  0.35939  1.0000
  C   C40       1.0  0.38375  0.56261  0.35415  1.0000
  C   C41       1.0  0.41423  0.57388  0.34026  1.0000
  C   C42       1.0  0.43265  0.60479  0.33396  1.0000
  C   C43       1.0  0.27280  0.64373  0.30465  1.0000
  C   C44       1.0  0.25316  0.62210  0.35767  1.0000
  C   C45       1.0  0.22302  0.61096  0.35181  1.0000
  C   C46       1.0  0.21067  0.62938  0.36125  1.0000
  C   C47       1.0  0.20391  0.58047  0.33889  1.0000
  C   C48       1.0  0.17326  0.56881  0.33309  1.0000
  C   C49       1.0  0.16080  0.58723  0.34077  1.0000
  C   C50       1.0  0.18002  0.61762  0.35604  1.0000
  H   H32       1.0  0.46100  0.82965  0.35994  1.0000
  H   H33       1.0  0.42892  0.77755  0.36955  1.0000
  H   H34       1.0  0.38723  0.68796  0.30589  1.0000
  H   H35       1.0  0.31341  0.69954  0.30635  1.0000
  H   H36       1.0  0.30183  0.61413  0.30615  1.0000
  H   H37       1.0  0.22387  0.65150  0.37230  1.0000
  H   H38       1.0  0.43492  0.64597  0.33477  1.0000
  H   H39       1.0  0.36980  0.54040  0.35997  1.0000
  H   H40       1.0  0.34977  0.57248  0.36947  1.0000
  H   H41       1.0  0.17178  0.63157  0.36289  1.0000
  H   H42       1.0  0.38830  0.64739  0.40215  1.0000
  H   H43       1.0  0.34870  0.61314  0.25943  1.0000
  H   H44       1.0  0.35403  0.74118  0.40243  1.0000
  H   H45       1.0  0.38820  0.73582  0.25949  1.0000
  H   H46       1.0  0.26019  0.61291  0.40216  1.0000
  H   H47       1.0  0.26552  0.65275  0.26025  1.0000
  C   C51       1.0  0.12853  0.57611  0.33509  1.0000
  H   H48       1.0  0.12128  0.57877  0.40117  1.0000
  C   C52       1.0  0.42540  0.55278  0.33450  1.0000
  H   H49       1.0  0.42237  0.54254  0.40020  1.0000
  C   C53       1.0  0.44864  0.87288  0.33448  1.0000
  H   H50       1.0  0.45890  0.88010  0.40016  1.0000
  C   C54       1.0  0.57449  0.16023  0.34413  1.0000
  C   C55       1.0  0.56291  0.17906  0.36026  1.0000
  C   C56       1.0  0.58052  0.20979  0.35114  1.0000
  C   C57       1.0  0.61051  0.22278  0.32655  1.0000
  C   C58       1.0  0.62856  0.25310  0.31760  1.0000
  C   C59       1.0  0.62969  0.27283  0.37719  1.0000
  C   C60       1.0  0.64848  0.30294  0.36954  1.0000
  C   C61       1.0  0.67937  0.31505  0.37031  1.0000
  C   C62       1.0  0.69856  0.34586  0.36978  1.0000
  C   C63       1.0  0.68646  0.36464  0.37014  1.0000
  C   C64       1.0  0.65566  0.35303  0.36937  1.0000
  C   C65       1.0  0.63687  0.32214  0.36993  1.0000
  C   C66       1.0  0.64434  0.37183  0.37691  1.0000
  C   C67       1.0  0.62577  0.37296  0.31720  1.0000
  C   C68       1.0  0.61347  0.39099  0.32616  1.0000
  C   C69       1.0  0.58319  0.37946  0.30846  1.0000
  C   C70       1.0  0.63045  0.42098  0.35079  1.0000
  C   C71       1.0  0.61731  0.43857  0.35995  1.0000
  C   C72       1.0  0.58691  0.42697  0.34382  1.0000
  C   C73       1.0  0.57013  0.39714  0.31706  1.0000
  C   C74       1.0  0.72866  0.35718  0.37771  1.0000
  C   C75       1.0  0.74839  0.37550  0.31763  1.0000
  C   C76       1.0  0.77872  0.38783  0.32674  1.0000
  C   C77       1.0  0.79172  0.37099  0.35310  1.0000
  C   C78       1.0  0.79748  0.41799  0.30730  1.0000
  C   C79       1.0  0.82823  0.43108  0.31589  1.0000
  C   C80       1.0  0.84127  0.41446  0.34435  1.0000
  C   C81       1.0  0.82245  0.38417  0.36219  1.0000
  H   H51       1.0  0.54136  0.17045  0.37875  1.0000
  H   H52       1.0  0.57118  0.22257  0.36268  1.0000
  H   H53       1.0  0.61450  0.31354  0.37276  1.0000
  H   H54       1.0  0.68797  0.30129  0.37352  1.0000
  H   H55       1.0  0.70023  0.38701  0.37315  1.0000
  H   H56       1.0  0.77894  0.34895  0.36593  1.0000
  H   H57       1.0  0.57022  0.35791  0.28974  1.0000
  H   H58       1.0  0.63023  0.46012  0.37849  1.0000
  H   H59       1.0  0.65258  0.43034  0.36235  1.0000
  H   H60       1.0  0.83108  0.37136  0.38198  1.0000
  H   H61       1.0  0.61942  0.35934  0.26512  1.0000
  H   H62       1.0  0.65051  0.38501  0.42994  1.0000
  H   H63       1.0  0.64219  0.26037  0.26551  1.0000
  H   H64       1.0  0.61649  0.26584  0.43020  1.0000
  H   H65       1.0  0.74112  0.38160  0.26495  1.0000
  H   H66       1.0  0.73563  0.35123  0.43133  1.0000
  C   C82       1.0  0.87366  0.42712  0.35562  1.0000
  H   H67       1.0  0.87781  0.42316  0.42443  1.0000
  C   C83       1.0  0.57429  0.44674  0.35514  1.0000
  H   H68       1.0  0.57849  0.45504  0.42373  1.0000
  C   C84       1.0  0.55469  0.12784  0.35536  1.0000
  H   H69       1.0  0.54637  0.12373  0.42394  1.0000
  C   C85       1.0  0.53144  0.45319  0.33453  1.0000
  C   C86       1.0  0.50695  0.49109  0.32604  1.0000
  C   C87       1.0  0.51499  0.48401  0.40884  1.0000
  C   C88       1.0  0.52716  0.46544  0.41310  1.0000
  H   H70       1.0  0.51133  0.49168  0.46745  1.0000
  H   H71       1.0  0.53221  0.46027  0.47392  1.0000
  C   C89       1.0  0.49155  0.55295  0.37152  1.0000
  C   C90       1.0  0.50424  0.53483  0.37632  1.0000
  H   H72       1.0  0.49964  0.57128  0.41105  1.0000
  H   H73       1.0  0.52157  0.54081  0.41890  1.0000
  N   N4        1.0  0.54231  0.43335  0.33573  1.0000
  H   H74       1.0  0.53016  0.41681  0.38052  1.0000
  C   C91       1.0  0.54820  0.07852  0.33469  1.0000
  C   C92       1.0  0.51030  0.01614  0.32614  1.0000
  C   C93       1.0  0.51737  0.03124  0.40896  1.0000
  C   C94       1.0  0.53594  0.06198  0.41325  1.0000
  H   H75       1.0  0.50970  0.01991  0.46755  1.0000
  H   H76       1.0  0.54111  0.07221  0.47408  1.0000
  C   C95       1.0  0.44845  0.93886  0.37157  1.0000
  C   C96       1.0  0.46656  0.96966  0.37638  1.0000
  H   H77       1.0  0.43012  0.92861  0.41109  1.0000
  H   H78       1.0  0.46058  0.98101  0.41898  1.0000
  N   N5        1.0  0.56805  0.10924  0.33594  1.0000
  H   H79       1.0  0.58458  0.11360  0.38075  1.0000
  C   C97       1.0  0.92293  0.46997  0.33398  1.0000
  C   C98       1.0  0.98531  0.49457  0.32527  1.0000
  C   C99       1.0  0.97022  0.48635  0.40807  1.0000
  C   C100      1.0  0.93948  0.47414  0.41245  1.0000
  H   H80       1.0  0.98156  0.48989  0.46660  1.0000
  H   H81       1.0  0.92926  0.46896  0.47328  1.0000
  C   C101      1.0  0.06255  0.50978  0.36964  1.0000
  C   C102      1.0  0.03175  0.49706  0.37449  1.0000
  H   H82       1.0  0.07279  0.50151  0.40843  1.0000
  H   H83       1.0  0.02038  0.47953  0.41638  1.0000
  N   N6        1.0  0.89221  0.45904  0.33533  1.0000
  H   H84       1.0  0.88786  0.47131  0.37977  1.0000
