data_image0
_chemical_formula_structural       C5HN2C3HCHN2CHNH2C2H2CHCNC2H2CHC4HN2C2H2CHNC2HCHNC2HCH2C2OH3CHN2C2OH2C4H6NOHNC3OH2CHC2NCHC5HN2C2HCHCHC2NCHCNHC4H2N2C2HCHC3HNC3OH2CHOH2C4HN3C2HCHC2HC2HN2CNC2OH2CHCNC2OH3CHC4H2C4H2N3C2HCHC
_chemical_formula_sum              "C104 H72 N32 O8"
_cell_length_a       31.0534
_cell_length_b       31.0534
_cell_length_c       14.7219
_cell_angle_alpha    90
_cell_angle_beta     90
_cell_angle_gamma    90

_space_group_name_H-M_alt    "P 1"
_space_group_IT_number       1

loop_
  _space_group_symop_operation_xyz
  'x, y, z'

loop_
  _atom_site_type_symbol
  _atom_site_label
  _atom_site_symmetry_multiplicity
  _atom_site_fract_x
  _atom_site_fract_y
  _atom_site_fract_z
  _atom_site_occupancy
  C   C1        1.0  0.01674  0.02358  0.36538  1.0000
  C   C2        1.0  0.08235  0.08606  0.32990  1.0000
  C   C3        1.0  0.09417  0.04387  0.35505  1.0000
  C   C4        1.0  0.06137  0.01406  0.37642  1.0000
  C   C5        1.0  0.03901  0.09926  0.33251  1.0000
  H   H1        1.0  0.10593  0.10852  0.31887  1.0000
  N   N1        1.0  0.13590  0.03084  0.35978  1.0000
  N   N2        1.0  0.03164  0.14210  0.32176  1.0000
  C   C6        1.0  0.21207  0.03136  0.32986  1.0000
  C   C7        1.0  0.24394  0.02250  0.26309  1.0000
  C   C8        1.0  0.23557  0.02132  0.16382  1.0000
  H   H2        1.0  0.22470  0.05308  0.14187  1.0000
  C   C9        1.0  0.16986  0.04489  0.31029  1.0000
  H   H3        1.0  0.16325  0.05753  0.24768  1.0000
  N   N3        1.0  0.22466  0.03134  0.41845  1.0000
  N   N4        1.0  0.03728  0.23224  0.30797  1.0000
  C   C10       1.0  0.00687  0.06775  0.34808  1.0000
  H   H4        1.0  0.47576  0.07738  0.34062  1.0000
  N   N5        1.0  0.28442  0.01275  0.29218  1.0000
  H   H5        1.0  0.26502  0.01407  0.12596  1.0000
  H   H6        1.0  0.42956  0.02990  0.39231  1.0000
  C   C11       1.0  0.26581  0.02415  0.44588  1.0000
  C   C12       1.0  0.29718  0.01342  0.38048  1.0000
  H   H7        1.0  0.27308  0.02530  0.51354  1.0000
  H   H8        1.0  0.35272  0.01803  0.46240  1.0000
  C   C13       1.0  0.50687  0.06775  0.34808  1.0000
  H   H9        1.0  0.97576  0.07738  0.34062  1.0000
  C   C14       1.0  0.71206  0.03136  0.32986  1.0000
  N   N6        1.0  0.78442  0.01275  0.29218  1.0000
  C   C15       1.0  0.74395  0.02250  0.26309  1.0000
  C   C16       1.0  0.73557  0.02132  0.16382  1.0000
  H   H10       1.0  0.76502  0.01407  0.12596  1.0000
  H   H11       1.0  0.72470  0.05308  0.14187  1.0000
  C   C17       1.0  0.66986  0.04489  0.31029  1.0000
  H   H12       1.0  0.66325  0.05753  0.24768  1.0000
  C   C18       1.0  0.51674  0.02358  0.36538  1.0000
  C   C19       1.0  0.58235  0.08606  0.32990  1.0000
  C   C20       1.0  0.59417  0.04387  0.35505  1.0000
  C   C21       1.0  0.56138  0.01406  0.37642  1.0000
  H   H13       1.0  0.92956  0.02990  0.39231  1.0000
  N   N7        1.0  0.63590  0.03084  0.35978  1.0000
  N   N8        1.0  0.72467  0.03134  0.41845  1.0000
  C   C22       1.0  0.76580  0.02415  0.44588  1.0000
  C   C23       1.0  0.79718  0.01342  0.38048  1.0000
  H   H14       1.0  0.77308  0.02530  0.51354  1.0000
  H   H15       1.0  0.85272  0.01803  0.46240  1.0000
  C   C24       1.0  0.53901  0.09926  0.33251  1.0000
  H   H16       1.0  0.60593  0.10852  0.31887  1.0000
  N   N9        1.0  0.53164  0.14210  0.32176  1.0000
  C   C25       1.0  0.46193  0.23891  0.32125  1.0000
  C   C26       1.0  0.49856  0.21216  0.31639  1.0000
  H   H17       1.0  0.43166  0.22640  0.32809  1.0000
  C   C27       1.0  0.49584  0.16698  0.32227  1.0000
  H   H18       1.0  0.46641  0.15291  0.33170  1.0000
  N   N10       1.0  0.53728  0.23224  0.30797  1.0000
  C   C28       1.0  0.96193  0.23891  0.32125  1.0000
  C   C29       1.0  0.99857  0.21216  0.31639  1.0000
  H   H19       1.0  0.93166  0.22640  0.32809  1.0000
  C   C30       1.0  0.99584  0.16698  0.32227  1.0000
  H   H20       1.0  0.96641  0.15291  0.33170  1.0000
  H   H21       1.0  0.02571  0.43723  0.33824  1.0000
  C   C31       1.0  0.04298  0.27575  0.30481  1.0000
  C   C32       1.0  0.08768  0.29191  0.29387  1.0000
  O   O1        1.0  0.09294  0.31612  0.21178  1.0000
  H   H22       1.0  0.09552  0.31275  0.35124  1.0000
  H   H23       1.0  0.03614  0.36335  0.31501  1.0000
  H   H24       1.0  0.07099  0.48394  0.39536  1.0000
  C   C33       1.0  0.03901  0.59926  0.33251  1.0000
  H   H25       1.0  0.02571  0.93723  0.33824  1.0000
  N   N11       1.0  0.03164  0.64210  0.32176  1.0000
  N   N12       1.0  0.03728  0.73224  0.30797  1.0000
  C   C34       1.0  0.04298  0.77575  0.30481  1.0000
  C   C35       1.0  0.08768  0.79191  0.29387  1.0000
  O   O2        1.0  0.09294  0.81612  0.21178  1.0000
  H   H26       1.0  0.09552  0.81275  0.35124  1.0000
  H   H27       1.0  0.03614  0.86335  0.31501  1.0000
  C   C36       1.0  0.01674  0.52358  0.36538  1.0000
  C   C37       1.0  0.08235  0.58606  0.32990  1.0000
  C   C38       1.0  0.09417  0.54386  0.35505  1.0000
  C   C39       1.0  0.06137  0.51406  0.37642  1.0000
  H   H28       1.0  0.07099  0.98394  0.39536  1.0000
  H   H29       1.0  0.08914  0.29643  0.15993  1.0000
  H   H30       1.0  0.08914  0.79643  0.15993  1.0000
  H   H31       1.0  0.11089  0.26539  0.29438  1.0000
  H   H32       1.0  0.11089  0.76539  0.29438  1.0000
  H   H33       1.0  0.10593  0.60851  0.31887  1.0000
  N   N13       1.0  0.13590  0.53083  0.35978  1.0000
  O   O3        1.0  0.20309  0.99054  0.14015  1.0000
  H   H34       1.0  0.21430  0.46153  0.15336  1.0000
  N   N14       1.0  0.22466  0.53134  0.41845  1.0000
  C   C40       1.0  0.21207  0.53136  0.32986  1.0000
  C   C41       1.0  0.24394  0.52250  0.26309  1.0000
  C   C42       1.0  0.23557  0.52131  0.16382  1.0000
  O   O4        1.0  0.20309  0.49054  0.14015  1.0000
  H   H35       1.0  0.22470  0.55308  0.14187  1.0000
  H   H36       1.0  0.21430  0.96154  0.15336  1.0000
  C   C43       1.0  0.16986  0.54489  0.31029  1.0000
  H   H37       1.0  0.16325  0.55753  0.24768  1.0000
  C   C44       1.0  0.46279  0.41456  0.33102  1.0000
  C   C45       1.0  0.49453  0.44648  0.34632  1.0000
  N   N15       1.0  0.47074  0.37187  0.31927  1.0000
  C   C46       1.0  0.00590  0.30252  0.31132  1.0000
  H   H38       1.0  0.58914  0.29643  0.15993  1.0000
  C   C47       1.0  0.00712  0.34795  0.31399  1.0000
  C   C48       1.0  0.48426  0.49048  0.36479  1.0000
  C   C49       1.0  0.43951  0.49971  0.37497  1.0000
  C   C50       1.0  0.40708  0.46914  0.35502  1.0000
  C   C51       1.0  0.41930  0.42719  0.32995  1.0000
  H   H39       1.0  0.39592  0.40458  0.31792  1.0000
  N   N16       1.0  0.36431  0.47797  0.35522  1.0000
  N   N17       1.0  0.46711  0.28232  0.31897  1.0000
  C   C52       1.0  0.26581  0.52415  0.44588  1.0000
  C   C53       1.0  0.29718  0.51343  0.38048  1.0000
  H   H40       1.0  0.27308  0.52531  0.51354  1.0000
  C   C54       1.0  0.34081  0.50721  0.40170  1.0000
  H   H41       1.0  0.35272  0.51803  0.46240  1.0000
  C   C55       1.0  0.00687  0.56775  0.34808  1.0000
  H   H42       1.0  0.47576  0.57738  0.34062  1.0000
  C   C56       1.0  0.46279  0.91456  0.33102  1.0000
  C   C57       1.0  0.49453  0.94648  0.34632  1.0000
  N   N18       1.0  0.47074  0.87186  0.31927  1.0000
  C   C58       1.0  0.00590  0.80252  0.31132  1.0000
  H   H43       1.0  0.58914  0.79643  0.15993  1.0000
  C   C59       1.0  0.00712  0.84795  0.31399  1.0000
  N   N19       1.0  0.28442  0.51274  0.29218  1.0000
  H   H44       1.0  0.26502  0.51407  0.12596  1.0000
  C   C60       1.0  0.48426  0.99048  0.36479  1.0000
  C   C61       1.0  0.43951  0.99971  0.37497  1.0000
  C   C62       1.0  0.40708  0.96914  0.35502  1.0000
  C   C63       1.0  0.41930  0.92719  0.32995  1.0000
  H   H45       1.0  0.42956  0.52989  0.39231  1.0000
  H   H46       1.0  0.39592  0.90458  0.31792  1.0000
  N   N20       1.0  0.36431  0.97797  0.35522  1.0000
  N   N21       1.0  0.46711  0.78232  0.31897  1.0000
  C   C64       1.0  0.46193  0.73891  0.32125  1.0000
  C   C65       1.0  0.49856  0.71216  0.31639  1.0000
  H   H47       1.0  0.43166  0.72640  0.32809  1.0000
  C   C66       1.0  0.49584  0.66698  0.32227  1.0000
  H   H48       1.0  0.46641  0.65291  0.33170  1.0000
  C   C67       1.0  0.34081  0.00721  0.40170  1.0000
  C   C68       1.0  0.96279  0.41456  0.33102  1.0000
  C   C69       1.0  0.99453  0.44648  0.34632  1.0000
  H   H49       1.0  0.52571  0.43723  0.33824  1.0000
  N   N22       1.0  0.97074  0.37187  0.31927  1.0000
  C   C70       1.0  0.50590  0.30252  0.31132  1.0000
  C   C71       1.0  0.54298  0.27575  0.30481  1.0000
  C   C72       1.0  0.58768  0.29191  0.29387  1.0000
  O   O5        1.0  0.59294  0.31612  0.21178  1.0000
  H   H50       1.0  0.61089  0.26539  0.29438  1.0000
  H   H51       1.0  0.59552  0.31275  0.35124  1.0000
  C   C73       1.0  0.50712  0.34795  0.31399  1.0000
  H   H52       1.0  0.53614  0.36335  0.31501  1.0000
  O   O6        1.0  0.70309  0.99054  0.14015  1.0000
  H   H53       1.0  0.71429  0.46153  0.15336  1.0000
  H   H54       1.0  0.57099  0.48394  0.39536  1.0000
  C   C74       1.0  0.98426  0.49048  0.36479  1.0000
  C   C75       1.0  0.93951  0.49971  0.37497  1.0000
  C   C76       1.0  0.90708  0.46914  0.35502  1.0000
  C   C77       1.0  0.91930  0.42719  0.32995  1.0000
  H   H55       1.0  0.89592  0.40458  0.31792  1.0000
  N   N23       1.0  0.86431  0.47797  0.35522  1.0000
  N   N24       1.0  0.96711  0.28232  0.31897  1.0000
  N   N25       1.0  0.72467  0.53134  0.41845  1.0000
  C   C78       1.0  0.76580  0.52415  0.44588  1.0000
  C   C79       1.0  0.79718  0.51343  0.38048  1.0000
  H   H56       1.0  0.77308  0.52531  0.51354  1.0000
  C   C80       1.0  0.84081  0.50721  0.40170  1.0000
  H   H57       1.0  0.85272  0.51803  0.46240  1.0000
  C   C81       1.0  0.50687  0.56775  0.34808  1.0000
  C   C82       1.0  0.53901  0.59926  0.33251  1.0000
  H   H58       1.0  0.97576  0.57738  0.34062  1.0000
  C   C83       1.0  0.96279  0.91456  0.33102  1.0000
  C   C84       1.0  0.99453  0.94648  0.34632  1.0000
  H   H59       1.0  0.52571  0.93723  0.33824  1.0000
  N   N26       1.0  0.97074  0.87186  0.31927  1.0000
  N   N27       1.0  0.53164  0.64210  0.32176  1.0000
  C   C85       1.0  0.50590  0.80252  0.31132  1.0000
  N   N28       1.0  0.53728  0.73224  0.30797  1.0000
  C   C86       1.0  0.54298  0.77575  0.30481  1.0000
  C   C87       1.0  0.58768  0.79191  0.29387  1.0000
  O   O7        1.0  0.59294  0.81612  0.21178  1.0000
  H   H60       1.0  0.61089  0.76539  0.29438  1.0000
  H   H61       1.0  0.59552  0.81275  0.35124  1.0000
  C   C88       1.0  0.50712  0.84795  0.31399  1.0000
  H   H62       1.0  0.53614  0.86335  0.31501  1.0000
  C   C89       1.0  0.71206  0.53136  0.32986  1.0000
  N   N29       1.0  0.78442  0.51274  0.29218  1.0000
  C   C90       1.0  0.74395  0.52250  0.26309  1.0000
  C   C91       1.0  0.73557  0.52131  0.16382  1.0000
  O   O8        1.0  0.70309  0.49054  0.14015  1.0000
  H   H63       1.0  0.76502  0.51407  0.12596  1.0000
  H   H64       1.0  0.72470  0.55308  0.14187  1.0000
  H   H65       1.0  0.71429  0.96154  0.15336  1.0000
  C   C92       1.0  0.66986  0.54489  0.31029  1.0000
  H   H66       1.0  0.66325  0.55753  0.24768  1.0000
  C   C93       1.0  0.51674  0.52358  0.36538  1.0000
  C   C94       1.0  0.58235  0.58606  0.32990  1.0000
  C   C95       1.0  0.59417  0.54386  0.35505  1.0000
  C   C96       1.0  0.56138  0.51406  0.37642  1.0000
  H   H67       1.0  0.57099  0.98394  0.39536  1.0000
  H   H68       1.0  0.60593  0.60851  0.31887  1.0000
  C   C97       1.0  0.98426  0.99048  0.36479  1.0000
  C   C98       1.0  0.93951  0.99971  0.37497  1.0000
  C   C99       1.0  0.90708  0.96914  0.35502  1.0000
  C   C100      1.0  0.91930  0.92719  0.32995  1.0000
  H   H69       1.0  0.92956  0.52989  0.39231  1.0000
  H   H70       1.0  0.89592  0.90458  0.31792  1.0000
  N   N30       1.0  0.86431  0.97797  0.35522  1.0000
  N   N31       1.0  0.63590  0.53083  0.35978  1.0000
  N   N32       1.0  0.96711  0.78232  0.31897  1.0000
  C   C101      1.0  0.96193  0.73891  0.32125  1.0000
  C   C102      1.0  0.99857  0.71216  0.31639  1.0000
  H   H71       1.0  0.93166  0.72640  0.32809  1.0000
  C   C103      1.0  0.99584  0.66698  0.32227  1.0000
  H   H72       1.0  0.96641  0.65291  0.33170  1.0000
  C   C104      1.0  0.84081  0.00721  0.40170  1.0000
