data_image0
_chemical_formula_structural       C4H2CNC3NC5NC2NC35H23C21H18C16H16C2H2C2H2C2H2C2H2C4H2C2H2C2H2C2H2C2H2C2H2C4H2C2H2C18H17C3NC3NC2NC5NC34H24C3NC3NC5NC5NC36H26C4NC2NC2H2C4NC2NC2H2C2NC2NC2H2C4NC2NC2H2C4NC2NC2H2C2NC2NC2H2
_chemical_formula_sum              "C276 H162 N24"
_cell_length_a       58.6759
_cell_length_b       58.6759
_cell_length_c       14.9694
_cell_angle_alpha    89.7736
_cell_angle_beta     90.2264
_cell_angle_gamma    120

_space_group_name_H-M_alt    "P 1"
_space_group_IT_number       1

loop_
  _space_group_symop_operation_xyz
  'x, y, z'

loop_
  _atom_site_type_symbol
  _atom_site_label
  _atom_site_symmetry_multiplicity
  _atom_site_fract_x
  _atom_site_fract_y
  _atom_site_fract_z
  _atom_site_occupancy
  C   C1        1.0  0.02217  0.63487  0.33309  1.0000
  C   C2        1.0  0.01355  0.60794  0.33182  1.0000
  C   C3        1.0  0.01338  0.50967  0.33211  1.0000
  C   C4        1.0  0.02191  0.49133  0.32740  1.0000
  H   H1        1.0  0.01085  0.64358  0.33542  1.0000
  H   H2        1.0  0.01049  0.47130  0.32479  1.0000
  C   C5        1.0  0.04934  0.64843  0.33253  1.0000
  N   N1        1.0  0.03572  0.60620  0.32964  1.0000
  C   C6        1.0  0.05793  0.63011  0.33019  1.0000
  C   C7        1.0  0.08473  0.63650  0.32986  1.0000
  C   C8        1.0  0.09331  0.61773  0.32954  1.0000
  N   N2        1.0  0.07841  0.59119  0.32913  1.0000
  C   C9        1.0  0.09328  0.57950  0.32935  1.0000
  C   C10       1.0  0.11943  0.59993  0.33020  1.0000
  C   C11       1.0  0.11945  0.62344  0.32954  1.0000
  C   C12       1.0  0.08465  0.55214  0.32876  1.0000
  C   C13       1.0  0.05780  0.53180  0.32943  1.0000
  N   N3        1.0  0.03564  0.53356  0.33327  1.0000
  C   C14       1.0  0.04908  0.50487  0.32542  1.0000
  C   C15       1.0  0.98659  0.50329  0.33471  1.0000
  N   N4        1.0  0.99291  0.54855  0.33345  1.0000
  C   C16       1.0  0.97806  0.56023  0.33437  1.0000
  C   C17       1.0  0.95190  0.53987  0.33725  1.0000
  C   C18       1.0  0.95186  0.51633  0.33811  1.0000
  C   C19       1.0  0.98675  0.58758  0.33328  1.0000
  C   C20       1.0  0.96707  0.59505  0.33361  1.0000
  C   C21       1.0  0.95583  0.59710  0.25258  1.0000
  C   C22       1.0  0.93565  0.60342  0.25292  1.0000
  C   C23       1.0  0.92615  0.60795  0.33397  1.0000
  C   C24       1.0  0.90456  0.61280  0.33439  1.0000
  C   C25       1.0  0.86015  0.60116  0.28379  1.0000
  C   C26       1.0  0.88199  0.59739  0.28121  1.0000
  C   C27       1.0  0.96678  0.47616  0.33616  1.0000
  C   C28       1.0  0.95488  0.46275  0.25613  1.0000
  C   C29       1.0  0.93419  0.43645  0.25830  1.0000
  C   C30       1.0  0.92468  0.42280  0.34029  1.0000
  C   C31       1.0  0.90269  0.39653  0.34262  1.0000
  C   C32       1.0  0.90010  0.37723  0.28039  1.0000
  C   C33       1.0  0.87793  0.35173  0.28098  1.0000
  C   C34       1.0  0.85762  0.34454  0.34431  1.0000
  C   C35       1.0  0.10445  0.54476  0.32682  1.0000
  C   C36       1.0  0.14676  0.53392  0.32630  1.0000
  C   C37       1.0  0.13973  0.54249  0.24777  1.0000
  C   C38       1.0  0.11874  0.54763  0.24775  1.0000
  C   C39       1.0  0.16899  0.53019  0.32751  1.0000
  C   C40       1.0  0.19369  0.55014  0.29573  1.0000
  C   C41       1.0  0.21593  0.54701  0.29923  1.0000
  C   C42       1.0  0.21429  0.52373  0.33374  1.0000
  C   C43       1.0  0.10451  0.66365  0.33219  1.0000
  C   C44       1.0  0.11146  0.67929  0.25407  1.0000
  C   C45       1.0  0.13184  0.70574  0.25600  1.0000
  C   C46       1.0  0.14607  0.71705  0.33563  1.0000
  C   C47       1.0  0.16803  0.74311  0.33653  1.0000
  C   C48       1.0  0.21241  0.79531  0.34259  1.0000
  C   C49       1.0  0.18802  0.79050  0.30692  1.0000
  C   C50       1.0  0.16619  0.76478  0.30359  1.0000
  H   H3        1.0  0.18581  0.80580  0.28462  1.0000
  H   H4        1.0  0.14870  0.76209  0.27912  1.0000
  H   H5        1.0  0.13692  0.71635  0.19780  1.0000
  H   H6        1.0  0.10203  0.67138  0.19493  1.0000
  H   H7        1.0  0.06068  0.66847  0.33447  1.0000
  H   H8        1.0  0.03570  0.58983  0.32785  1.0000
  H   H9        1.0  0.03570  0.54990  0.33833  1.0000
  H   H10       1.0  0.13604  0.64158  0.32952  1.0000
  H   H11       1.0  0.13601  0.59837  0.33103  1.0000
  H   H12       1.0  0.11441  0.55421  0.19023  1.0000
  H   H13       1.0  0.14996  0.54519  0.18973  1.0000
  H   H14       1.0  0.06036  0.49614  0.32114  1.0000
  H   H15       1.0  0.93530  0.49819  0.34016  1.0000
  H   H16       1.0  0.96079  0.47224  0.19592  1.0000
  H   H17       1.0  0.92545  0.42769  0.19918  1.0000
  H   H18       1.0  0.87678  0.33837  0.23480  1.0000
  H   H19       1.0  0.91446  0.38153  0.23401  1.0000
  H   H20       1.0  0.88077  0.58249  0.24244  1.0000
  H   H21       1.0  0.84385  0.58889  0.24719  1.0000
  H   H22       1.0  0.92791  0.60467  0.19294  1.0000
  H   H23       1.0  0.96203  0.59367  0.19289  1.0000
  H   H24       1.0  0.19589  0.56751  0.27198  1.0000
  H   H25       1.0  0.23357  0.56224  0.27786  1.0000
  C   C51       1.0  0.52464  0.61268  0.33414  1.0000
  C   C52       1.0  0.50425  0.61842  0.33848  1.0000
  C   C53       1.0  0.48074  0.59493  0.34027  1.0000
  C   C54       1.0  0.50671  0.45764  0.25467  1.0000
  C   C55       1.0  0.50029  0.43110  0.25521  1.0000
  C   C56       1.0  0.50170  0.35730  0.28526  1.0000
  C   C57       1.0  0.50576  0.38303  0.28267  1.0000
  C   C58       1.0  0.64362  0.59847  0.25449  1.0000
  C   C59       1.0  0.67018  0.60490  0.25624  1.0000
  C   C60       1.0  0.72935  0.63076  0.30346  1.0000
  C   C61       1.0  0.75536  0.63541  0.30684  1.0000
  C   C62       1.0  0.76094  0.61639  0.34285  1.0000
  C   C63       1.0  0.56131  0.69609  0.25035  1.0000
  C   C64       1.0  0.55630  0.67000  0.25051  1.0000
  C   C65       1.0  0.55322  0.74200  0.29823  1.0000
  C   C66       1.0  0.55610  0.76726  0.30166  1.0000
  C   C67       1.0  0.42726  0.53861  0.25896  1.0000
  C   C68       1.0  0.40110  0.53342  0.26086  1.0000
  C   C69       1.0  0.31026  0.52060  0.34539  1.0000
  C   C70       1.0  0.31685  0.50693  0.28246  1.0000
  C   C71       1.0  0.34203  0.50948  0.28239  1.0000
  H   H26       1.0  0.30331  0.49492  0.23618  1.0000
  H   H27       1.0  0.34593  0.49907  0.23624  1.0000
  H   H28       1.0  0.39240  0.53358  0.20167  1.0000
  H   H29       1.0  0.43672  0.54212  0.19887  1.0000
  H   H30       1.0  0.46262  0.59334  0.34386  1.0000
  H   H31       1.0  0.54970  0.65917  0.19310  1.0000
  H   H32       1.0  0.55851  0.70365  0.19229  1.0000
  H   H33       1.0  0.60801  0.66325  0.32863  1.0000
  H   H34       1.0  0.63557  0.59998  0.19554  1.0000
  H   H35       1.0  0.68073  0.61069  0.19811  1.0000
  H   H36       1.0  0.77029  0.65307  0.28422  1.0000
  H   H37       1.0  0.72612  0.64519  0.27872  1.0000
  H   H38       1.0  0.52048  0.39658  0.24282  1.0000
  H   H39       1.0  0.51361  0.35308  0.24769  1.0000
  H   H40       1.0  0.49877  0.42212  0.19525  1.0000
  H   H41       1.0  0.50996  0.46730  0.19489  1.0000
  H   H42       1.0  0.53589  0.72677  0.27466  1.0000
  H   H43       1.0  0.54074  0.76952  0.28042  1.0000
  C   C72       1.0  0.64119  0.14988  0.25096  1.0000
  C   C73       1.0  0.66722  0.17109  0.25033  1.0000
  C   C74       1.0  0.73798  0.24806  0.29988  1.0000
  C   C75       1.0  0.71284  0.22547  0.29690  1.0000
  C   C76       1.0  0.50208  0.14236  0.25789  1.0000
  C   C77       1.0  0.49567  0.16251  0.25964  1.0000
  C   C78       1.0  0.47026  0.19616  0.30686  1.0000
  C   C79       1.0  0.46593  0.21772  0.30994  1.0000
  C   C80       1.0  0.40240  0.96765  0.25584  1.0000
  C   C81       1.0  0.42901  0.98757  0.25597  1.0000
  C   C82       1.0  0.35395  0.91436  0.28177  1.0000
  C   C83       1.0  0.32809  0.89293  0.28372  1.0000
  C   C84       1.0  0.56224  0.98604  0.26110  1.0000
  C   C85       1.0  0.56755  0.96515  0.26319  1.0000
  C   C86       1.0  0.59470  0.90787  0.28533  1.0000
  C   C87       1.0  0.59185  0.93032  0.28504  1.0000
  H   H44       1.0  0.60677  0.90654  0.23902  1.0000
  H   H45       1.0  0.60213  0.94472  0.23875  1.0000
  H   H46       1.0  0.56743  0.95640  0.20407  1.0000
  H   H47       1.0  0.55874  0.99208  0.20092  1.0000
  H   H48       1.0  0.43867  0.99410  0.19638  1.0000
  H   H49       1.0  0.39337  0.96041  0.19565  1.0000
  H   H50       1.0  0.50055  0.13291  0.19894  1.0000
  H   H51       1.0  0.48994  0.16743  0.20147  1.0000
  H   H52       1.0  0.44832  0.21522  0.28761  1.0000
  H   H53       1.0  0.45567  0.17859  0.28247  1.0000
  H   H54       1.0  0.69744  0.22728  0.27312  1.0000
  H   H55       1.0  0.73996  0.26552  0.27811  1.0000
  H   H56       1.0  0.67460  0.18130  0.19201  1.0000
  H   H57       1.0  0.63022  0.14543  0.19366  1.0000
  H   H58       1.0  0.36740  0.91300  0.24220  1.0000
  H   H59       1.0  0.32366  0.87676  0.24592  1.0000
  C   C88       1.0  0.25349  0.52709  0.26178  1.0000
  C   C89       1.0  0.27692  0.52609  0.26423  1.0000
  H   H60       1.0  0.28837  0.53141  0.20808  1.0000
  H   H61       1.0  0.24849  0.53253  0.20317  1.0000
  C   C90       1.0  0.22896  0.48627  0.05981  1.0000
  C   C91       1.0  0.25225  0.48488  0.06164  1.0000
  H   H62       1.0  0.21746  0.48152  0.11560  1.0000
  H   H63       1.0  0.25759  0.47912  0.11875  1.0000
  C   C92       1.0  0.57546  0.82473  0.26434  1.0000
  C   C93       1.0  0.57614  0.84900  0.26708  1.0000
  H   H64       1.0  0.57073  0.85518  0.21099  1.0000
  H   H65       1.0  0.57012  0.81444  0.20564  1.0000
  C   C94       1.0  0.61627  0.84072  0.06233  1.0000
  C   C95       1.0  0.61734  0.86525  0.06454  1.0000
  H   H66       1.0  0.62113  0.83390  0.11799  1.0000
  H   H67       1.0  0.62298  0.87617  0.12180  1.0000
  C   C96       1.0  0.23477  0.82124  0.34694  1.0000
  C   C97       1.0  0.28342  0.87038  0.34577  1.0000
  C   C98       1.0  0.26752  0.86104  0.26838  1.0000
  C   C99       1.0  0.24355  0.83704  0.26914  1.0000
  H   H68       1.0  0.23327  0.83050  0.21056  1.0000
  H   H69       1.0  0.27364  0.87137  0.20974  1.0000
  C   C100      1.0  0.28837  0.84183  0.06730  1.0000
  C   C101      1.0  0.26406  0.81815  0.06849  1.0000
  H   H70       1.0  0.30005  0.84752  0.12281  1.0000
  H   H71       1.0  0.25815  0.80680  0.12496  1.0000
  C   C102      1.0  0.82721  0.62886  0.26786  1.0000
  C   C103      1.0  0.80284  0.62806  0.26895  1.0000
  H   H72       1.0  0.79595  0.63147  0.21045  1.0000
  H   H73       1.0  0.83743  0.63325  0.20907  1.0000
  C   C104      1.0  0.80959  0.58887  0.06654  1.0000
  C   C105      1.0  0.78553  0.58873  0.06813  1.0000
  H   H74       1.0  0.81568  0.58316  0.12184  1.0000
  H   H75       1.0  0.77430  0.58302  0.12471  1.0000
  C   C106      1.0  0.47367  0.29677  0.27075  1.0000
  C   C107      1.0  0.47403  0.27297  0.27174  1.0000
  H   H76       1.0  0.47046  0.26276  0.21323  1.0000
  H   H77       1.0  0.46937  0.30282  0.21202  1.0000
  C   C108      1.0  0.51368  0.31813  0.06957  1.0000
  C   C109      1.0  0.51338  0.29398  0.07094  1.0000
  H   H78       1.0  0.51954  0.32977  0.12500  1.0000
  H   H79       1.0  0.51892  0.28815  0.12744  1.0000
  C   C110      1.0  0.83447  0.31918  0.34271  1.0000
  C   C111      1.0  0.78529  0.27032  0.33817  1.0000
  C   C112      1.0  0.79516  0.28664  0.26172  1.0000
  C   C113      1.0  0.81923  0.31048  0.26377  1.0000
  H   H80       1.0  0.82508  0.32193  0.20742  1.0000
  H   H81       1.0  0.78470  0.28140  0.20321  1.0000
  C   C114      1.0  0.81286  0.26335  0.05979  1.0000
  C   C115      1.0  0.83718  0.28704  0.06125  1.0000
  H   H82       1.0  0.80639  0.25180  0.11572  1.0000
  H   H83       1.0  0.84830  0.29263  0.11823  1.0000
  C   C116      1.0  0.97799  0.52202  0.33557  1.0000
  C   C117      1.0  0.93791  0.60630  0.41479  1.0000
  C   C118      1.0  0.95802  0.59985  0.41476  1.0000
  C   C119      1.0  0.90447  0.63227  0.38989  1.0000
  C   C120      1.0  0.88259  0.63608  0.39243  1.0000
  C   C121      1.0  0.86013  0.62056  0.33928  1.0000
  C   C122      1.0  0.93705  0.43639  0.42005  1.0000
  C   C123      1.0  0.95778  0.46267  0.41818  1.0000
  C   C124      1.0  0.86014  0.36372  0.40662  1.0000
  C   C125      1.0  0.88228  0.38920  0.40587  1.0000
  C   C126      1.0  0.11117  0.53592  0.40520  1.0000
  C   C127      1.0  0.13189  0.53034  0.40467  1.0000
  C   C128      1.0  0.18946  0.50362  0.36426  1.0000
  C   C129      1.0  0.16725  0.50690  0.36207  1.0000
  C   C130      1.0  0.11814  0.67508  0.41246  1.0000
  C   C131      1.0  0.13877  0.70136  0.41389  1.0000
  C   C132      1.0  0.19256  0.74785  0.37027  1.0000
  C   C133      1.0  0.21440  0.77344  0.37230  1.0000
  H   H84       1.0  0.23192  0.77590  0.39551  1.0000
  H   H85       1.0  0.19489  0.73260  0.39240  1.0000
  H   H86       1.0  0.14853  0.70894  0.47282  1.0000
  H   H87       1.0  0.11354  0.66415  0.46991  1.0000
  H   H88       1.0  0.10139  0.53403  0.46369  1.0000
  H   H89       1.0  0.13677  0.52475  0.46321  1.0000
  H   H90       1.0  0.93538  0.54153  0.33891  1.0000
  H   H91       1.0  0.96596  0.47201  0.47716  1.0000
  H   H92       1.0  0.93105  0.42726  0.48075  1.0000
  H   H93       1.0  0.88283  0.40267  0.45034  1.0000
  H   H94       1.0  0.84547  0.35954  0.45165  1.0000
  H   H95       1.0  0.96571  0.59825  0.47439  1.0000
  H   H96       1.0  0.93124  0.60879  0.47497  1.0000
  H   H97       1.0  0.88313  0.65019  0.43379  1.0000
  H   H98       1.0  0.92042  0.64395  0.42905  1.0000
  H   H99       1.0  0.14964  0.49189  0.38461  1.0000
  H   H100      1.0  0.18725  0.48626  0.38797  1.0000
  C   C134      1.0  0.45569  0.49985  0.33575  1.0000
  C   C135      1.0  0.46924  0.48623  0.33525  1.0000
  C   C136      1.0  0.49618  0.50451  0.33604  1.0000
  N   N5        1.0  0.49795  0.52844  0.33703  1.0000
  C   C137      1.0  0.47405  0.52676  0.33687  1.0000
  C   C138      1.0  0.46770  0.54719  0.33784  1.0000
  C   C139      1.0  0.48645  0.57451  0.33730  1.0000
  N   N6        1.0  0.51297  0.58614  0.33384  1.0000
  C   C140      1.0  0.55198  0.63140  0.33147  1.0000
  C   C141      1.0  0.57234  0.62492  0.33047  1.0000
  N   N7        1.0  0.57060  0.60098  0.33070  1.0000
  C   C142      1.0  0.59451  0.60265  0.33033  1.0000
  C   C143      1.0  0.61282  0.62959  0.32988  1.0000
  C   C144      1.0  0.59926  0.64319  0.32912  1.0000
  C   C145      1.0  0.60093  0.58224  0.33092  1.0000
  C   C146      1.0  0.58216  0.55489  0.33189  1.0000
  N   N8        1.0  0.55562  0.54328  0.33341  1.0000
  C   C147      1.0  0.54390  0.51673  0.33400  1.0000
  C   C148      1.0  0.56425  0.51092  0.33257  1.0000
  C   C149      1.0  0.58779  0.53441  0.33087  1.0000
  C   C150      1.0  0.51655  0.49806  0.33543  1.0000
  C   C151      1.0  0.50906  0.47090  0.33565  1.0000
  C   C152      1.0  0.49597  0.41700  0.33639  1.0000
  C   C153      1.0  0.49800  0.43042  0.41715  1.0000
  C   C154      1.0  0.50450  0.45700  0.41693  1.0000
  C   C155      1.0  0.49087  0.39047  0.33700  1.0000
  C   C156      1.0  0.47162  0.37104  0.39375  1.0000
  C   C157      1.0  0.46755  0.34525  0.39647  1.0000
  C   C158      1.0  0.48257  0.33803  0.34222  1.0000
  C   C159      1.0  0.62810  0.58962  0.33265  1.0000
  C   C160      1.0  0.68179  0.60220  0.33571  1.0000
  C   C161      1.0  0.66618  0.59351  0.41389  1.0000
  C   C162      1.0  0.63978  0.58750  0.41265  1.0000
  C   C163      1.0  0.70813  0.60702  0.33667  1.0000
  C   C164      1.0  0.73952  0.59229  0.37298  1.0000
  C   C165      1.0  0.71365  0.58779  0.37088  1.0000
  C   C166      1.0  0.55931  0.65856  0.32964  1.0000
  C   C167      1.0  0.56809  0.67399  0.40795  1.0000
  C   C168      1.0  0.57353  0.70024  0.40724  1.0000
  C   C169      1.0  0.56986  0.71159  0.32878  1.0000
  C   C170      1.0  0.57335  0.73744  0.32985  1.0000
  C   C171      1.0  0.57929  0.78897  0.33595  1.0000
  C   C172      1.0  0.59959  0.78444  0.36628  1.0000
  C   C173      1.0  0.59657  0.75907  0.36413  1.0000
  C   C174      1.0  0.44060  0.53992  0.33915  1.0000
  C   C175      1.0  0.42718  0.53557  0.42104  1.0000
  C   C176      1.0  0.38755  0.52949  0.34273  1.0000
  C   C177      1.0  0.40105  0.53043  0.42264  1.0000
  C   C178      1.0  0.36156  0.52590  0.34478  1.0000
  C   C179      1.0  0.35482  0.53953  0.40762  1.0000
  C   C180      1.0  0.32967  0.53697  0.40788  1.0000
  H   H101      1.0  0.32591  0.54783  0.45261  1.0000
  H   H102      1.0  0.36850  0.55227  0.45215  1.0000
  H   H103      1.0  0.39197  0.52749  0.48324  1.0000
  H   H104      1.0  0.43653  0.53667  0.48012  1.0000
  H   H105      1.0  0.43564  0.49121  0.33513  1.0000
  H   H106      1.0  0.46051  0.46618  0.33410  1.0000
  H   H107      1.0  0.51433  0.54478  0.33885  1.0000
  H   H108      1.0  0.55424  0.58463  0.33122  1.0000
  H   H109      1.0  0.50585  0.63657  0.34102  1.0000
  H   H110      1.0  0.57001  0.66602  0.46650  1.0000
  H   H111      1.0  0.57907  0.71063  0.46573  1.0000
  H   H112      1.0  0.63287  0.63831  0.32997  1.0000
  H   H113      1.0  0.56259  0.49273  0.33219  1.0000
  H   H114      1.0  0.60591  0.53593  0.32883  1.0000
  H   H115      1.0  0.62898  0.58109  0.47018  1.0000
  H   H116      1.0  0.67395  0.59150  0.47276  1.0000
  H   H117      1.0  0.69876  0.57007  0.39332  1.0000
  H   H118      1.0  0.74253  0.57760  0.39647  1.0000
  H   H119      1.0  0.50634  0.46627  0.47654  1.0000
  H   H120      1.0  0.49565  0.42122  0.47743  1.0000
  H   H121      1.0  0.45359  0.33179  0.43871  1.0000
  H   H122      1.0  0.46028  0.37549  0.43371  1.0000
  H   H123      1.0  0.61169  0.75661  0.38659  1.0000
  H   H124      1.0  0.61690  0.79967  0.38986  1.0000
  C   C181      1.0  0.60087  0.05312  0.33299  1.0000
  C   C182      1.0  0.61449  0.08029  0.33078  1.0000
  C   C183      1.0  0.59627  0.08900  0.33441  1.0000
  N   N9        1.0  0.57235  0.06682  0.33838  1.0000
  C   C184      1.0  0.57400  0.04457  0.33742  1.0000
  C   C185      1.0  0.55359  0.01777  0.33982  1.0000
  C   C186      1.0  0.52625  0.00915  0.34030  1.0000
  N   N10       1.0  0.51464  0.02406  0.33813  1.0000
  C   C187      1.0  0.48810  0.00920  0.33855  1.0000
  C   C188      1.0  0.48231  0.98304  0.34114  1.0000
  C   C189      1.0  0.50581  0.98301  0.34240  1.0000
  C   C190      1.0  0.46944  0.01788  0.33733  1.0000
  C   C191      1.0  0.47587  0.04468  0.33611  1.0000
  N   N11       1.0  0.49978  0.06687  0.33381  1.0000
  C   C192      1.0  0.49805  0.08906  0.33455  1.0000
  C   C193      1.0  0.47113  0.08044  0.33726  1.0000
  C   C194      1.0  0.45755  0.05328  0.33781  1.0000
  C   C195      1.0  0.51843  0.11587  0.33401  1.0000
  C   C196      1.0  0.54578  0.12445  0.33370  1.0000
  N   N12       1.0  0.55745  0.10957  0.33364  1.0000
  C   C197      1.0  0.58400  0.12445  0.33364  1.0000
  C   C198      1.0  0.58970  0.15059  0.33404  1.0000
  C   C199      1.0  0.56620  0.15060  0.33334  1.0000
  C   C200      1.0  0.60276  0.11585  0.33320  1.0000
  C   C201      1.0  0.62993  0.13568  0.33052  1.0000
  C   C202      1.0  0.68288  0.17842  0.32865  1.0000
  C   C203      1.0  0.67176  0.16359  0.40747  1.0000
  C   C204      1.0  0.64557  0.14265  0.40864  1.0000
  C   C205      1.0  0.70863  0.20098  0.32929  1.0000
  C   C206      1.0  0.73050  0.19983  0.36398  1.0000
  C   C207      1.0  0.75575  0.22238  0.36561  1.0000
  C   C208      1.0  0.75993  0.24700  0.33444  1.0000
  C   C209      1.0  0.51101  0.13562  0.33599  1.0000
  C   C210      1.0  0.49849  0.17671  0.33904  1.0000
  C   C211      1.0  0.50716  0.16963  0.41726  1.0000
  C   C212      1.0  0.51314  0.14922  0.41602  1.0000
  C   C213      1.0  0.49394  0.19840  0.33978  1.0000
  C   C214      1.0  0.48521  0.24221  0.34544  1.0000
  C   C215      1.0  0.50925  0.24461  0.37520  1.0000
  C   C216      1.0  0.51343  0.22304  0.37336  1.0000
  C   C217      1.0  0.44230  0.99821  0.33731  1.0000
  C   C218      1.0  0.42840  0.98880  0.41833  1.0000
  C   C219      1.0  0.40174  0.96893  0.41790  1.0000
  C   C220      1.0  0.38828  0.95783  0.33673  1.0000
  C   C221      1.0  0.36163  0.93667  0.33657  1.0000
  C   C222      1.0  0.30895  0.89305  0.34037  1.0000
  C   C223      1.0  0.31641  0.91530  0.39495  1.0000
  C   C224      1.0  0.34234  0.93677  0.39295  1.0000
  C   C225      1.0  0.56089  0.99795  0.34115  1.0000
  C   C226      1.0  0.56522  0.98873  0.42313  1.0000
  C   C227      1.0  0.57149  0.95541  0.34515  1.0000
  C   C228      1.0  0.57044  0.96779  0.42494  1.0000
  C   C229      1.0  0.57533  0.93315  0.34739  1.0000
  C   C230      1.0  0.56192  0.91266  0.41051  1.0000
  C   C231      1.0  0.56477  0.89023  0.41094  1.0000
  C   C232      1.0  0.58124  0.88748  0.34845  1.0000
  H   H125      1.0  0.55405  0.87553  0.45585  1.0000
  H   H126      1.0  0.54912  0.91340  0.45507  1.0000
  H   H127      1.0  0.57341  0.96159  0.48563  1.0000
  H   H128      1.0  0.56408  0.99687  0.48215  1.0000
  H   H129      1.0  0.60949  0.04171  0.33047  1.0000
  H   H130      1.0  0.63451  0.09159  0.32648  1.0000
  H   H131      1.0  0.55605  0.06686  0.34290  1.0000
  H   H132      1.0  0.51612  0.06685  0.33143  1.0000
  H   H133      1.0  0.50739  0.96645  0.34436  1.0000
  H   H134      1.0  0.46412  0.96651  0.34245  1.0000
  H   H135      1.0  0.43769  0.99609  0.47815  1.0000
  H   H136      1.0  0.39250  0.96203  0.47793  1.0000
  H   H137      1.0  0.43751  0.04193  0.34030  1.0000
  H   H138      1.0  0.46241  0.09176  0.33945  1.0000
  H   H139      1.0  0.60783  0.16718  0.33463  1.0000
  H   H140      1.0  0.56463  0.16718  0.33300  1.0000
  H   H141      1.0  0.51960  0.14474  0.47349  1.0000
  H   H142      1.0  0.50925  0.17935  0.47605  1.0000
  H   H143      1.0  0.53112  0.22566  0.39547  1.0000
  H   H144      1.0  0.52411  0.26222  0.39828  1.0000
  H   H145      1.0  0.63777  0.13295  0.46748  1.0000
  H   H146      1.0  0.68228  0.16867  0.46587  1.0000
  H   H147      1.0  0.77115  0.22059  0.38942  1.0000
  H   H148      1.0  0.72829  0.18239  0.38702  1.0000
  H   H149      1.0  0.34698  0.95257  0.43319  1.0000
  H   H150      1.0  0.30304  0.91596  0.43702  1.0000
  C   C233      1.0  0.28526  0.51917  0.34333  1.0000
  C   C234      1.0  0.26897  0.51260  0.41981  1.0000
  C   C235      1.0  0.24517  0.51354  0.41726  1.0000
  C   C236      1.0  0.23723  0.52106  0.33797  1.0000
  N   N13       1.0  0.23078  0.50761  0.49375  1.0000
  C   C237      1.0  0.23748  0.50030  0.57108  1.0000
  C   C238      1.0  0.26087  0.49888  0.57291  1.0000
  N   N14       1.0  0.27555  0.50514  0.49753  1.0000
  C   C239      1.0  0.22169  0.49394  0.64800  1.0000
  C   C240      1.0  0.26839  0.49114  0.65166  1.0000
  H   H151      1.0  0.20473  0.49485  0.64697  1.0000
  H   H152      1.0  0.28526  0.49007  0.65333  1.0000
  C   C241      1.0  0.58290  0.86403  0.34631  1.0000
  C   C242      1.0  0.58963  0.85424  0.42267  1.0000
  C   C243      1.0  0.58901  0.82966  0.41980  1.0000
  C   C244      1.0  0.58167  0.81445  0.34037  1.0000
  N   N15       1.0  0.59508  0.82111  0.49612  1.0000
  C   C245      1.0  0.60225  0.83488  0.57360  1.0000
  C   C246      1.0  0.60335  0.85954  0.57579  1.0000
  N   N16       1.0  0.59694  0.86805  0.50057  1.0000
  C   C247      1.0  0.60877  0.82535  0.65031  1.0000
  C   C248      1.0  0.61093  0.87455  0.65475  1.0000
  H   H153      1.0  0.60809  0.80760  0.64900  1.0000
  H   H154      1.0  0.61176  0.89237  0.65671  1.0000
  C   C249      1.0  0.25009  0.83104  0.42584  1.0000
  C   C250      1.0  0.27431  0.85534  0.42528  1.0000
  N   N17       1.0  0.28884  0.86295  0.50187  1.0000
  C   C251      1.0  0.28118  0.84892  0.57900  1.0000
  C   C252      1.0  0.25677  0.82506  0.58017  1.0000
  N   N18       1.0  0.24244  0.81723  0.50382  1.0000
  C   C253      1.0  0.29701  0.85725  0.65625  1.0000
  C   C254      1.0  0.24824  0.80967  0.65838  1.0000
  H   H155      1.0  0.31477  0.87434  0.65572  1.0000
  H   H156      1.0  0.23075  0.79230  0.65916  1.0000
  C   C255      1.0  0.78718  0.62073  0.34692  1.0000
  C   C256      1.0  0.79750  0.61567  0.42563  1.0000
  C   C257      1.0  0.82219  0.61655  0.42473  1.0000
  C   C258      1.0  0.83711  0.62281  0.34509  1.0000
  N   N19       1.0  0.83033  0.61004  0.50111  1.0000
  C   C259      1.0  0.81645  0.60335  0.57838  1.0000
  C   C260      1.0  0.79220  0.60311  0.57992  1.0000
  N   N20       1.0  0.78386  0.60921  0.50377  1.0000
  C   C261      1.0  0.82532  0.59626  0.65538  1.0000
  C   C262      1.0  0.77695  0.59588  0.65828  1.0000
  H   H157      1.0  0.84270  0.59615  0.65456  1.0000
  H   H158      1.0  0.75931  0.59546  0.65937  1.0000
  C   C263      1.0  0.48120  0.26431  0.34962  1.0000
  C   C264      1.0  0.48648  0.27955  0.42837  1.0000
  C   C265      1.0  0.48605  0.30359  0.42760  1.0000
  C   C266      1.0  0.48001  0.31262  0.34797  1.0000
  N   N21       1.0  0.49276  0.31805  0.50410  1.0000
  C   C267      1.0  0.49924  0.31046  0.58132  1.0000
  C   C268      1.0  0.49903  0.28622  0.58268  1.0000
  N   N22       1.0  0.49274  0.27197  0.50642  1.0000
  C   C269      1.0  0.50654  0.32623  0.65847  1.0000
  C   C270      1.0  0.50602  0.27778  0.66096  1.0000
  H   H159      1.0  0.50698  0.34387  0.65782  1.0000
  H   H160      1.0  0.50614  0.26041  0.66185  1.0000
  C   C271      1.0  0.82514  0.30281  0.41940  1.0000
  C   C272      1.0  0.80077  0.27861  0.41724  1.0000
  N   N23       1.0  0.79266  0.26416  0.49391  1.0000
  C   C273      1.0  0.80671  0.27116  0.57106  1.0000
  C   C274      1.0  0.83116  0.29496  0.57251  1.0000
  N   N24       1.0  0.83921  0.30970  0.49695  1.0000
  C   C275      1.0  0.79766  0.25530  0.64816  1.0000
  C   C276      1.0  0.84645  0.30281  0.65108  1.0000
  H   H161      1.0  0.78006  0.23804  0.64740  1.0000
  H   H162      1.0  0.86413  0.31998  0.65250  1.0000
