data_image0
_chemical_formula_structural       NC5H3NC5H3C5NH3C5NH3C5NH3C5NH3NC5H3NC5H3NC5H3NC5H3C5NH3C5NH3C5NH3C5NH3NC5H3NC5H3NC5H3NC5H3C6H3C6H3C6H3C6H3C6H3C6H3C6H3C6H3C6H3C6H3C6H3C6H3C5NH3C5NH3NC5H3NC5H3NC5H3NC5H3C5NH3C5NH3C5NH3C5NH3NC5H3NC5H3NC5H3NC5H3C5NH3C5NH3C5NH3C5NH3
_chemical_formula_sum              "N36 C252 H144"
_cell_length_a       51.4764
_cell_length_b       51.3184
_cell_length_c       14.8899
_cell_angle_alpha    90
_cell_angle_beta     90
_cell_angle_gamma    90.1795

_space_group_name_H-M_alt    "P 1"
_space_group_IT_number       1

loop_
  _space_group_symop_operation_xyz
  'x, y, z'

loop_
  _atom_site_type_symbol
  _atom_site_label
  _atom_site_symmetry_multiplicity
  _atom_site_fract_x
  _atom_site_fract_y
  _atom_site_fract_z
  _atom_site_occupancy
  N   N1        1.0  0.02185  0.48300  0.26562  1.0000
  C   C1        1.0  0.04041  0.46425  0.26249  1.0000
  C   C2        1.0  0.99241  0.51312  0.33839  1.0000
  C   C3        1.0  0.98283  0.52324  0.25627  1.0000
  C   C4        1.0  0.96347  0.54261  0.25647  1.0000
  C   C5        1.0  0.95333  0.55210  0.33818  1.0000
  H   H1        1.0  0.98977  0.51676  0.19595  1.0000
  H   H2        1.0  0.95681  0.54970  0.19651  1.0000
  H   H3        1.0  0.04655  0.45762  0.20137  1.0000
  N   N2        1.0  0.52185  0.02090  0.26553  1.0000
  C   C6        1.0  0.54053  0.03963  0.26238  1.0000
  C   C7        1.0  0.49189  0.99112  0.33837  1.0000
  C   C8        1.0  0.48185  0.98138  0.25625  1.0000
  C   C9        1.0  0.46248  0.96192  0.25649  1.0000
  C   C10       1.0  0.45290  0.95183  0.33824  1.0000
  H   H4        1.0  0.48839  0.98830  0.19592  1.0000
  H   H5        1.0  0.45544  0.95516  0.19655  1.0000
  H   H6        1.0  0.54707  0.04590  0.20124  1.0000
  C   C11       1.0  0.07550  0.36170  0.33791  1.0000
  C   C12       1.0  0.07271  0.34804  0.25621  1.0000
  C   C13       1.0  0.06692  0.32120  0.25613  1.0000
  C   C14       1.0  0.06403  0.30758  0.33837  1.0000
  C   C15       1.0  0.04977  0.24038  0.26278  1.0000
  N   N3        1.0  0.05509  0.26630  0.26580  1.0000
  H   H7        1.0  0.04754  0.23155  0.20171  1.0000
  H   H8        1.0  0.07504  0.35751  0.19622  1.0000
  H   H9        1.0  0.06511  0.31182  0.19585  1.0000
  C   C16       1.0  0.92863  0.64460  0.33852  1.0000
  C   C17       1.0  0.93229  0.65805  0.25680  1.0000
  C   C18       1.0  0.93822  0.68486  0.25662  1.0000
  C   C19       1.0  0.94052  0.69863  0.33877  1.0000
  C   C20       1.0  0.95453  0.76586  0.26283  1.0000
  N   N4        1.0  0.94927  0.73993  0.26598  1.0000
  H   H10       1.0  0.95659  0.77470  0.20171  1.0000
  H   H11       1.0  0.93041  0.64847  0.19684  1.0000
  H   H12       1.0  0.94062  0.69410  0.19632  1.0000
  C   C21       1.0  0.64290  0.07515  0.33807  1.0000
  C   C22       1.0  0.65643  0.07200  0.25638  1.0000
  C   C23       1.0  0.68315  0.06611  0.25631  1.0000
  C   C24       1.0  0.69675  0.06340  0.33853  1.0000
  C   C25       1.0  0.76386  0.04990  0.26294  1.0000
  N   N5        1.0  0.73799  0.05495  0.26595  1.0000
  H   H13       1.0  0.77274  0.04808  0.20185  1.0000
  H   H14       1.0  0.64698  0.07419  0.19637  1.0000
  H   H15       1.0  0.69244  0.06407  0.19603  1.0000
  C   C26       1.0  0.36058  0.92706  0.33852  1.0000
  C   C27       1.0  0.34713  0.93043  0.25678  1.0000
  C   C28       1.0  0.32053  0.93681  0.25665  1.0000
  C   C29       1.0  0.30700  0.93983  0.33887  1.0000
  C   C30       1.0  0.24051  0.95591  0.26320  1.0000
  N   N6        1.0  0.26620  0.95003  0.26625  1.0000
  H   H16       1.0  0.23180  0.95840  0.20212  1.0000
  H   H17       1.0  0.35657  0.92814  0.19680  1.0000
  H   H18       1.0  0.31130  0.93904  0.19636  1.0000
  N   N7        1.0  0.43641  0.81946  0.26577  1.0000
  C   C31       1.0  0.43074  0.84527  0.26273  1.0000
  C   C32       1.0  0.44522  0.77822  0.33840  1.0000
  C   C33       1.0  0.44745  0.76448  0.25620  1.0000
  C   C34       1.0  0.45309  0.73763  0.25631  1.0000
  C   C35       1.0  0.45670  0.72419  0.33799  1.0000
  H   H19       1.0  0.44492  0.77368  0.19594  1.0000
  H   H20       1.0  0.45455  0.72799  0.19635  1.0000
  H   H21       1.0  0.42871  0.85411  0.20162  1.0000
  N   N8        1.0  0.56765  0.18280  0.26551  1.0000
  C   C36       1.0  0.57323  0.15697  0.26236  1.0000
  C   C37       1.0  0.55859  0.22400  0.33832  1.0000
  C   C38       1.0  0.55623  0.23774  0.25617  1.0000
  C   C39       1.0  0.55088  0.26465  0.25640  1.0000
  C   C40       1.0  0.54781  0.27820  0.33816  1.0000
  H   H22       1.0  0.55834  0.22847  0.19584  1.0000
  H   H23       1.0  0.54921  0.27427  0.19645  1.0000
  H   H24       1.0  0.57573  0.14825  0.20126  1.0000
  N   N9        1.0  0.82120  0.56836  0.26595  1.0000
  C   C41       1.0  0.84698  0.57402  0.26288  1.0000
  C   C42       1.0  0.78001  0.55944  0.33862  1.0000
  C   C43       1.0  0.76630  0.55708  0.25645  1.0000
  C   C44       1.0  0.73949  0.55145  0.25659  1.0000
  C   C45       1.0  0.72601  0.54803  0.33828  1.0000
  H   H25       1.0  0.77553  0.55945  0.19617  1.0000
  H   H26       1.0  0.72990  0.54983  0.19662  1.0000
  H   H27       1.0  0.85577  0.57620  0.20177  1.0000
  N   N10       1.0  0.18317  0.43662  0.26541  1.0000
  C   C46       1.0  0.15731  0.43139  0.26228  1.0000
  C   C47       1.0  0.22440  0.44506  0.33816  1.0000
  C   C48       1.0  0.23811  0.44738  0.25598  1.0000
  C   C49       1.0  0.26504  0.45233  0.25619  1.0000
  C   C50       1.0  0.27864  0.45498  0.33797  1.0000
  H   H28       1.0  0.22878  0.44557  0.19565  1.0000
  H   H29       1.0  0.27463  0.45404  0.19623  1.0000
  H   H30       1.0  0.14858  0.42894  0.20120  1.0000
  C   C51       1.0  0.15392  0.02090  0.33770  1.0000
  C   C52       1.0  0.14655  0.03269  0.25601  1.0000
  C   C53       1.0  0.13306  0.05651  0.25594  1.0000
  C   C54       1.0  0.12629  0.06858  0.33825  1.0000
  C   C55       1.0  0.08568  0.12362  0.26296  1.0000
  N   N11       1.0  0.10184  0.10279  0.26590  1.0000
  H   H31       1.0  0.07945  0.13025  0.20193  1.0000
  H   H32       1.0  0.15019  0.02360  0.19613  1.0000
  H   H33       1.0  0.12748  0.06428  0.19575  1.0000
  C   C56       1.0  0.85123  0.98571  0.33775  1.0000
  C   C57       1.0  0.85897  0.97414  0.25610  1.0000
  C   C58       1.0  0.87259  0.95039  0.25602  1.0000
  C   C59       1.0  0.87914  0.93819  0.33832  1.0000
  C   C60       1.0  0.91925  0.88276  0.26310  1.0000
  N   N12       1.0  0.90327  0.90372  0.26602  1.0000
  H   H34       1.0  0.92527  0.87595  0.20204  1.0000
  H   H35       1.0  0.85551  0.98334  0.19629  1.0000
  H   H36       1.0  0.87848  0.94281  0.19590  1.0000
  C   C61       1.0  0.98411  0.15402  0.33809  1.0000
  C   C62       1.0  0.97205  0.14716  0.25632  1.0000
  C   C63       1.0  0.94786  0.13429  0.25617  1.0000
  C   C64       1.0  0.93565  0.12769  0.33844  1.0000
  C   C65       1.0  0.87995  0.08784  0.26277  1.0000
  N   N13       1.0  0.90101  0.10378  0.26586  1.0000
  H   H37       1.0  0.87342  0.08147  0.20173  1.0000
  H   H38       1.0  0.98118  0.15072  0.19645  1.0000
  H   H39       1.0  0.93991  0.12899  0.19592  1.0000
  C   C66       1.0  0.02074  0.85183  0.33807  1.0000
  C   C67       1.0  0.03281  0.85868  0.25631  1.0000
  C   C68       1.0  0.05693  0.87168  0.25619  1.0000
  C   C69       1.0  0.06903  0.87843  0.33850  1.0000
  C   C70       1.0  0.12426  0.91890  0.26300  1.0000
  N   N14       1.0  0.10338  0.90272  0.26602  1.0000
  H   H40       1.0  0.13078  0.92528  0.20197  1.0000
  H   H41       1.0  0.02371  0.85507  0.19641  1.0000
  H   H42       1.0  0.06489  0.87698  0.19595  1.0000
  N   N15       1.0  0.37047  0.55376  0.26596  1.0000
  C   C71       1.0  0.35746  0.53074  0.26290  1.0000
  C   C72       1.0  0.39288  0.58944  0.33848  1.0000
  C   C73       1.0  0.40109  0.60062  0.25617  1.0000
  C   C74       1.0  0.41812  0.62213  0.25625  1.0000
  C   C75       1.0  0.42676  0.63303  0.33800  1.0000
  H   H43       1.0  0.39566  0.59274  0.19591  1.0000
  H   H44       1.0  0.42483  0.62923  0.19629  1.0000
  H   H45       1.0  0.35375  0.52242  0.20183  1.0000
  N   N16       1.0  0.63408  0.44877  0.26600  1.0000
  C   C76       1.0  0.64738  0.47164  0.26298  1.0000
  C   C77       1.0  0.61116  0.41335  0.33842  1.0000
  C   C78       1.0  0.60276  0.40230  0.25611  1.0000
  C   C79       1.0  0.58576  0.38075  0.25617  1.0000
  C   C80       1.0  0.57734  0.36964  0.33787  1.0000
  H   H46       1.0  0.60802  0.41031  0.19589  1.0000
  H   H47       1.0  0.57891  0.37377  0.19624  1.0000
  H   H48       1.0  0.65125  0.47987  0.20189  1.0000
  N   N17       1.0  0.55529  0.63263  0.26593  1.0000
  C   C81       1.0  0.53234  0.64556  0.26298  1.0000
  C   C82       1.0  0.59088  0.61029  0.33830  1.0000
  C   C83       1.0  0.60195  0.60203  0.25597  1.0000
  C   C84       1.0  0.62365  0.58539  0.25602  1.0000
  C   C85       1.0  0.63490  0.57723  0.33770  1.0000
  H   H49       1.0  0.59383  0.60706  0.19577  1.0000
  H   H50       1.0  0.63060  0.57854  0.19610  1.0000
  H   H51       1.0  0.52418  0.64949  0.20189  1.0000
  N   N18       1.0  0.44893  0.36953  0.26590  1.0000
  C   C86       1.0  0.47194  0.35672  0.26281  1.0000
  C   C87       1.0  0.41321  0.39158  0.33852  1.0000
  C   C88       1.0  0.40201  0.39971  0.25626  1.0000
  C   C89       1.0  0.38044  0.41652  0.25641  1.0000
  C   C90       1.0  0.36950  0.42500  0.33818  1.0000
  H   H52       1.0  0.40993  0.39444  0.19598  1.0000
  H   H53       1.0  0.37339  0.42325  0.19648  1.0000
  H   H54       1.0  0.48023  0.35307  0.20173  1.0000
  C   C91       1.0  0.08247  0.38842  0.33911  1.0000
  C   C92       1.0  0.10896  0.39570  0.33977  1.0000
  C   C93       1.0  0.11637  0.42223  0.34157  1.0000
  C   C94       1.0  0.09691  0.44160  0.34276  1.0000
  C   C95       1.0  0.07029  0.43470  0.34168  1.0000
  C   C96       1.0  0.06326  0.40804  0.33989  1.0000
  H   H55       1.0  0.10218  0.46087  0.34418  1.0000
  H   H56       1.0  0.04402  0.40287  0.33944  1.0000
  H   H57       1.0  0.12298  0.38156  0.33924  1.0000
  C   C97       1.0  0.92163  0.61789  0.33965  1.0000
  C   C98       1.0  0.89516  0.61056  0.34151  1.0000
  C   C99       1.0  0.88778  0.58401  0.34213  1.0000
  C   C100      1.0  0.90728  0.56467  0.34127  1.0000
  C   C101      1.0  0.93388  0.57161  0.33943  1.0000
  C   C102      1.0  0.94087  0.59829  0.33836  1.0000
  H   H58       1.0  0.90205  0.54539  0.34171  1.0000
  H   H59       1.0  0.96010  0.60349  0.33691  1.0000
  H   H60       1.0  0.88112  0.62468  0.34210  1.0000
  C   C103      1.0  0.61628  0.08209  0.33920  1.0000
  C   C104      1.0  0.60906  0.10864  0.33992  1.0000
  C   C105      1.0  0.58262  0.11596  0.34159  1.0000
  C   C106      1.0  0.56328  0.09635  0.34263  1.0000
  C   C107      1.0  0.57011  0.06968  0.34155  1.0000
  C   C108      1.0  0.59667  0.06274  0.33985  1.0000
  H   H61       1.0  0.54407  0.10154  0.34400  1.0000
  H   H62       1.0  0.60179  0.04346  0.33940  1.0000
  H   H63       1.0  0.62318  0.12276  0.33949  1.0000
  C   C109      1.0  0.38715  0.92001  0.33968  1.0000
  C   C110      1.0  0.39429  0.89346  0.34138  1.0000
  C   C111      1.0  0.42071  0.88609  0.34200  1.0000
  C   C112      1.0  0.44011  0.90564  0.34118  1.0000
  C   C113      1.0  0.43334  0.93232  0.33952  1.0000
  C   C114      1.0  0.40679  0.93932  0.33859  1.0000
  H   H64       1.0  0.45931  0.90041  0.34157  1.0000
  H   H65       1.0  0.40173  0.95861  0.33723  1.0000
  H   H66       1.0  0.38012  0.87937  0.34189  1.0000
  C   C115      1.0  0.05666  0.15364  0.34240  1.0000
  C   C116      1.0  0.03055  0.14520  0.34048  1.0000
  C   C117      1.0  0.00999  0.16333  0.33952  1.0000
  C   C118      1.0  0.01575  0.19026  0.34024  1.0000
  C   C119      1.0  0.04182  0.19906  0.34216  1.0000
  C   C120      1.0  0.06218  0.18062  0.34342  1.0000
  H   H67       1.0  0.00089  0.20350  0.33960  1.0000
  H   H68       1.0  0.08111  0.18684  0.34489  1.0000
  H   H69       1.0  0.02645  0.12563  0.33999  1.0000
  C   C121      1.0  0.94822  0.85266  0.34237  1.0000
  C   C122      1.0  0.97439  0.86093  0.34051  1.0000
  C   C123      1.0  0.99483  0.84268  0.33948  1.0000
  C   C124      1.0  0.98892  0.81579  0.34020  1.0000
  C   C125      1.0  0.96281  0.80714  0.34206  1.0000
  C   C126      1.0  0.94255  0.82571  0.34326  1.0000
  H   H70       1.0  0.00371  0.80247  0.33956  1.0000
  H   H71       1.0  0.92358  0.81960  0.34476  1.0000
  H   H72       1.0  0.97861  0.88048  0.34007  1.0000
  C   C127      1.0  0.85012  0.05845  0.34212  1.0000
  C   C128      1.0  0.85901  0.03247  0.34006  1.0000
  C   C129      1.0  0.84136  0.01139  0.33932  1.0000
  C   C130      1.0  0.81440  0.01649  0.34044  1.0000
  C   C131      1.0  0.80512  0.04241  0.34230  1.0000
  C   C132      1.0  0.82313  0.06330  0.34334  1.0000
  H   H73       1.0  0.80150  0.00124  0.33989  1.0000
  H   H74       1.0  0.81658  0.08213  0.34484  1.0000
  H   H75       1.0  0.87861  0.02886  0.33940  1.0000
  C   C133      1.0  0.15415  0.94816  0.34245  1.0000
  C   C134      1.0  0.14556  0.97423  0.34021  1.0000
  C   C135      1.0  0.16348  0.99510  0.33923  1.0000
  C   C136      1.0  0.19037  0.98968  0.34017  1.0000
  C   C137      1.0  0.19931  0.96365  0.34241  1.0000
  C   C138      1.0  0.18107  0.94298  0.34378  1.0000
  H   H76       1.0  0.20346  0.00476  0.33949  1.0000
  H   H77       1.0  0.18739  0.92407  0.34544  1.0000
  H   H78       1.0  0.12601  0.97807  0.33956  1.0000
  C   C139      1.0  0.44690  0.65180  0.33913  1.0000
  C   C140      1.0  0.47293  0.64328  0.34122  1.0000
  C   C141      1.0  0.49366  0.66134  0.34212  1.0000
  C   C142      1.0  0.48815  0.68829  0.34120  1.0000
  C   C143      1.0  0.46216  0.69717  0.33917  1.0000
  C   C144      1.0  0.44163  0.67878  0.33791  1.0000
  H   H79       1.0  0.50312  0.70149  0.34182  1.0000
  H   H80       1.0  0.42275  0.68505  0.33636  1.0000
  H   H81       1.0  0.47684  0.62369  0.34182  1.0000
  C   C145      1.0  0.55731  0.35071  0.33915  1.0000
  C   C146      1.0  0.53121  0.35906  0.34098  1.0000
  C   C147      1.0  0.51059  0.34088  0.34194  1.0000
  C   C148      1.0  0.51626  0.31397  0.34126  1.0000
  C   C149      1.0  0.54229  0.30523  0.33940  1.0000
  C   C150      1.0  0.56272  0.32374  0.33819  1.0000
  H   H82       1.0  0.50135  0.30070  0.34185  1.0000
  H   H83       1.0  0.58163  0.31757  0.33672  1.0000
  H   H84       1.0  0.52718  0.37863  0.34144  1.0000
  C   C151      1.0  0.65375  0.55725  0.33905  1.0000
  C   C152      1.0  0.64535  0.53106  0.34100  1.0000
  C   C153      1.0  0.66340  0.51042  0.34208  1.0000
  C   C154      1.0  0.69025  0.51620  0.34138  1.0000
  C   C155      1.0  0.69905  0.54235  0.33944  1.0000
  C   C156      1.0  0.68065  0.56278  0.33811  1.0000
  H   H85       1.0  0.70344  0.50129  0.34206  1.0000
  H   H86       1.0  0.68685  0.58177  0.33659  1.0000
  H   H87       1.0  0.62583  0.52695  0.34143  1.0000
  C   C157      1.0  0.35080  0.44512  0.33934  1.0000
  C   C158      1.0  0.35938  0.47126  0.34130  1.0000
  C   C159      1.0  0.34145  0.49200  0.34206  1.0000
  C   C160      1.0  0.31458  0.48643  0.34110  1.0000
  C   C161      1.0  0.30562  0.46035  0.33923  1.0000
  C   C162      1.0  0.32386  0.43978  0.33817  1.0000
  H   H88       1.0  0.30149  0.50143  0.34161  1.0000
  H   H89       1.0  0.31752  0.42084  0.33666  1.0000
  H   H90       1.0  0.37892  0.47524  0.34189  1.0000
  C   C163      1.0  0.05090  0.45427  0.34290  1.0000
  C   C164      1.0  0.04144  0.46444  0.42461  1.0000
  C   C165      1.0  0.02213  0.48385  0.42482  1.0000
  C   C166      1.0  0.01203  0.49345  0.34269  1.0000
  C   C167      1.0  0.96330  0.54159  0.41858  1.0000
  N   N19       1.0  0.98200  0.52298  0.41546  1.0000
  H   H91       1.0  0.95671  0.54777  0.47972  1.0000
  H   H92       1.0  0.04850  0.45775  0.48458  1.0000
  H   H93       1.0  0.01567  0.49082  0.48513  1.0000
  C   C168      1.0  0.55058  0.05013  0.34279  1.0000
  C   C169      1.0  0.54055  0.04048  0.42452  1.0000
  C   C170      1.0  0.52119  0.02099  0.42476  1.0000
  C   C171      1.0  0.51152  0.01090  0.34263  1.0000
  C   C172      1.0  0.46333  0.96194  0.41864  1.0000
  N   N20       1.0  0.48195  0.98074  0.41547  1.0000
  H   H94       1.0  0.45708  0.95539  0.47979  1.0000
  H   H95       1.0  0.54729  0.04753  0.48447  1.0000
  H   H96       1.0  0.51433  0.01440  0.48509  1.0000
  N   N21       1.0  0.06701  0.32165  0.41543  1.0000
  C   C173      1.0  0.07248  0.34754  0.41844  1.0000
  C   C174      1.0  0.05847  0.28029  0.34284  1.0000
  C   C175      1.0  0.05624  0.26654  0.42506  1.0000
  C   C176      1.0  0.05079  0.23962  0.42497  1.0000
  C   C177      1.0  0.04744  0.22609  0.34329  1.0000
  H   H97       1.0  0.05856  0.27581  0.48532  1.0000
  H   H98       1.0  0.04922  0.23000  0.48496  1.0000
  H   H99       1.0  0.07460  0.35639  0.47952  1.0000
  N   N22       1.0  0.93681  0.68474  0.41584  1.0000
  C   C178      1.0  0.93111  0.65891  0.41895  1.0000
  C   C179      1.0  0.94615  0.72592  0.34310  1.0000
  C   C180      1.0  0.94863  0.73965  0.42527  1.0000
  C   C181      1.0  0.95406  0.76657  0.42506  1.0000
  C   C182      1.0  0.95707  0.78014  0.34329  1.0000
  H   H100      1.0  0.94655  0.73035  0.48559  1.0000
  H   H101      1.0  0.95584  0.77618  0.48501  1.0000
  H   H102      1.0  0.92846  0.65020  0.48004  1.0000
  N   N23       1.0  0.68279  0.06664  0.41557  1.0000
  C   C183      1.0  0.65703  0.07224  0.41857  1.0000
  C   C184      1.0  0.72396  0.05787  0.34299  1.0000
  C   C185      1.0  0.73761  0.05542  0.42521  1.0000
  C   C186      1.0  0.76448  0.05025  0.42513  1.0000
  C   C187      1.0  0.77807  0.04741  0.34345  1.0000
  H   H103      1.0  0.72831  0.05743  0.48549  1.0000
  H   H104      1.0  0.77404  0.04862  0.48513  1.0000
  H   H105      1.0  0.64827  0.07454  0.47966  1.0000
  N   N24       1.0  0.32087  0.93632  0.41596  1.0000
  C   C188      1.0  0.34650  0.93021  0.41903  1.0000
  C   C189      1.0  0.27997  0.94608  0.34330  1.0000
  C   C190      1.0  0.26626  0.94833  0.42547  1.0000
  C   C191      1.0  0.23957  0.95427  0.42534  1.0000
  C   C192      1.0  0.22625  0.95821  0.34365  1.0000
  H   H106      1.0  0.27537  0.94552  0.48572  1.0000
  H   H107      1.0  0.22992  0.95564  0.48526  1.0000
  H   H108      1.0  0.35524  0.92784  0.48012  1.0000
  C   C193      1.0  0.42749  0.85936  0.34323  1.0000
  C   C194      1.0  0.43031  0.84574  0.42496  1.0000
  C   C195      1.0  0.43628  0.81897  0.42507  1.0000
  C   C196      1.0  0.43939  0.80542  0.34285  1.0000
  C   C197      1.0  0.45438  0.73847  0.41848  1.0000
  N   N25       1.0  0.44884  0.76431  0.41545  1.0000
  H   H109      1.0  0.45671  0.72968  0.47955  1.0000
  H   H110      1.0  0.42790  0.85518  0.48493  1.0000
  H   H111      1.0  0.43813  0.80961  0.48535  1.0000
  C   C198      1.0  0.57579  0.14269  0.34278  1.0000
  C   C199      1.0  0.57235  0.15616  0.42452  1.0000
  C   C200      1.0  0.56653  0.18297  0.42474  1.0000
  C   C201      1.0  0.56414  0.19672  0.34261  1.0000
  C   C202      1.0  0.55025  0.26391  0.41858  1.0000
  N   N26       1.0  0.55545  0.23799  0.41543  1.0000
  H   H112      1.0  0.54820  0.27273  0.47972  1.0000
  H   H113      1.0  0.57427  0.14659  0.48448  1.0000
  H   H114      1.0  0.56427  0.19221  0.48507  1.0000
  C   C203      1.0  0.86111  0.57708  0.34336  1.0000
  C   C204      1.0  0.84754  0.57410  0.42507  1.0000
  C   C205      1.0  0.82080  0.56814  0.42521  1.0000
  C   C206      1.0  0.80720  0.56522  0.34302  1.0000
  C   C207      1.0  0.74026  0.55048  0.41874  1.0000
  N   N27       1.0  0.76608  0.55598  0.41568  1.0000
  H   H115      1.0  0.73148  0.54824  0.47983  1.0000
  H   H116      1.0  0.85699  0.57641  0.48505  1.0000
  H   H117      1.0  0.81148  0.56619  0.48551  1.0000
  C   C208      1.0  0.14304  0.42906  0.34273  1.0000
  C   C209      1.0  0.15653  0.43231  0.42448  1.0000
  C   C210      1.0  0.18336  0.43778  0.42467  1.0000
  C   C211      1.0  0.19710  0.43996  0.34251  1.0000
  C   C212      1.0  0.26438  0.45259  0.41844  1.0000
  N   N28       1.0  0.23844  0.44782  0.41529  1.0000
  H   H118      1.0  0.27325  0.45443  0.47957  1.0000
  H   H119      1.0  0.14697  0.43044  0.48444  1.0000
  H   H120      1.0  0.19263  0.43989  0.48498  1.0000
  N   N29       1.0  0.13381  0.05638  0.41529  1.0000
  C   C213      1.0  0.14724  0.03368  0.41826  1.0000
  C   C214      1.0  0.11069  0.09152  0.34293  1.0000
  C   C215      1.0  0.10231  0.10250  0.42527  1.0000
  C   C216      1.0  0.08521  0.12386  0.42528  1.0000
  C   C217      1.0  0.07665  0.13480  0.34358  1.0000
  H   H121      1.0  0.10772  0.09463  0.48549  1.0000
  H   H122      1.0  0.07845  0.13086  0.48525  1.0000
  H   H123      1.0  0.15119  0.02550  0.47934  1.0000
  N   N30       1.0  0.87127  0.95020  0.41533  1.0000
  C   C218      1.0  0.85770  0.97281  0.41828  1.0000
  C   C219      1.0  0.89471  0.91523  0.34304  1.0000
  C   C220      1.0  0.90323  0.90436  0.42539  1.0000
  C   C221      1.0  0.92015  0.88285  0.42539  1.0000
  C   C222      1.0  0.92838  0.87165  0.34370  1.0000
  H   H124      1.0  0.89808  0.91243  0.48557  1.0000
  H   H125      1.0  0.92705  0.87596  0.48531  1.0000
  H   H126      1.0  0.85347  0.98083  0.47938  1.0000
  N   N31       1.0  0.94810  0.13477  0.41554  1.0000
  C   C223      1.0  0.97119  0.14758  0.41862  1.0000
  C   C224      1.0  0.91232  0.11259  0.34294  1.0000
  C   C225      1.0  0.90111  0.10441  0.42521  1.0000
  C   C226      1.0  0.87955  0.08746  0.42509  1.0000
  C   C227      1.0  0.86861  0.07889  0.34331  1.0000
  H   H127      1.0  0.90907  0.10967  0.48548  1.0000
  H   H128      1.0  0.87256  0.08061  0.48501  1.0000
  H   H129      1.0  0.97946  0.15133  0.47973  1.0000
  N   N32       1.0  0.05658  0.87135  0.41560  1.0000
  C   C228      1.0  0.03358  0.85840  0.41863  1.0000
  C   C229      1.0  0.09219  0.89376  0.34309  1.0000
  C   C230      1.0  0.10332  0.90201  0.42541  1.0000
  C   C231      1.0  0.12471  0.91917  0.42535  1.0000
  C   C232      1.0  0.13553  0.92788  0.34359  1.0000
  H   H130      1.0  0.09545  0.89659  0.48566  1.0000
  H   H131      1.0  0.13173  0.92596  0.48530  1.0000
  H   H132      1.0  0.02526  0.85472  0.47971  1.0000
  C   C233      1.0  0.35090  0.51788  0.34349  1.0000
  C   C234      1.0  0.35778  0.52994  0.42526  1.0000
  C   C235      1.0  0.37084  0.55409  0.42537  1.0000
  C   C236      1.0  0.37759  0.56621  0.34306  1.0000
  C   C237      1.0  0.41784  0.62168  0.41858  1.0000
  N   N33       1.0  0.40178  0.60069  0.41556  1.0000
  H   H133      1.0  0.42417  0.62825  0.47961  1.0000
  H   H134      1.0  0.35409  0.52086  0.48516  1.0000
  H   H135      1.0  0.37611  0.56207  0.48561  1.0000
  C   C238      1.0  0.65399  0.48450  0.34353  1.0000
  C   C239      1.0  0.64675  0.47260  0.42524  1.0000
  C   C240      1.0  0.63341  0.44860  0.42533  1.0000
  C   C241      1.0  0.62665  0.43647  0.34305  1.0000
  C   C242      1.0  0.58638  0.38091  0.41844  1.0000
  N   N34       1.0  0.60243  0.40193  0.41546  1.0000
  H   H136      1.0  0.58021  0.37420  0.47950  1.0000
  H   H137      1.0  0.65032  0.48174  0.48511  1.0000
  H   H138      1.0  0.62784  0.44079  0.48554  1.0000
  C   C243      1.0  0.51944  0.65192  0.34354  1.0000
  C   C244      1.0  0.53133  0.64475  0.42523  1.0000
  C   C245      1.0  0.55537  0.63174  0.42528  1.0000
  C   C246      1.0  0.56759  0.62530  0.34296  1.0000
  C   C247      1.0  0.62362  0.58618  0.41828  1.0000
  N   N35       1.0  0.60244  0.60183  0.41532  1.0000
  H   H139      1.0  0.63038  0.58010  0.47934  1.0000
  H   H140      1.0  0.52218  0.64818  0.48511  1.0000
  H   H141      1.0  0.56321  0.62626  0.48546  1.0000
  C   C248      1.0  0.48475  0.35014  0.34335  1.0000
  C   C249      1.0  0.47267  0.35690  0.42513  1.0000
  C   C250      1.0  0.44857  0.36979  0.42528  1.0000
  C   C251      1.0  0.43647  0.37651  0.34302  1.0000
  C   C252      1.0  0.38088  0.41617  0.41871  1.0000
  N   N36       1.0  0.40192  0.40033  0.41562  1.0000
  H   H142      1.0  0.37431  0.42244  0.47977  1.0000
  H   H143      1.0  0.48173  0.35325  0.48502  1.0000
  H   H144      1.0  0.44059  0.37498  0.48554  1.0000
