data_image0
_chemical_formula_structural       C3H2C2HC2HC2H2C3NC2NC3HC3H2C2HC4H2C6H4C6H4C3H2C4H3C2H2C4H2C2H2C4H2C6H4C4H3C2H2C4H2C2H2C4H2C6H4C6H4C6H4C6H4C2H2C4H2C2H2C4H2C2H2C2H2C4H2CNCNCNCNCNCNCNCNCNCNCNCNCNCNCNCNCNCNCNCNCNCNCNCN2CNCN2CNCNCNCNCNCNC2H2C4H2C2H2C4H3C4H2C2H2C5H3C6H4C2H2C4H2C2H2C4H2C6H4C6H4C2H2C4H2C2H2C4H2C2H2C4H2C2H2C4H2C6H4C6H4C2H2C6H4
_chemical_formula_sum              "C252 H144 N36"
_cell_length_a       32.134
_cell_length_b       83.3211
_cell_length_c       14.8726
_cell_angle_alpha    90
_cell_angle_beta     90
_cell_angle_gamma    90

_space_group_name_H-M_alt    "P 1"
_space_group_IT_number       1

loop_
  _space_group_symop_operation_xyz
  'x, y, z'

loop_
  _atom_site_type_symbol
  _atom_site_label
  _atom_site_symmetry_multiplicity
  _atom_site_fract_x
  _atom_site_fract_y
  _atom_site_fract_z
  _atom_site_occupancy
  C   C1        1.0  0.08922  0.68619  0.29391  1.0000
  C   C2        1.0  0.04575  0.68487  0.29712  1.0000
  C   C3        1.0  0.02634  0.67127  0.33555  1.0000
  H   H1        1.0  0.10148  0.69651  0.26778  1.0000
  H   H2        1.0  0.02835  0.69425  0.27333  1.0000
  C   C4        1.0  0.05211  0.35001  0.31865  1.0000
  C   C5        1.0  0.09593  0.34869  0.32211  1.0000
  H   H3        1.0  0.03921  0.35993  0.28927  1.0000
  C   C6        1.0  0.07811  0.90895  0.33405  1.0000
  C   C7        1.0  0.07583  0.89301  0.30111  1.0000
  H   H4        1.0  0.04872  0.88861  0.27474  1.0000
  C   C8        1.0  0.04031  0.98660  0.31809  1.0000
  C   C9        1.0  0.04039  0.96967  0.31862  1.0000
  H   H5        1.0  0.06690  0.99231  0.29808  1.0000
  H   H6        1.0  0.06713  0.96390  0.29997  1.0000
  C   C10       1.0  0.00448  0.01296  0.34192  1.0000
  C   C11       1.0  0.00440  0.04781  0.34197  1.0000
  C   C12       1.0  0.04140  0.08995  0.34617  1.0000
  N   N1        1.0  0.04069  0.07360  0.34534  1.0000
  C   C13       1.0  0.00434  0.06503  0.34198  1.0000
  C   C14       1.0  0.00435  0.94353  0.34186  1.0000
  N   N2        1.0  0.04071  0.93497  0.33847  1.0000
  C   C15       1.0  0.04143  0.91861  0.33762  1.0000
  C   C16       1.0  0.05211  0.65856  0.36528  1.0000
  C   C17       1.0  0.09594  0.65987  0.36164  1.0000
  H   H7        1.0  0.03921  0.64863  0.39453  1.0000
  C   C18       1.0  0.02634  0.33729  0.34824  1.0000
  C   C19       1.0  0.08922  0.32237  0.38984  1.0000
  C   C20       1.0  0.04575  0.32369  0.38658  1.0000
  H   H8        1.0  0.10148  0.31205  0.41604  1.0000
  H   H9        1.0  0.02835  0.31431  0.41045  1.0000
  C   C21       1.0  0.07808  0.09962  0.34975  1.0000
  C   C22       1.0  0.07580  0.11555  0.38280  1.0000
  H   H10       1.0  0.04870  0.11995  0.40922  1.0000
  C   C23       1.0  0.00441  0.96076  0.34188  1.0000
  C   C24       1.0  0.00448  0.99560  0.34194  1.0000
  C   C25       1.0  0.04033  0.02196  0.36563  1.0000
  C   C26       1.0  0.04040  0.03889  0.36509  1.0000
  H   H11       1.0  0.06694  0.01625  0.38553  1.0000
  H   H12       1.0  0.06716  0.04466  0.38361  1.0000
  C   C27       1.0  0.61527  0.17394  0.32849  1.0000
  C   C28       1.0  0.58913  0.18615  0.29364  1.0000
  C   C29       1.0  0.54566  0.18481  0.29691  1.0000
  C   C30       1.0  0.52631  0.17123  0.33561  1.0000
  C   C31       1.0  0.45644  0.15859  0.31775  1.0000
  C   C32       1.0  0.41262  0.15992  0.32146  1.0000
  H   H13       1.0  0.46929  0.14869  0.28797  1.0000
  H   H14       1.0  0.39499  0.15094  0.29408  1.0000
  H   H15       1.0  0.60136  0.19647  0.26733  1.0000
  H   H16       1.0  0.52823  0.19417  0.27299  1.0000
  C   C33       1.0  0.39332  0.83461  0.32851  1.0000
  C   C34       1.0  0.41947  0.82243  0.29334  1.0000
  C   C35       1.0  0.46294  0.82378  0.29666  1.0000
  C   C36       1.0  0.48227  0.83733  0.33570  1.0000
  C   C37       1.0  0.55212  0.85002  0.31829  1.0000
  C   C38       1.0  0.59594  0.84868  0.32179  1.0000
  H   H17       1.0  0.53924  0.85992  0.28864  1.0000
  H   H18       1.0  0.61353  0.85769  0.29472  1.0000
  H   H19       1.0  0.40726  0.81214  0.26674  1.0000
  H   H20       1.0  0.48039  0.81445  0.27245  1.0000
  C   C39       1.0  0.11532  0.67394  0.32851  1.0000
  C   C40       1.0  0.95647  0.65860  0.31782  1.0000
  C   C41       1.0  0.91265  0.65991  0.32154  1.0000
  H   H21       1.0  0.96935  0.64869  0.28823  1.0000
  H   H22       1.0  0.89505  0.65091  0.29436  1.0000
  C   C42       1.0  0.89330  0.33461  0.32865  1.0000
  C   C43       1.0  0.91943  0.32240  0.29371  1.0000
  C   C44       1.0  0.96289  0.32373  0.29704  1.0000
  C   C45       1.0  0.98227  0.33729  0.33589  1.0000
  H   H23       1.0  0.11350  0.35774  0.29528  1.0000
  H   H24       1.0  0.90719  0.31210  0.26723  1.0000
  H   H25       1.0  0.98031  0.31438  0.27292  1.0000
  C   C46       1.0  0.15157  0.10481  0.31263  1.0000
  C   C47       1.0  0.11703  0.09431  0.31669  1.0000
  H   H26       1.0  0.17853  0.10071  0.28419  1.0000
  H   H27       1.0  0.12003  0.08299  0.29094  1.0000
  C   C48       1.0  0.18226  0.13221  0.33379  1.0000
  C   C49       1.0  0.24764  0.15595  0.32927  1.0000
  C   C50       1.0  0.20619  0.15982  0.30517  1.0000
  C   C51       1.0  0.17440  0.14824  0.30692  1.0000
  H   H28       1.0  0.19831  0.17125  0.28666  1.0000
  H   H29       1.0  0.14507  0.15176  0.28883  1.0000
  C   C52       1.0  0.85692  0.90387  0.31143  1.0000
  C   C53       1.0  0.89151  0.91434  0.31546  1.0000
  H   H30       1.0  0.83017  0.90789  0.28177  1.0000
  H   H31       1.0  0.88876  0.92559  0.28855  1.0000
  C   C54       1.0  0.82607  0.87653  0.33392  1.0000
  C   C55       1.0  0.76085  0.85275  0.32924  1.0000
  C   C56       1.0  0.80242  0.84887  0.30608  1.0000
  C   C57       1.0  0.83413  0.86048  0.30794  1.0000
  H   H32       1.0  0.81044  0.83743  0.28825  1.0000
  H   H33       1.0  0.86357  0.85696  0.29066  1.0000
  C   C58       1.0  0.93017  0.09945  0.33355  1.0000
  C   C59       1.0  0.93211  0.11525  0.29848  1.0000
  C   C60       1.0  0.89764  0.12558  0.30165  1.0000
  C   C61       1.0  0.85959  0.12074  0.34115  1.0000
  C   C62       1.0  0.78424  0.12794  0.33024  1.0000
  C   C63       1.0  0.75231  0.13958  0.33262  1.0000
  H   H34       1.0  0.77688  0.11654  0.31021  1.0000
  H   H35       1.0  0.72290  0.13617  0.31465  1.0000
  H   H36       1.0  0.95901  0.11956  0.27069  1.0000
  H   H37       1.0  0.90097  0.13686  0.27539  1.0000
  C   C64       1.0  0.11026  0.88266  0.30430  1.0000
  C   C65       1.0  0.14867  0.88762  0.34168  1.0000
  C   C66       1.0  0.22398  0.88043  0.32910  1.0000
  C   C67       1.0  0.25598  0.86881  0.33132  1.0000
  H   H38       1.0  0.23116  0.89177  0.30791  1.0000
  H   H39       1.0  0.28526  0.87221  0.31229  1.0000
  H   H40       1.0  0.10667  0.87129  0.27944  1.0000
  C   C68       1.0  0.65152  0.60477  0.31239  1.0000
  C   C69       1.0  0.61695  0.59429  0.31645  1.0000
  H   H41       1.0  0.67847  0.60066  0.28398  1.0000
  H   H42       1.0  0.61992  0.58296  0.29074  1.0000
  C   C70       1.0  0.68227  0.63216  0.33352  1.0000
  C   C71       1.0  0.74766  0.65588  0.32907  1.0000
  C   C72       1.0  0.70623  0.65975  0.30473  1.0000
  C   C73       1.0  0.67444  0.64818  0.30644  1.0000
  H   H43       1.0  0.69838  0.67118  0.28608  1.0000
  H   H44       1.0  0.64513  0.65169  0.28821  1.0000
  C   C74       1.0  0.35691  0.40394  0.31049  1.0000
  C   C75       1.0  0.39152  0.41440  0.31451  1.0000
  H   H45       1.0  0.33028  0.40791  0.28015  1.0000
  H   H46       1.0  0.38892  0.42559  0.28690  1.0000
  C   C76       1.0  0.32594  0.37665  0.33377  1.0000
  C   C77       1.0  0.26082  0.35284  0.32911  1.0000
  C   C78       1.0  0.30243  0.34898  0.30613  1.0000
  C   C79       1.0  0.33410  0.36060  0.30800  1.0000
  H   H47       1.0  0.31051  0.33753  0.28847  1.0000
  H   H48       1.0  0.36357  0.35709  0.29096  1.0000
  C   C80       1.0  0.43006  0.59939  0.33369  1.0000
  C   C81       1.0  0.43186  0.61513  0.29796  1.0000
  C   C82       1.0  0.39736  0.62545  0.30116  1.0000
  C   C83       1.0  0.35945  0.62063  0.34137  1.0000
  C   C84       1.0  0.28413  0.62784  0.33054  1.0000
  C   C85       1.0  0.25223  0.63950  0.33287  1.0000
  H   H49       1.0  0.27675  0.61645  0.31050  1.0000
  H   H50       1.0  0.22282  0.63610  0.31484  1.0000
  H   H51       1.0  0.45867  0.61943  0.26967  1.0000
  H   H52       1.0  0.40056  0.63670  0.27449  1.0000
  C   C86       1.0  0.57802  0.40896  0.33426  1.0000
  C   C87       1.0  0.57576  0.39302  0.30134  1.0000
  C   C88       1.0  0.61021  0.38268  0.30451  1.0000
  C   C89       1.0  0.64861  0.38766  0.34184  1.0000
  C   C90       1.0  0.72394  0.38048  0.32913  1.0000
  C   C91       1.0  0.75595  0.36887  0.33133  1.0000
  H   H53       1.0  0.73109  0.39182  0.30786  1.0000
  H   H54       1.0  0.78521  0.37226  0.31219  1.0000
  H   H55       1.0  0.54865  0.38861  0.27499  1.0000
  H   H56       1.0  0.60664  0.37132  0.27965  1.0000
  C   C92       1.0  0.28336  0.21267  0.33958  1.0000
  C   C93       1.0  0.24313  0.21758  0.31235  1.0000
  C   C94       1.0  0.23197  0.23392  0.31089  1.0000
  C   C95       1.0  0.26035  0.24606  0.33744  1.0000
  C   C96       1.0  0.27721  0.27486  0.31111  1.0000
  C   C97       1.0  0.26596  0.29120  0.31274  1.0000
  H   H57       1.0  0.30632  0.27194  0.28866  1.0000
  H   H58       1.0  0.28738  0.29949  0.29199  1.0000
  H   H59       1.0  0.22163  0.20931  0.29170  1.0000
  H   H60       1.0  0.20287  0.23688  0.28854  1.0000
  C   C98       1.0  0.72548  0.79600  0.33998  1.0000
  C   C99       1.0  0.76570  0.79112  0.31262  1.0000
  C   C100      1.0  0.77693  0.77477  0.31110  1.0000
  C   C101      1.0  0.74862  0.76262  0.33775  1.0000
  C   C102      1.0  0.73170  0.73384  0.31126  1.0000
  C   C103      1.0  0.74291  0.71749  0.31271  1.0000
  H   H61       1.0  0.70259  0.73678  0.28891  1.0000
  H   H62       1.0  0.72144  0.70922  0.29206  1.0000
  H   H63       1.0  0.78714  0.79940  0.29182  1.0000
  H   H64       1.0  0.80602  0.77184  0.28861  1.0000
  C   C104      1.0  0.70854  0.24101  0.31795  1.0000
  C   C105      1.0  0.69717  0.22472  0.31729  1.0000
  H   H65       1.0  0.68724  0.24924  0.29587  1.0000
  H   H66       1.0  0.66787  0.22187  0.29564  1.0000
  C   C106      1.0  0.76006  0.26258  0.34616  1.0000
  C   C107      1.0  0.78316  0.29596  0.34401  1.0000
  C   C108      1.0  0.81152  0.28381  0.31764  1.0000
  C   C109      1.0  0.80016  0.26751  0.31827  1.0000
  H   H67       1.0  0.84083  0.28666  0.29613  1.0000
  H   H68       1.0  0.82149  0.25929  0.29626  1.0000
  C   C110      1.0  0.30043  0.76745  0.31842  1.0000
  C   C111      1.0  0.31173  0.78376  0.31780  1.0000
  H   H69       1.0  0.32178  0.75924  0.29640  1.0000
  H   H70       1.0  0.34104  0.78663  0.29630  1.0000
  C   C112      1.0  0.24890  0.74587  0.34612  1.0000
  C   C113      1.0  0.22570  0.71250  0.34373  1.0000
  C   C114      1.0  0.19743  0.72466  0.31718  1.0000
  C   C115      1.0  0.20883  0.74095  0.31793  1.0000
  H   H71       1.0  0.16811  0.72182  0.29560  1.0000
  H   H72       1.0  0.18753  0.74918  0.29592  1.0000
  C   C116      1.0  0.96845  0.03887  0.31879  1.0000
  C   C117      1.0  0.96860  0.02194  0.31820  1.0000
  H   H73       1.0  0.94167  0.04462  0.30024  1.0000
  H   H74       1.0  0.94202  0.01622  0.29822  1.0000
  C   C118      1.0  0.54034  0.48661  0.31790  1.0000
  C   C119      1.0  0.54040  0.46968  0.31840  1.0000
  H   H75       1.0  0.56692  0.49232  0.29783  1.0000
  H   H76       1.0  0.56712  0.46391  0.29970  1.0000
  C   C120      1.0  0.50453  0.51297  0.34185  1.0000
  C   C121      1.0  0.50442  0.54780  0.34198  1.0000
  C   C122      1.0  0.46848  0.53887  0.31874  1.0000
  C   C123      1.0  0.46864  0.52194  0.31812  1.0000
  H   H77       1.0  0.44168  0.54461  0.30028  1.0000
  H   H78       1.0  0.44205  0.51621  0.29820  1.0000
  C   C124      1.0  0.34956  0.17662  0.34904  1.0000
  N   N3        1.0  0.32041  0.16479  0.34143  1.0000
  C   C125      1.0  0.27892  0.16816  0.33346  1.0000
  N   N4        1.0  0.26750  0.18393  0.33292  1.0000
  C   C126      1.0  0.29521  0.19618  0.33994  1.0000
  N   N5        1.0  0.33575  0.19201  0.34777  1.0000
  C   C127      1.0  0.65904  0.83199  0.34907  1.0000
  N   N6        1.0  0.68813  0.84384  0.34137  1.0000
  C   C128      1.0  0.72964  0.84051  0.33348  1.0000
  N   N7        1.0  0.74115  0.82475  0.33311  1.0000
  C   C129      1.0  0.71352  0.81248  0.34023  1.0000
  N   N8        1.0  0.67296  0.81661  0.34795  1.0000
  C   C130      1.0  0.65903  0.17658  0.33474  1.0000
  N   N9        1.0  0.68812  0.16472  0.34238  1.0000
  C   C131      1.0  0.72964  0.16805  0.35023  1.0000
  N   N10       1.0  0.74114  0.18382  0.35062  1.0000
  C   C132      1.0  0.71351  0.19608  0.34356  1.0000
  N   N11       1.0  0.67295  0.19195  0.33586  1.0000
  C   C133      1.0  0.34957  0.83194  0.33483  1.0000
  N   N12       1.0  0.32043  0.84377  0.34241  1.0000
  C   C134      1.0  0.27893  0.84041  0.35036  1.0000
  N   N13       1.0  0.26751  0.82463  0.35089  1.0000
  C   C135      1.0  0.29521  0.81239  0.34387  1.0000
  N   N14       1.0  0.33575  0.81655  0.33607  1.0000
  C   C136      1.0  0.84953  0.67660  0.34899  1.0000
  N   N15       1.0  0.82042  0.66475  0.34130  1.0000
  C   C137      1.0  0.77892  0.66810  0.33338  1.0000
  N   N16       1.0  0.76744  0.68386  0.33299  1.0000
  C   C138      1.0  0.79510  0.69612  0.34011  1.0000
  N   N17       1.0  0.83565  0.69198  0.34785  1.0000
  C   C139      1.0  0.15911  0.33201  0.34906  1.0000
  N   N18       1.0  0.18814  0.34388  0.34132  1.0000
  C   C140      1.0  0.22967  0.34059  0.33343  1.0000
  N   N19       1.0  0.24125  0.32483  0.33312  1.0000
  C   C141      1.0  0.21368  0.31255  0.34028  1.0000
  N   N20       1.0  0.17310  0.31665  0.34799  1.0000
  C   C142      1.0  0.15910  0.67655  0.33476  1.0000
  N   N21       1.0  0.18814  0.66468  0.34249  1.0000
  C   C143      1.0  0.22967  0.66798  0.35037  1.0000
  N   N22       1.0  0.24124  0.68374  0.35068  1.0000
  C   C144      1.0  0.21368  0.69602  0.34352  1.0000
  N   N23       1.0  0.17309  0.69192  0.33581  1.0000
  C   C145      1.0  0.84953  0.33197  0.33488  1.0000
  N   N24       1.0  0.82042  0.34381  0.34249  1.0000
  C   C146      1.0  0.77891  0.34047  0.35038  1.0000
  N   N25       1.0  0.76743  0.32470  0.35079  1.0000
  C   C147      1.0  0.79509  0.31244  0.34373  1.0000
  N   N26       1.0  0.83564  0.31658  0.33602  1.0000
  N   N27       1.0  0.96788  0.07353  0.33849  1.0000
  C   C148      1.0  0.96697  0.08987  0.33736  1.0000
  N   N28       1.0  0.00412  0.09750  0.34167  1.0000
  C   C149      1.0  0.96700  0.91869  0.34641  1.0000
  N   N29       1.0  0.96790  0.93503  0.34533  1.0000
  N   N30       1.0  0.00416  0.91107  0.34209  1.0000
  C   C150      1.0  0.54133  0.58995  0.34604  1.0000
  N   N31       1.0  0.54066  0.57360  0.34526  1.0000
  C   C151      1.0  0.50433  0.56502  0.34204  1.0000
  N   N32       1.0  0.46785  0.57350  0.33865  1.0000
  C   C152      1.0  0.46690  0.58984  0.33749  1.0000
  N   N33       1.0  0.50404  0.59749  0.34165  1.0000
  C   C153      1.0  0.46691  0.41873  0.34633  1.0000
  N   N34       1.0  0.46785  0.43508  0.34517  1.0000
  C   C154      1.0  0.50433  0.44355  0.34175  1.0000
  N   N35       1.0  0.54066  0.43498  0.33849  1.0000
  C   C155      1.0  0.54133  0.41862  0.33773  1.0000
  N   N36       1.0  0.50404  0.41109  0.34215  1.0000
  C   C156      1.0  0.55211  0.15855  0.36558  1.0000
  C   C157      1.0  0.59594  0.15987  0.36191  1.0000
  H   H79       1.0  0.53924  0.14863  0.39505  1.0000
  H   H80       1.0  0.61353  0.15086  0.38902  1.0000
  C   C158      1.0  0.48226  0.17123  0.34811  1.0000
  C   C159      1.0  0.39331  0.17395  0.35536  1.0000
  C   C160      1.0  0.41947  0.18612  0.39054  1.0000
  C   C161      1.0  0.46293  0.18478  0.38719  1.0000
  H   H81       1.0  0.40726  0.19642  0.41711  1.0000
  H   H82       1.0  0.48039  0.19411  0.41139  1.0000
  C   C162      1.0  0.45645  0.84998  0.36605  1.0000
  C   C163      1.0  0.41263  0.84864  0.36242  1.0000
  H   H83       1.0  0.46931  0.85987  0.39577  1.0000
  H   H84       1.0  0.39500  0.85763  0.38968  1.0000
  C   C164      1.0  0.52632  0.83733  0.34817  1.0000
  C   C165      1.0  0.61527  0.83462  0.35530  1.0000
  C   C166      1.0  0.58914  0.82242  0.39017  1.0000
  C   C167      1.0  0.54568  0.82374  0.38684  1.0000
  H   H85       1.0  0.60138  0.81210  0.41659  1.0000
  H   H86       1.0  0.52824  0.81440  0.41088  1.0000
  H   H87       1.0  0.11350  0.65083  0.38856  1.0000
  C   C168      1.0  0.98228  0.67127  0.34793  1.0000
  C   C169      1.0  0.89330  0.67395  0.35522  1.0000
  C   C170      1.0  0.91944  0.68616  0.39017  1.0000
  C   C171      1.0  0.96291  0.68484  0.38679  1.0000
  H   H88       1.0  0.90720  0.69647  0.41660  1.0000
  H   H89       1.0  0.98033  0.69418  0.41088  1.0000
  C   C172      1.0  0.95647  0.34996  0.36601  1.0000
  C   C173      1.0  0.91265  0.34864  0.36236  1.0000
  H   H90       1.0  0.96935  0.35987  0.39555  1.0000
  H   H91       1.0  0.89505  0.35766  0.38943  1.0000
  C   C174      1.0  0.11532  0.33462  0.35527  1.0000
  C   C175      1.0  0.11023  0.12590  0.37963  1.0000
  C   C176      1.0  0.14863  0.12095  0.34215  1.0000
  C   C177      1.0  0.22395  0.12814  0.35468  1.0000
  C   C178      1.0  0.25596  0.13976  0.35234  1.0000
  H   H92       1.0  0.23115  0.11679  0.37562  1.0000
  H   H93       1.0  0.28525  0.13635  0.37125  1.0000
  H   H94       1.0  0.10665  0.13726  0.40457  1.0000
  C   C179      1.0  0.93020  0.90910  0.35018  1.0000
  C   C180      1.0  0.93219  0.89328  0.38491  1.0000
  C   C181      1.0  0.89772  0.88295  0.38170  1.0000
  C   C182      1.0  0.85962  0.88781  0.34253  1.0000
  C   C183      1.0  0.78428  0.88062  0.35366  1.0000
  C   C184      1.0  0.75235  0.86897  0.35140  1.0000
  H   H95       1.0  0.77696  0.89199  0.37405  1.0000
  H   H96       1.0  0.72296  0.87238  0.36958  1.0000
  H   H97       1.0  0.95911  0.88895  0.41249  1.0000
  H   H98       1.0  0.90108  0.87165  0.40774  1.0000
  C   C185      1.0  0.85694  0.10470  0.37260  1.0000
  C   C186      1.0  0.89151  0.09422  0.36852  1.0000
  H   H99       1.0  0.83023  0.10071  0.40253  1.0000
  H   H100      1.0  0.88881  0.08300  0.39581  1.0000
  C   C187      1.0  0.82606  0.13202  0.34977  1.0000
  C   C188      1.0  0.76085  0.15582  0.35444  1.0000
  C   C189      1.0  0.80245  0.15970  0.37734  1.0000
  C   C190      1.0  0.83416  0.14809  0.37547  1.0000
  H   H101      1.0  0.81051  0.17115  0.39491  1.0000
  H   H102      1.0  0.86362  0.15162  0.39252  1.0000
  C   C191      1.0  0.15162  0.90377  0.37108  1.0000
  C   C192      1.0  0.11706  0.91426  0.36707  1.0000
  H   H103      1.0  0.17859  0.90787  0.39942  1.0000
  H   H104      1.0  0.12008  0.92559  0.39263  1.0000
  C   C193      1.0  0.18230  0.87636  0.35005  1.0000
  C   C194      1.0  0.24767  0.85262  0.35454  1.0000
  C   C195      1.0  0.20622  0.84876  0.37881  1.0000
  C   C196      1.0  0.17445  0.86034  0.37707  1.0000
  H   H105      1.0  0.19836  0.83734  0.39747  1.0000
  H   H106      1.0  0.14513  0.85683  0.39528  1.0000
  C   C197      1.0  0.57801  0.59961  0.34949  1.0000
  C   C198      1.0  0.57577  0.61554  0.38252  1.0000
  C   C199      1.0  0.61023  0.62588  0.37935  1.0000
  C   C200      1.0  0.64861  0.62091  0.34189  1.0000
  C   C201      1.0  0.72393  0.62809  0.35460  1.0000
  C   C202      1.0  0.75596  0.63970  0.35229  1.0000
  H   H107      1.0  0.73110  0.61674  0.37568  1.0000
  H   H108      1.0  0.78523  0.63630  0.37139  1.0000
  H   H109      1.0  0.54868  0.61995  0.40894  1.0000
  H   H110      1.0  0.60668  0.63725  0.40427  1.0000
  C   C203      1.0  0.43006  0.40919  0.35015  1.0000
  C   C204      1.0  0.43189  0.39343  0.38578  1.0000
  C   C205      1.0  0.39739  0.38311  0.38257  1.0000
  C   C206      1.0  0.35946  0.38794  0.34250  1.0000
  C   C207      1.0  0.28413  0.38073  0.35329  1.0000
  C   C208      1.0  0.25224  0.36906  0.35105  1.0000
  H   H111      1.0  0.27676  0.39211  0.37351  1.0000
  H   H112      1.0  0.22283  0.37246  0.36909  1.0000
  H   H113      1.0  0.45871  0.38913  0.41398  1.0000
  H   H114      1.0  0.40062  0.37185  0.40917  1.0000
  C   C209      1.0  0.35693  0.60464  0.37351  1.0000
  C   C210      1.0  0.39153  0.59418  0.36940  1.0000
  H   H115      1.0  0.33032  0.60067  0.40397  1.0000
  H   H116      1.0  0.38896  0.58300  0.39723  1.0000
  C   C211      1.0  0.32594  0.63191  0.35010  1.0000
  C   C212      1.0  0.26082  0.65573  0.35470  1.0000
  C   C213      1.0  0.30242  0.65959  0.37769  1.0000
  C   C214      1.0  0.33410  0.64797  0.37584  1.0000
  H   H117      1.0  0.31051  0.67104  0.39526  1.0000
  H   H118      1.0  0.36358  0.65149  0.39283  1.0000
  C   C215      1.0  0.65154  0.40381  0.37123  1.0000
  C   C216      1.0  0.61696  0.41429  0.36723  1.0000
  H   H119      1.0  0.67851  0.40792  0.39953  1.0000
  H   H120      1.0  0.61996  0.42563  0.39276  1.0000
  C   C217      1.0  0.68227  0.37641  0.35021  1.0000
  C   C218      1.0  0.74765  0.35268  0.35464  1.0000
  C   C219      1.0  0.70623  0.34882  0.37907  1.0000
  C   C220      1.0  0.67445  0.36040  0.37734  1.0000
  H   H121      1.0  0.69839  0.33740  0.39782  1.0000
  H   H122      1.0  0.64514  0.35688  0.39565  1.0000
  C   C221      1.0  0.30044  0.24111  0.36534  1.0000
  C   C222      1.0  0.31175  0.22481  0.36594  1.0000
  H   H123      1.0  0.32179  0.24932  0.38734  1.0000
  H   H124      1.0  0.34105  0.22194  0.38748  1.0000
  C   C223      1.0  0.24891  0.26270  0.33765  1.0000
  C   C224      1.0  0.22571  0.29607  0.34005  1.0000
  C   C225      1.0  0.19743  0.28390  0.36657  1.0000
  C   C226      1.0  0.20883  0.26762  0.36582  1.0000
  H   H125      1.0  0.16813  0.28674  0.38822  1.0000
  H   H126      1.0  0.18754  0.25938  0.38789  1.0000
  C   C227      1.0  0.70854  0.76755  0.36591  1.0000
  C   C228      1.0  0.69717  0.78385  0.36658  1.0000
  H   H127      1.0  0.68724  0.75933  0.38800  1.0000
  H   H128      1.0  0.66788  0.78670  0.38820  1.0000
  C   C229      1.0  0.76006  0.74599  0.33771  1.0000
  C   C230      1.0  0.78317  0.71261  0.33986  1.0000
  C   C231      1.0  0.81152  0.72476  0.36626  1.0000
  C   C232      1.0  0.80016  0.74105  0.36562  1.0000
  H   H129      1.0  0.84084  0.72190  0.38770  1.0000
  H   H130      1.0  0.82150  0.74928  0.38756  1.0000
  C   C233      1.0  0.72547  0.21256  0.34383  1.0000
  C   C234      1.0  0.76570  0.21744  0.37117  1.0000
  C   C235      1.0  0.77693  0.23379  0.37270  1.0000
  C   C236      1.0  0.74862  0.24594  0.34610  1.0000
  C   C237      1.0  0.73171  0.27472  0.37266  1.0000
  C   C238      1.0  0.74291  0.29107  0.37115  1.0000
  H   H131      1.0  0.70258  0.27178  0.39495  1.0000
  H   H132      1.0  0.72143  0.29935  0.39180  1.0000
  H   H133      1.0  0.78714  0.20916  0.39194  1.0000
  H   H134      1.0  0.80602  0.23672  0.39520  1.0000
  C   C239      1.0  0.28335  0.79589  0.34422  1.0000
  C   C240      1.0  0.24313  0.79099  0.37145  1.0000
  C   C241      1.0  0.23197  0.77464  0.37291  1.0000
  C   C242      1.0  0.26034  0.76250  0.34633  1.0000
  C   C243      1.0  0.27721  0.73370  0.37260  1.0000
  C   C244      1.0  0.26595  0.71736  0.37104  1.0000
  H   H135      1.0  0.30631  0.73663  0.39511  1.0000
  H   H136      1.0  0.28737  0.70907  0.39179  1.0000
  H   H137      1.0  0.22163  0.79926  0.39212  1.0000
  H   H138      1.0  0.20286  0.77169  0.39526  1.0000
  C   C245      1.0  0.96848  0.96969  0.36523  1.0000
  C   C246      1.0  0.96862  0.98662  0.36580  1.0000
  H   H139      1.0  0.94171  0.96394  0.38386  1.0000
  H   H140      1.0  0.94205  0.99234  0.38590  1.0000
  C   C247      1.0  0.50442  0.46078  0.34178  1.0000
  C   C248      1.0  0.46851  0.46971  0.36527  1.0000
  C   C249      1.0  0.46867  0.48664  0.36587  1.0000
  C   C250      1.0  0.50453  0.49561  0.34188  1.0000
  C   C251      1.0  0.54038  0.52196  0.36552  1.0000
  C   C252      1.0  0.54043  0.53890  0.36507  1.0000
  H   H141      1.0  0.56699  0.51626  0.38546  1.0000
  H   H142      1.0  0.56719  0.54466  0.38360  1.0000
  H   H143      1.0  0.44175  0.46397  0.38399  1.0000
  H   H144      1.0  0.44213  0.49236  0.38606  1.0000
