data_image0
_chemical_formula_structural       C3H2CH2C3H2C3H2CH2NC3H4C3HCH3CHC12H7C2HCH3C2HCH3C4H2CH2CH3C2HCH3NC18H12C3HC4HCH2CH3C5HCH3C4HCH3
_chemical_formula_sum              "C84 H72 N2"
_cell_length_a       32.4413
_cell_length_b       32.4414
_cell_length_c       14.5716
_cell_angle_alpha    90
_cell_angle_beta     90
_cell_angle_gamma    120

_space_group_name_H-M_alt    "P 1"
_space_group_IT_number       1

loop_
  _space_group_symop_operation_xyz
  'x, y, z'

loop_
  _atom_site_type_symbol
  _atom_site_label
  _atom_site_symmetry_multiplicity
  _atom_site_fract_x
  _atom_site_fract_y
  _atom_site_fract_z
  _atom_site_occupancy
  C   C1        1.0  0.15090  0.57913  0.36279  1.0000
  C   C2        1.0  0.12483  0.60325  0.36078  1.0000
  C   C3        1.0  0.07434  0.57874  0.35913  1.0000
  H   H1        1.0  0.14319  0.63971  0.35803  1.0000
  H   H2        1.0  0.03261  0.50768  0.18996  1.0000
  C   C4        1.0  0.05162  0.60884  0.35323  1.0000
  H   H3        1.0  0.06156  0.63210  0.41312  1.0000
  H   H4        1.0  0.06401  0.63087  0.29157  1.0000
  C   C5        1.0  0.22809  0.59729  0.29322  1.0000
  C   C6        1.0  0.20197  0.60466  0.36279  1.0000
  C   C7        1.0  0.22809  0.63814  0.43237  1.0000
  H   H5        1.0  0.21061  0.57377  0.24112  1.0000
  H   H6        1.0  0.21061  0.64419  0.48445  1.0000
  C   C8        1.0  0.04843  0.52789  0.36279  1.0000
  C   C9        1.0  0.07433  0.50295  0.36645  1.0000
  C   C10       1.0  0.12482  0.52893  0.36480  1.0000
  H   H7        1.0  0.14318  0.51083  0.36755  1.0000
  H   H8        1.0  0.03261  0.53228  0.53562  1.0000
  C   C11       1.0  0.05162  0.45014  0.37235  1.0000
  H   H9        1.0  0.06155  0.43681  0.31246  1.0000
  H   H10       1.0  0.06400  0.44050  0.43401  1.0000
  N   N1        1.0  0.35538  0.68137  0.36279  1.0000
  C   C12       1.0  0.30435  0.65585  0.36279  1.0000
  C   C13       1.0  0.27835  0.62302  0.29242  1.0000
  C   C14       1.0  0.27835  0.66268  0.43315  1.0000
  H   H11       1.0  0.35057  0.61726  0.48508  1.0000
  H   H12       1.0  0.29608  0.61725  0.24051  1.0000
  H   H13       1.0  0.35058  0.74067  0.24049  1.0000
  H   H14       1.0  0.29608  0.68617  0.48507  1.0000
  C   C15       1.0  0.45762  0.57912  0.36279  1.0000
  C   C16       1.0  0.43350  0.52893  0.36076  1.0000
  C   C17       1.0  0.45800  0.50294  0.35911  1.0000
  H   H15       1.0  0.39704  0.51083  0.35802  1.0000
  C   C18       1.0  0.42790  0.45013  0.35321  1.0000
  H   H16       1.0  0.40463  0.43680  0.41310  1.0000
  H   H17       1.0  0.44822  0.43173  0.35016  1.0000
  H   H18       1.0  0.40588  0.44049  0.29154  1.0000
  C   C19       1.0  0.45763  0.88585  0.36279  1.0000
  H   H19       1.0  0.49719  0.05298  0.16256  1.0000
  C   C20       1.0  0.38090  0.65585  0.36279  1.0000
  C   C21       1.0  0.38090  0.73240  0.36279  1.0000
  C   C22       1.0  0.41373  0.66268  0.29243  1.0000
  C   C23       1.0  0.43945  0.63815  0.29321  1.0000
  C   C24       1.0  0.43209  0.60466  0.36279  1.0000
  C   C25       1.0  0.39862  0.59731  0.43239  1.0000
  C   C26       1.0  0.37407  0.62302  0.43316  1.0000
  C   C27       1.0  0.41373  0.75840  0.43316  1.0000
  C   C28       1.0  0.43945  0.80866  0.43237  1.0000
  C   C29       1.0  0.43209  0.83478  0.36279  1.0000
  C   C30       1.0  0.39862  0.80866  0.29318  1.0000
  C   C31       1.0  0.37407  0.75840  0.29242  1.0000
  H   H20       1.0  0.46297  0.64418  0.24110  1.0000
  H   H21       1.0  0.41949  0.68617  0.24050  1.0000
  H   H22       1.0  0.39255  0.57376  0.48446  1.0000
  H   H23       1.0  0.41949  0.74067  0.48508  1.0000
  H   H24       1.0  0.46297  0.82613  0.48447  1.0000
  H   H25       1.0  0.39256  0.82614  0.24111  1.0000
  H   H26       1.0  0.49717  0.45155  0.56301  1.0000
  C   C32       1.0  0.45801  0.96241  0.36645  1.0000
  C   C33       1.0  0.43351  0.91192  0.36480  1.0000
  H   H27       1.0  0.39705  0.89356  0.36755  1.0000
  C   C34       1.0  0.42791  0.98512  0.37235  1.0000
  H   H28       1.0  0.40465  0.97519  0.31246  1.0000
  H   H29       1.0  0.44824  0.02385  0.37541  1.0000
  H   H30       1.0  0.40589  0.97274  0.43401  1.0000
  C   C35       1.0  0.55417  0.49595  0.27979  1.0000
  C   C36       1.0  0.57963  0.47091  0.28177  1.0000
  H   H31       1.0  0.59455  0.46792  0.22203  1.0000
  C   C37       1.0  0.54981  0.51429  0.18856  1.0000
  H   H32       1.0  0.52907  0.53228  0.18996  1.0000
  H   H33       1.0  0.53253  0.48478  0.14013  1.0000
  H   H34       1.0  0.58519  0.53956  0.16257  1.0000
  C   C38       1.0  0.50782  0.91192  0.36077  1.0000
  C   C39       1.0  0.53380  0.96241  0.35912  1.0000
  C   C40       1.0  0.54080  0.06558  0.27979  1.0000
  C   C41       1.0  0.56584  0.11607  0.28177  1.0000
  H   H35       1.0  0.56883  0.13398  0.22203  1.0000
  H   H36       1.0  0.52592  0.89356  0.35802  1.0000
  C   C42       1.0  0.52246  0.04287  0.18856  1.0000
  H   H37       1.0  0.50447  0.00414  0.18996  1.0000
  H   H38       1.0  0.55198  0.05510  0.14013  1.0000
  C   C43       1.0  0.58662  0.98512  0.35322  1.0000
  H   H39       1.0  0.59995  0.97519  0.41311  1.0000
  H   H40       1.0  0.60502  0.02385  0.35017  1.0000
  H   H41       1.0  0.59626  0.97274  0.29156  1.0000
  C   C44       1.0  0.97117  0.48257  0.27979  1.0000
  C   C45       1.0  0.92068  0.45712  0.28177  1.0000
  H   H42       1.0  0.90277  0.44220  0.22202  1.0000
  C   C46       1.0  0.99388  0.48694  0.18856  1.0000
  H   H43       1.0  0.98165  0.50422  0.14013  1.0000
  H   H44       1.0  0.98377  0.45156  0.16256  1.0000
  H   H45       1.0  0.01291  0.58852  0.35018  1.0000
  N   N2        1.0  0.68871  0.34803  0.36279  1.0000
  C   C47       1.0  0.66326  0.37348  0.36279  1.0000
  C   C48       1.0  0.66326  0.29713  0.36279  1.0000
  C   C49       1.0  0.73962  0.37349  0.36279  1.0000
  C   C50       1.0  0.76557  0.40260  0.28803  1.0000
  C   C51       1.0  0.81583  0.42786  0.28826  1.0000
  C   C52       1.0  0.84249  0.42492  0.36279  1.0000
  C   C53       1.0  0.81583  0.39532  0.43730  1.0000
  C   C54       1.0  0.76558  0.37033  0.43755  1.0000
  C   C55       1.0  0.63414  0.37032  0.28803  1.0000
  C   C56       1.0  0.60887  0.39531  0.28829  1.0000
  C   C57       1.0  0.61182  0.42491  0.36279  1.0000
  C   C58       1.0  0.64143  0.42786  0.43730  1.0000
  C   C59       1.0  0.66642  0.40260  0.43755  1.0000
  C   C60       1.0  0.63415  0.27117  0.43755  1.0000
  C   C61       1.0  0.60889  0.22091  0.43731  1.0000
  C   C62       1.0  0.61183  0.19426  0.36279  1.0000
  C   C63       1.0  0.64144  0.22091  0.28829  1.0000
  C   C64       1.0  0.66643  0.27117  0.28804  1.0000
  H   H46       1.0  0.58740  0.39084  0.23336  1.0000
  H   H47       1.0  0.63096  0.34937  0.23297  1.0000
  H   H48       1.0  0.68737  0.40579  0.49261  1.0000
  H   H49       1.0  0.64590  0.44934  0.49222  1.0000
  H   H50       1.0  0.74781  0.40579  0.23297  1.0000
  H   H51       1.0  0.83284  0.44936  0.23337  1.0000
  H   H52       1.0  0.63095  0.28893  0.49261  1.0000
  H   H53       1.0  0.58740  0.20391  0.49220  1.0000
  H   H54       1.0  0.64591  0.20391  0.23337  1.0000
  H   H55       1.0  0.68738  0.28893  0.23297  1.0000
  H   H56       1.0  0.74782  0.34937  0.49261  1.0000
  H   H57       1.0  0.83284  0.39084  0.49221  1.0000
  C   C65       1.0  0.50885  0.52788  0.36279  1.0000
  C   C66       1.0  0.53379  0.57873  0.36646  1.0000
  C   C67       1.0  0.50782  0.60324  0.36482  1.0000
  H   H58       1.0  0.52591  0.63970  0.36757  1.0000
  C   C68       1.0  0.53451  0.50221  0.36279  1.0000
  C   C69       1.0  0.58603  0.45070  0.36279  1.0000
  C   C70       1.0  0.56582  0.45709  0.44381  1.0000
  C   C71       1.0  0.54078  0.48256  0.44579  1.0000
  H   H59       1.0  0.56881  0.44218  0.50355  1.0000
  C   C72       1.0  0.52244  0.48693  0.53702  1.0000
  H   H60       1.0  0.50446  0.50767  0.53562  1.0000
  H   H61       1.0  0.55195  0.50420  0.58545  1.0000
  C   C73       1.0  0.58661  0.60883  0.37237  1.0000
  H   H62       1.0  0.59994  0.63209  0.31249  1.0000
  H   H63       1.0  0.60500  0.58850  0.37543  1.0000
  H   H64       1.0  0.59625  0.63085  0.43404  1.0000
  C   C74       1.0  0.50886  0.98832  0.36279  1.0000
  C   C75       1.0  0.53453  0.03965  0.36279  1.0000
  C   C76       1.0  0.58604  0.14268  0.36279  1.0000
  C   C77       1.0  0.57964  0.11607  0.44381  1.0000
  C   C78       1.0  0.55419  0.06558  0.44579  1.0000
  H   H65       1.0  0.59456  0.13398  0.50356  1.0000
  C   C79       1.0  0.54981  0.04286  0.53702  1.0000
  H   H66       1.0  0.52907  0.00414  0.53562  1.0000
  H   H67       1.0  0.53253  0.05510  0.58544  1.0000
  H   H68       1.0  0.58519  0.05297  0.56302  1.0000
  C   C80       1.0  0.99710  0.50223  0.36279  1.0000
  C   C81       1.0  0.89407  0.45072  0.36279  1.0000
  C   C82       1.0  0.92067  0.47092  0.44381  1.0000
  C   C83       1.0  0.97117  0.49596  0.44579  1.0000
  H   H69       1.0  0.90277  0.46793  0.50355  1.0000
  C   C84       1.0  0.99388  0.51430  0.53702  1.0000
  H   H70       1.0  0.98164  0.48478  0.58544  1.0000
  H   H71       1.0  0.98377  0.53957  0.56302  1.0000
  H   H72       1.0  0.01290  0.43174  0.37541  1.0000
