data_image0
_chemical_formula_structural       C2HC2HN2C3HNO2CHC3HNO2CHC4H2C4H2N2C3HNO2CHC3HNO2CHC2HC2HN2C3HNO2CHC3HNO2CHC4H2C4H2N2C3HNO2CHC3HNO2CHC2HC2HN2C3HNO2CHC3HNO2CHC4H2C4H2N2C3HNO2CHC3HNO2CHC2HC2HN2C3HNO2CHC3HNO2CHC4H2C4H2N2C3HNO2CHC3HNO2CH
_chemical_formula_sum              "C112 H56 N32 O32"
_cell_length_a       31.5666
_cell_length_b       31.5666
_cell_length_c       14.891
_cell_angle_alpha    90
_cell_angle_beta     90
_cell_angle_gamma    90

_space_group_name_H-M_alt    "P 1"
_space_group_IT_number       1

loop_
  _space_group_symop_operation_xyz
  'x, y, z'

loop_
  _atom_site_type_symbol
  _atom_site_label
  _atom_site_symmetry_multiplicity
  _atom_site_fract_x
  _atom_site_fract_y
  _atom_site_fract_z
  _atom_site_occupancy
  C   C1        1.0  0.01022  0.06435  0.33939  1.0000
  C   C2        1.0  0.04151  0.09645  0.33951  1.0000
  H   H1        1.0  0.47983  0.07468  0.33885  1.0000
  C   C3        1.0  0.46557  0.41111  0.34058  1.0000
  C   C4        1.0  0.49685  0.44321  0.34064  1.0000
  H   H2        1.0  0.02725  0.43288  0.34069  1.0000
  N   N1        1.0  0.47311  0.36881  0.34065  1.0000
  N   N2        1.0  0.03396  0.13875  0.33924  1.0000
  C   C5        1.0  0.00083  0.20817  0.33873  1.0000
  C   C6        1.0  0.96352  0.23333  0.33609  1.0000
  C   C7        1.0  0.96676  0.27811  0.33727  1.0000
  H   H3        1.0  0.93926  0.29525  0.33514  1.0000
  N   N3        1.0  0.92318  0.21365  0.33186  1.0000
  O   O1        1.0  0.90361  0.22349  0.26138  1.0000
  O   O2        1.0  0.90065  0.22292  0.39861  1.0000
  C   C8        1.0  0.99886  0.16330  0.33799  1.0000
  H   H4        1.0  0.97010  0.14852  0.33618  1.0000
  C   C9        1.0  0.29915  0.00649  0.33947  1.0000
  C   C10       1.0  0.27398  0.04380  0.33663  1.0000
  C   C11       1.0  0.22921  0.04055  0.33783  1.0000
  H   H5        1.0  0.21207  0.06805  0.33552  1.0000
  N   N4        1.0  0.29366  0.08413  0.33212  1.0000
  O   O3        1.0  0.28382  0.10359  0.26151  1.0000
  O   O4        1.0  0.28440  0.10676  0.39871  1.0000
  C   C12       1.0  0.34402  0.00846  0.33866  1.0000
  H   H6        1.0  0.35880  0.03722  0.33668  1.0000
  C   C13       1.0  0.01976  0.02001  0.34019  1.0000
  C   C14       1.0  0.08432  0.08456  0.34012  1.0000
  C   C15       1.0  0.09620  0.04175  0.34079  1.0000
  C   C16       1.0  0.06410  0.01046  0.34098  1.0000
  H   H7        1.0  0.07444  0.48007  0.34155  1.0000
  H   H8        1.0  0.10731  0.10755  0.34010  1.0000
  C   C17       1.0  0.48731  0.48755  0.34020  1.0000
  C   C18       1.0  0.44297  0.49710  0.33977  1.0000
  C   C19       1.0  0.41087  0.46581  0.33991  1.0000
  C   C20       1.0  0.42275  0.42299  0.34027  1.0000
  H   H9        1.0  0.43263  0.02749  0.33969  1.0000
  H   H10       1.0  0.39977  0.40001  0.34029  1.0000
  N   N5        1.0  0.36857  0.47335  0.33983  1.0000
  N   N6        1.0  0.13851  0.03421  0.34108  1.0000
  C   C21       1.0  0.00625  0.29939  0.34089  1.0000
  C   C22       1.0  0.04356  0.27422  0.34349  1.0000
  C   C23       1.0  0.04031  0.22945  0.34233  1.0000
  H   H11       1.0  0.06782  0.21231  0.34446  1.0000
  N   N7        1.0  0.08390  0.29391  0.34771  1.0000
  O   O5        1.0  0.10642  0.28464  0.28095  1.0000
  O   O6        1.0  0.10348  0.28407  0.41818  1.0000
  C   C24       1.0  0.00822  0.34426  0.34169  1.0000
  H   H12       1.0  0.03698  0.35904  0.34351  1.0000
  C   C25       1.0  0.20792  0.00107  0.34170  1.0000
  C   C26       1.0  0.23309  0.96377  0.34457  1.0000
  C   C27       1.0  0.27787  0.96701  0.34335  1.0000
  H   H13       1.0  0.29501  0.93951  0.34568  1.0000
  N   N8        1.0  0.21341  0.92344  0.34910  1.0000
  O   O7        1.0  0.22325  0.90398  0.41973  1.0000
  O   O8        1.0  0.22267  0.90079  0.28252  1.0000
  C   C28       1.0  0.16306  0.99910  0.34245  1.0000
  H   H14       1.0  0.14828  0.97034  0.34442  1.0000
  C   C29       1.0  0.01022  0.56435  0.33939  1.0000
  C   C30       1.0  0.04151  0.59645  0.33951  1.0000
  H   H15       1.0  0.47983  0.57468  0.33885  1.0000
  C   C31       1.0  0.46557  0.91111  0.34058  1.0000
  C   C32       1.0  0.49685  0.94321  0.34064  1.0000
  H   H16       1.0  0.02725  0.93287  0.34069  1.0000
  N   N9        1.0  0.47311  0.86881  0.34065  1.0000
  N   N10       1.0  0.03396  0.63875  0.33924  1.0000
  C   C33       1.0  0.00083  0.70817  0.33873  1.0000
  C   C34       1.0  0.96352  0.73333  0.33609  1.0000
  C   C35       1.0  0.96676  0.77811  0.33727  1.0000
  H   H17       1.0  0.93926  0.79525  0.33514  1.0000
  N   N11       1.0  0.92318  0.71365  0.33186  1.0000
  O   O9        1.0  0.90361  0.72349  0.26138  1.0000
  O   O10       1.0  0.90065  0.72292  0.39861  1.0000
  C   C36       1.0  0.99886  0.66330  0.33799  1.0000
  H   H18       1.0  0.97010  0.64852  0.33618  1.0000
  C   C37       1.0  0.29915  0.50649  0.33947  1.0000
  C   C38       1.0  0.27398  0.54380  0.33663  1.0000
  C   C39       1.0  0.22921  0.54056  0.33783  1.0000
  H   H19       1.0  0.21207  0.56805  0.33552  1.0000
  N   N12       1.0  0.29366  0.58413  0.33212  1.0000
  O   O11       1.0  0.28382  0.60359  0.26151  1.0000
  O   O12       1.0  0.28440  0.60676  0.39871  1.0000
  C   C40       1.0  0.34402  0.50846  0.33866  1.0000
  H   H20       1.0  0.35880  0.53722  0.33668  1.0000
  C   C41       1.0  0.01976  0.52001  0.34019  1.0000
  C   C42       1.0  0.08432  0.58456  0.34012  1.0000
  C   C43       1.0  0.09620  0.54175  0.34079  1.0000
  C   C44       1.0  0.06410  0.51046  0.34098  1.0000
  H   H21       1.0  0.07444  0.98007  0.34155  1.0000
  H   H22       1.0  0.10731  0.60755  0.34010  1.0000
  C   C45       1.0  0.48731  0.98755  0.34020  1.0000
  C   C46       1.0  0.44297  0.99710  0.33977  1.0000
  C   C47       1.0  0.41087  0.96580  0.33991  1.0000
  C   C48       1.0  0.42275  0.92300  0.34027  1.0000
  H   H23       1.0  0.43263  0.52749  0.33969  1.0000
  H   H24       1.0  0.39977  0.90001  0.34029  1.0000
  N   N13       1.0  0.36857  0.97335  0.33983  1.0000
  N   N14       1.0  0.13851  0.53421  0.34108  1.0000
  C   C49       1.0  0.00625  0.79939  0.34089  1.0000
  C   C50       1.0  0.04356  0.77422  0.34349  1.0000
  C   C51       1.0  0.04031  0.72945  0.34233  1.0000
  H   H25       1.0  0.06782  0.71231  0.34446  1.0000
  N   N15       1.0  0.08390  0.79390  0.34771  1.0000
  O   O13       1.0  0.10642  0.78464  0.28095  1.0000
  O   O14       1.0  0.10348  0.78407  0.41818  1.0000
  C   C52       1.0  0.00822  0.84426  0.34169  1.0000
  H   H26       1.0  0.03698  0.85904  0.34351  1.0000
  C   C53       1.0  0.20792  0.50107  0.34170  1.0000
  C   C54       1.0  0.23309  0.46377  0.34457  1.0000
  C   C55       1.0  0.27787  0.46701  0.34335  1.0000
  H   H27       1.0  0.29501  0.43951  0.34568  1.0000
  N   N16       1.0  0.21341  0.42344  0.34910  1.0000
  O   O15       1.0  0.22325  0.40398  0.41973  1.0000
  O   O16       1.0  0.22267  0.40079  0.28252  1.0000
  C   C56       1.0  0.16306  0.49910  0.34245  1.0000
  H   H28       1.0  0.14828  0.47034  0.34442  1.0000
  C   C57       1.0  0.51022  0.06435  0.33939  1.0000
  C   C58       1.0  0.54151  0.09645  0.33951  1.0000
  H   H29       1.0  0.97983  0.07468  0.33885  1.0000
  C   C59       1.0  0.96557  0.41111  0.34058  1.0000
  C   C60       1.0  0.99686  0.44321  0.34064  1.0000
  H   H30       1.0  0.52725  0.43288  0.34069  1.0000
  N   N17       1.0  0.97311  0.36881  0.34065  1.0000
  N   N18       1.0  0.53396  0.13875  0.33924  1.0000
  C   C61       1.0  0.50083  0.20817  0.33873  1.0000
  C   C62       1.0  0.46352  0.23333  0.33609  1.0000
  C   C63       1.0  0.46676  0.27811  0.33727  1.0000
  H   H31       1.0  0.43926  0.29525  0.33514  1.0000
  N   N19       1.0  0.42318  0.21365  0.33186  1.0000
  O   O17       1.0  0.40361  0.22349  0.26138  1.0000
  O   O18       1.0  0.40065  0.22292  0.39861  1.0000
  C   C64       1.0  0.49886  0.16330  0.33799  1.0000
  H   H32       1.0  0.47009  0.14852  0.33618  1.0000
  C   C65       1.0  0.79915  0.00649  0.33947  1.0000
  C   C66       1.0  0.77398  0.04380  0.33663  1.0000
  C   C67       1.0  0.72921  0.04055  0.33783  1.0000
  H   H33       1.0  0.71207  0.06805  0.33552  1.0000
  N   N20       1.0  0.79366  0.08413  0.33212  1.0000
  O   O19       1.0  0.78382  0.10359  0.26151  1.0000
  O   O20       1.0  0.78440  0.10676  0.39871  1.0000
  C   C68       1.0  0.84402  0.00846  0.33866  1.0000
  H   H34       1.0  0.85880  0.03722  0.33668  1.0000
  C   C69       1.0  0.51976  0.02001  0.34019  1.0000
  C   C70       1.0  0.58432  0.08456  0.34012  1.0000
  C   C71       1.0  0.59621  0.04175  0.34079  1.0000
  C   C72       1.0  0.56411  0.01046  0.34098  1.0000
  H   H35       1.0  0.57444  0.48007  0.34155  1.0000
  H   H36       1.0  0.60731  0.10755  0.34010  1.0000
  C   C73       1.0  0.98731  0.48755  0.34020  1.0000
  C   C74       1.0  0.94297  0.49710  0.33977  1.0000
  C   C75       1.0  0.91087  0.46581  0.33991  1.0000
  C   C76       1.0  0.92275  0.42299  0.34027  1.0000
  H   H37       1.0  0.93263  0.02749  0.33969  1.0000
  H   H38       1.0  0.89977  0.40001  0.34029  1.0000
  N   N21       1.0  0.86857  0.47335  0.33983  1.0000
  N   N22       1.0  0.63851  0.03421  0.34108  1.0000
  C   C77       1.0  0.50625  0.29939  0.34089  1.0000
  C   C78       1.0  0.54356  0.27422  0.34349  1.0000
  C   C79       1.0  0.54031  0.22945  0.34233  1.0000
  H   H39       1.0  0.56781  0.21231  0.34446  1.0000
  N   N23       1.0  0.58390  0.29391  0.34771  1.0000
  O   O21       1.0  0.60642  0.28464  0.28095  1.0000
  O   O22       1.0  0.60348  0.28407  0.41818  1.0000
  C   C80       1.0  0.50822  0.34426  0.34169  1.0000
  H   H40       1.0  0.53698  0.35904  0.34351  1.0000
  C   C81       1.0  0.70792  0.00107  0.34170  1.0000
  C   C82       1.0  0.73309  0.96377  0.34457  1.0000
  C   C83       1.0  0.77787  0.96701  0.34335  1.0000
  H   H41       1.0  0.79500  0.93951  0.34568  1.0000
  N   N24       1.0  0.71341  0.92344  0.34910  1.0000
  O   O23       1.0  0.72325  0.90398  0.41973  1.0000
  O   O24       1.0  0.72267  0.90079  0.28252  1.0000
  C   C84       1.0  0.66305  0.99910  0.34245  1.0000
  H   H42       1.0  0.64828  0.97034  0.34442  1.0000
  C   C85       1.0  0.51022  0.56435  0.33939  1.0000
  C   C86       1.0  0.54151  0.59645  0.33951  1.0000
  H   H43       1.0  0.97983  0.57468  0.33885  1.0000
  C   C87       1.0  0.96557  0.91111  0.34058  1.0000
  C   C88       1.0  0.99686  0.94321  0.34064  1.0000
  H   H44       1.0  0.52725  0.93287  0.34069  1.0000
  N   N25       1.0  0.97311  0.86881  0.34065  1.0000
  N   N26       1.0  0.53396  0.63875  0.33924  1.0000
  C   C89       1.0  0.50083  0.70817  0.33873  1.0000
  C   C90       1.0  0.46352  0.73333  0.33609  1.0000
  C   C91       1.0  0.46676  0.77811  0.33727  1.0000
  H   H45       1.0  0.43926  0.79525  0.33514  1.0000
  N   N27       1.0  0.42318  0.71365  0.33186  1.0000
  O   O25       1.0  0.40361  0.72349  0.26138  1.0000
  O   O26       1.0  0.40065  0.72292  0.39861  1.0000
  C   C92       1.0  0.49886  0.66330  0.33799  1.0000
  H   H46       1.0  0.47009  0.64852  0.33618  1.0000
  C   C93       1.0  0.79915  0.50649  0.33947  1.0000
  C   C94       1.0  0.77398  0.54380  0.33663  1.0000
  C   C95       1.0  0.72921  0.54056  0.33783  1.0000
  H   H47       1.0  0.71207  0.56805  0.33552  1.0000
  N   N28       1.0  0.79366  0.58413  0.33212  1.0000
  O   O27       1.0  0.78382  0.60359  0.26151  1.0000
  O   O28       1.0  0.78440  0.60676  0.39871  1.0000
  C   C96       1.0  0.84402  0.50846  0.33866  1.0000
  H   H48       1.0  0.85880  0.53722  0.33668  1.0000
  C   C97       1.0  0.51976  0.52001  0.34019  1.0000
  C   C98       1.0  0.58432  0.58456  0.34012  1.0000
  C   C99       1.0  0.59621  0.54175  0.34079  1.0000
  C   C100      1.0  0.56411  0.51046  0.34098  1.0000
  H   H49       1.0  0.57444  0.98007  0.34155  1.0000
  H   H50       1.0  0.60731  0.60755  0.34010  1.0000
  C   C101      1.0  0.98731  0.98755  0.34020  1.0000
  C   C102      1.0  0.94297  0.99710  0.33977  1.0000
  C   C103      1.0  0.91087  0.96580  0.33991  1.0000
  C   C104      1.0  0.92275  0.92300  0.34027  1.0000
  H   H51       1.0  0.93263  0.52749  0.33969  1.0000
  H   H52       1.0  0.89977  0.90001  0.34029  1.0000
  N   N29       1.0  0.86857  0.97335  0.33983  1.0000
  N   N30       1.0  0.63851  0.53421  0.34108  1.0000
  C   C105      1.0  0.50625  0.79939  0.34089  1.0000
  C   C106      1.0  0.54356  0.77422  0.34349  1.0000
  C   C107      1.0  0.54031  0.72945  0.34233  1.0000
  H   H53       1.0  0.56781  0.71231  0.34446  1.0000
  N   N31       1.0  0.58390  0.79390  0.34771  1.0000
  O   O29       1.0  0.60642  0.78464  0.28095  1.0000
  O   O30       1.0  0.60348  0.78407  0.41818  1.0000
  C   C108      1.0  0.50822  0.84426  0.34169  1.0000
  H   H54       1.0  0.53698  0.85904  0.34351  1.0000
  C   C109      1.0  0.70792  0.50107  0.34170  1.0000
  C   C110      1.0  0.73309  0.46377  0.34457  1.0000
  C   C111      1.0  0.77787  0.46701  0.34335  1.0000
  H   H55       1.0  0.79500  0.43951  0.34568  1.0000
  N   N32       1.0  0.71341  0.42344  0.34910  1.0000
  O   O31       1.0  0.72325  0.40398  0.41973  1.0000
  O   O32       1.0  0.72267  0.40079  0.28252  1.0000
  C   C112      1.0  0.66305  0.49910  0.34245  1.0000
  H   H56       1.0  0.64828  0.47034  0.34442  1.0000
