data_image0
_chemical_formula_structural       C3HC2H2C2HCHCNC2HC3H3CH2C2NOC4H2C3HC3H3C3HC3H3C2H2C4H4C2H2C4H4C4H4C4H4C3NH2C3NC3NH4C3NC3NH4C4H2OC4HC4H2NO2C4HNO2C4HC4H2NO2C4HC4H2NO2C4HC4H2NO2
_chemical_formula_sum              "C108 H66 N12 O12"
_cell_length_a       31.7627
_cell_length_b       31.7628
_cell_length_c       14.7759
_cell_angle_alpha    90
_cell_angle_beta     90
_cell_angle_gamma    120

_space_group_name_H-M_alt    "P 1"
_space_group_IT_number       1

loop_
  _space_group_symop_operation_xyz
  'x, y, z'

loop_
  _atom_site_type_symbol
  _atom_site_label
  _atom_site_symmetry_multiplicity
  _atom_site_fract_x
  _atom_site_fract_y
  _atom_site_fract_z
  _atom_site_occupancy
  C   C1        1.0  0.03833  0.52088  0.35089  1.0000
  C   C2        1.0  0.11858  0.59897  0.34631  1.0000
  C   C3        1.0  0.06698  0.57259  0.34346  1.0000
  H   H1        1.0  0.05042  0.59262  0.33344  1.0000
  C   C4        1.0  0.06607  0.49688  0.35862  1.0000
  C   C5        1.0  0.11763  0.52140  0.35976  1.0000
  H   H2        1.0  0.04882  0.46008  0.36593  1.0000
  H   H3        1.0  0.12701  0.66612  0.46707  1.0000
  C   C6        1.0  0.15352  0.47741  0.28581  1.0000
  C   C7        1.0  0.19202  0.46738  0.28348  1.0000
  H   H4        1.0  0.13656  0.47665  0.22638  1.0000
  C   C8        1.0  0.17663  0.67304  0.26343  1.0000
  H   H5        1.0  0.17616  0.65215  0.21019  1.0000
  C   C9        1.0  0.14452  0.57324  0.35586  1.0000
  N   N1        1.0  0.19432  0.59795  0.36163  1.0000
  C   C10       1.0  0.14243  0.49411  0.36583  1.0000
  C   C11       1.0  0.16906  0.49723  0.44459  1.0000
  H   H6        1.0  0.16353  0.51204  0.50179  1.0000
  C   C12       1.0  0.14444  0.65103  0.33703  1.0000
  C   C13       1.0  0.14881  0.68088  0.41153  1.0000
  C   C14       1.0  0.18653  0.72991  0.41521  1.0000
  H   H7        1.0  0.18902  0.74948  0.47185  1.0000
  H   H8        1.0  0.21316  0.63286  0.36984  1.0000
  H   H9        1.0  0.19976  0.45746  0.22258  1.0000
  C   C15       1.0  0.21568  0.72118  0.26969  1.0000
  H   H10       1.0  0.24130  0.73299  0.21956  1.0000
  H   H11       1.0  0.21336  0.58186  0.36153  1.0000
  C   C16       1.0  0.22276  0.47569  0.35931  1.0000
  C   C17       1.0  0.20984  0.49012  0.44161  1.0000
  N   N2        1.0  0.24056  0.50299  0.51842  1.0000
  O   O1        1.0  0.21828  0.47798  0.58647  1.0000
  C   C18       1.0  0.22301  0.75046  0.34735  1.0000
  C   C19       1.0  0.98449  0.49435  0.35088  1.0000
  C   C20       1.0  0.95584  0.44265  0.34341  1.0000
  C   C21       1.0  0.90425  0.41626  0.34629  1.0000
  H   H12       1.0  0.97241  0.42262  0.33341  1.0000
  H   H13       1.0  0.80967  0.38237  0.36994  1.0000
  C   C22       1.0  0.52463  0.49387  0.35087  1.0000
  C   C23       1.0  0.57635  0.51695  0.34350  1.0000
  C   C24       1.0  0.60275  0.49176  0.34641  1.0000
  H   H14       1.0  0.59637  0.55355  0.33357  1.0000
  C   C25       1.0  0.49809  0.52118  0.35083  1.0000
  C   C26       1.0  0.41997  0.52329  0.34620  1.0000
  C   C27       1.0  0.44637  0.49810  0.34342  1.0000
  H   H15       1.0  0.42635  0.46149  0.33353  1.0000
  H   H16       1.0  0.38605  0.58398  0.36937  1.0000
  H   H17       1.0  0.63666  0.43110  0.37014  1.0000
  C   C28       1.0  0.52500  0.03452  0.35086  1.0000
  C   C29       1.0  0.50192  0.06315  0.34351  1.0000
  C   C30       1.0  0.52712  0.11475  0.34626  1.0000
  H   H18       1.0  0.46532  0.04658  0.33360  1.0000
  C   C31       1.0  0.49769  0.98067  0.35087  1.0000
  C   C32       1.0  0.49556  0.90043  0.34635  1.0000
  C   C33       1.0  0.52077  0.95203  0.34353  1.0000
  H   H19       1.0  0.55737  0.96860  0.33368  1.0000
  H   H20       1.0  0.43486  0.80583  0.36970  1.0000
  H   H21       1.0  0.58782  0.20936  0.36937  1.0000
  C   C34       1.0  0.29769  0.49810  0.26965  1.0000
  C   C35       1.0  0.34582  0.50717  0.26333  1.0000
  H   H22       1.0  0.28595  0.51202  0.21961  1.0000
  H   H23       1.0  0.36676  0.52763  0.21019  1.0000
  C   C36       1.0  0.54148  0.67991  0.28555  1.0000
  C   C37       1.0  0.55161  0.72848  0.28337  1.0000
  C   C38       1.0  0.52077  0.80335  0.26975  1.0000
  C   C39       1.0  0.51161  0.84235  0.26359  1.0000
  H   H24       1.0  0.50706  0.77782  0.21944  1.0000
  H   H25       1.0  0.49140  0.84301  0.21016  1.0000
  H   H26       1.0  0.54248  0.66383  0.22614  1.0000
  H   H27       1.0  0.56162  0.74622  0.22254  1.0000
  C   C40       1.0  0.33902  0.86540  0.28544  1.0000
  C   C41       1.0  0.29048  0.82693  0.28322  1.0000
  H   H28       1.0  0.35519  0.88246  0.22607  1.0000
  H   H29       1.0  0.27276  0.81917  0.22236  1.0000
  C   C42       1.0  0.86919  0.53768  0.28572  1.0000
  C   C43       1.0  0.83065  0.54766  0.28340  1.0000
  C   C44       1.0  0.72497  0.51687  0.26990  1.0000
  C   C45       1.0  0.67682  0.50775  0.26367  1.0000
  H   H30       1.0  0.73667  0.50288  0.21992  1.0000
  H   H31       1.0  0.65584  0.48722  0.21063  1.0000
  H   H32       1.0  0.88610  0.53839  0.22627  1.0000
  H   H33       1.0  0.82287  0.55752  0.22248  1.0000
  C   C46       1.0  0.48121  0.33525  0.28581  1.0000
  C   C47       1.0  0.47117  0.28671  0.28347  1.0000
  C   C48       1.0  0.50190  0.21178  0.26965  1.0000
  C   C49       1.0  0.51100  0.17273  0.26333  1.0000
  H   H34       1.0  0.51583  0.23745  0.21963  1.0000
  H   H35       1.0  0.53148  0.17227  0.21022  1.0000
  H   H36       1.0  0.48046  0.35145  0.22637  1.0000
  H   H37       1.0  0.46124  0.26904  0.22258  1.0000
  C   C50       1.0  0.68372  0.14985  0.28547  1.0000
  C   C51       1.0  0.73228  0.18828  0.28324  1.0000
  C   C52       1.0  0.80713  0.29401  0.26962  1.0000
  C   C53       1.0  0.84612  0.34217  0.26345  1.0000
  H   H38       1.0  0.78157  0.28219  0.21936  1.0000
  H   H39       1.0  0.84677  0.36306  0.21007  1.0000
  H   H40       1.0  0.66762  0.13276  0.22608  1.0000
  H   H41       1.0  0.75001  0.19602  0.22240  1.0000
  C   C54       1.0  0.87831  0.44198  0.35586  1.0000
  C   C55       1.0  0.90519  0.49383  0.35975  1.0000
  C   C56       1.0  0.95675  0.51835  0.35862  1.0000
  N   N3        1.0  0.82850  0.41727  0.36170  1.0000
  H   H42       1.0  0.80946  0.43335  0.36163  1.0000
  H   H43       1.0  0.97399  0.55515  0.36592  1.0000
  C   C57       1.0  0.57703  0.44009  0.35598  1.0000
  C   C58       1.0  0.52518  0.41512  0.35978  1.0000
  C   C59       1.0  0.50065  0.44214  0.35856  1.0000
  N   N4        1.0  0.60175  0.41500  0.36189  1.0000
  C   C60       1.0  0.52207  0.57292  0.35846  1.0000
  C   C61       1.0  0.49753  0.59994  0.35954  1.0000
  C   C62       1.0  0.44568  0.57496  0.35560  1.0000
  N   N5        1.0  0.42096  0.60006  0.36123  1.0000
  H   H44       1.0  0.43703  0.63518  0.36088  1.0000
  H   H45       1.0  0.58568  0.37988  0.36175  1.0000
  H   H46       1.0  0.46384  0.42257  0.36581  1.0000
  H   H47       1.0  0.55887  0.59249  0.36572  1.0000
  C   C63       1.0  0.57879  0.14070  0.35563  1.0000
  C   C64       1.0  0.60377  0.11383  0.35954  1.0000
  C   C65       1.0  0.57674  0.06227  0.35847  1.0000
  N   N6        1.0  0.60389  0.19052  0.36126  1.0000
  C   C66       1.0  0.44595  0.95291  0.35843  1.0000
  C   C67       1.0  0.41892  0.90135  0.35960  1.0000
  C   C68       1.0  0.44389  0.87448  0.35577  1.0000
  N   N7        1.0  0.41879  0.82467  0.36151  1.0000
  H   H48       1.0  0.38367  0.80562  0.36116  1.0000
  H   H49       1.0  0.63901  0.20957  0.36085  1.0000
  H   H50       1.0  0.59632  0.04504  0.36565  1.0000
  H   H51       1.0  0.42637  0.97014  0.36567  1.0000
  C   C69       1.0  0.26850  0.47634  0.34747  1.0000
  C   C70       1.0  0.36791  0.49706  0.33694  1.0000
  C   C71       1.0  0.33805  0.47156  0.41141  1.0000
  C   C72       1.0  0.28907  0.46041  0.41529  1.0000
  H   H52       1.0  0.35286  0.46470  0.46710  1.0000
  H   H53       1.0  0.26955  0.44338  0.47202  1.0000
  O   O2        1.0  0.25920  0.54729  0.53804  1.0000
  C   C73       1.0  0.52480  0.65203  0.36543  1.0000
  C   C74       1.0  0.54325  0.75084  0.35924  1.0000
  C   C75       1.0  0.52878  0.72344  0.44147  1.0000
  C   C76       1.0  0.52153  0.67549  0.44415  1.0000
  H   H54       1.0  0.50692  0.65516  0.50148  1.0000
  C   C77       1.0  0.54257  0.79593  0.34751  1.0000
  C   C78       1.0  0.52178  0.87459  0.33711  1.0000
  C   C79       1.0  0.54724  0.87018  0.41161  1.0000
  C   C80       1.0  0.55841  0.83236  0.41544  1.0000
  H   H55       1.0  0.55409  0.89184  0.46731  1.0000
  H   H56       1.0  0.57544  0.82986  0.47215  1.0000
  N   N8        1.0  0.51594  0.74122  0.51842  1.0000
  O   O3        1.0  0.54094  0.74382  0.58641  1.0000
  O   O4        1.0  0.47163  0.71559  0.53801  1.0000
  C   C81       1.0  0.36681  0.87653  0.36542  1.0000
  C   C82       1.0  0.26812  0.79621  0.35909  1.0000
  C   C83       1.0  0.29546  0.80918  0.44140  1.0000
  C   C84       1.0  0.34337  0.84991  0.44425  1.0000
  H   H57       1.0  0.36376  0.85563  0.50148  1.0000
  N   N9        1.0  0.27765  0.77852  0.51831  1.0000
  O   O5        1.0  0.27496  0.80087  0.58630  1.0000
  O   O6        1.0  0.30330  0.75988  0.53797  1.0000
  C   C85       1.0  0.88038  0.52111  0.36578  1.0000
  C   C86       1.0  0.80001  0.53948  0.35933  1.0000
  C   C87       1.0  0.81303  0.52521  0.44169  1.0000
  C   C88       1.0  0.85376  0.51802  0.44455  1.0000
  H   H58       1.0  0.85950  0.50339  0.50182  1.0000
  C   C89       1.0  0.75426  0.53883  0.34754  1.0000
  C   C90       1.0  0.65482  0.51799  0.33726  1.0000
  C   C91       1.0  0.68472  0.54357  0.41161  1.0000
  C   C92       1.0  0.73371  0.55476  0.41536  1.0000
  H   H59       1.0  0.66995  0.55061  0.46714  1.0000
  H   H60       1.0  0.75333  0.57198  0.47189  1.0000
  N   N10       1.0  0.78244  0.51247  0.51867  1.0000
  O   O7        1.0  0.80484  0.53759  0.58653  1.0000
  O   O8        1.0  0.76380  0.46819  0.53852  1.0000
  C   C93       1.0  0.49791  0.36303  0.36583  1.0000
  C   C94       1.0  0.47946  0.26427  0.35931  1.0000
  C   C95       1.0  0.49388  0.29162  0.44161  1.0000
  C   C96       1.0  0.50100  0.33951  0.44459  1.0000
  H   H61       1.0  0.51581  0.35985  0.50181  1.0000
  C   C97       1.0  0.48011  0.21918  0.34746  1.0000
  C   C98       1.0  0.50089  0.14059  0.33700  1.0000
  C   C99       1.0  0.47534  0.14487  0.41146  1.0000
  C   C100      1.0  0.46418  0.18268  0.41529  1.0000
  H   H62       1.0  0.46849  0.12320  0.46713  1.0000
  H   H63       1.0  0.44712  0.18517  0.47199  1.0000
  N   N11       1.0  0.50675  0.27376  0.51844  1.0000
  O   O9        1.0  0.48173  0.27103  0.58647  1.0000
  O   O10       1.0  0.55105  0.29942  0.53806  1.0000
  C   C101      1.0  0.65585  0.13864  0.36538  1.0000
  C   C102      1.0  0.75467  0.21901  0.35911  1.0000
  C   C103      1.0  0.72729  0.20607  0.44137  1.0000
  C   C104      1.0  0.67934  0.16538  0.44409  1.0000
  H   H64       1.0  0.65903  0.15967  0.50144  1.0000
  C   C105      1.0  0.79975  0.26477  0.34735  1.0000
  C   C106      1.0  0.87838  0.36420  0.33695  1.0000
  C   C107      1.0  0.87403  0.33434  0.41141  1.0000
  C   C108      1.0  0.83621  0.28535  0.41523  1.0000
  H   H65       1.0  0.89572  0.34914  0.46708  1.0000
  H   H66       1.0  0.83373  0.26581  0.47192  1.0000
  N   N12       1.0  0.74510  0.23670  0.51831  1.0000
  O   O11       1.0  0.74772  0.21431  0.58629  1.0000
  O   O12       1.0  0.71948  0.25539  0.53793  1.0000
