data_image0
_chemical_formula_structural       C6H6N2C8H5CN2HNC8H5CN2HNC8H5CN2HNC3HCH3CHC3HCH3CHC3HCH3CHC3H2CHC3H2CHC3H2CHC12H5CNC2NHN2C10H6CNCN2C10H6CNCN2C10H6CNCN2C3H2CHC3H2CHC3H2CHC3HCH3CHC3HCH3CHC3HCH3CH
_chemical_formula_sum              "C138 H96 N24"
_cell_length_a       56.9792
_cell_length_b       56.9891
_cell_length_c       14.8485
_cell_angle_alpha    90
_cell_angle_beta     90
_cell_angle_gamma    119.978

_space_group_name_H-M_alt    "P 1"
_space_group_IT_number       1

loop_
  _space_group_symop_operation_xyz
  'x, y, z'

loop_
  _atom_site_type_symbol
  _atom_site_label
  _atom_site_symmetry_multiplicity
  _atom_site_fract_x
  _atom_site_fract_y
  _atom_site_fract_z
  _atom_site_occupancy
  C   C1        1.0  0.97014  0.02798  0.34928  1.0000
  C   C2        1.0  0.93202  0.89994  0.33492  1.0000
  C   C3        1.0  0.94546  0.92846  0.33406  1.0000
  C   C4        1.0  0.94184  0.01381  0.36607  1.0000
  C   C5        1.0  0.92677  0.02730  0.36820  1.0000
  C   C6        1.0  0.93929  0.05536  0.35135  1.0000
  H   H1        1.0  0.91153  0.88929  0.32473  1.0000
  H   H2        1.0  0.93416  0.93754  0.32186  1.0000
  H   H3        1.0  0.93183  0.99343  0.37852  1.0000
  H   H4        1.0  0.90643  0.01640  0.38143  1.0000
  H   H5        1.0  0.11251  0.02442  0.32465  1.0000
  H   H6        1.0  0.06426  0.99878  0.32179  1.0000
  N   N1        1.0  0.97333  0.98686  0.34869  1.0000
  N   N2        1.0  0.92442  0.06747  0.35612  1.0000
  C   C7        1.0  0.46648  0.27729  0.34390  1.0000
  C   C8        1.0  0.36331  0.20745  0.32265  1.0000
  C   C9        1.0  0.33475  0.19378  0.32101  1.0000
  C   C10       1.0  0.50863  0.19612  0.35410  1.0000
  C   C11       1.0  0.49221  0.20797  0.35640  1.0000
  C   C12       1.0  0.49443  0.28875  0.36458  1.0000
  C   C13       1.0  0.51204  0.31684  0.36600  1.0000
  C   C14       1.0  0.50249  0.33472  0.34612  1.0000
  H   H7        1.0  0.32519  0.20470  0.31028  1.0000
  H   H8        1.0  0.50162  0.22829  0.36942  1.0000
  H   H9        1.0  0.52904  0.20819  0.36397  1.0000
  H   H10       1.0  0.50258  0.27679  0.37972  1.0000
  H   H11       1.0  0.53203  0.32411  0.38148  1.0000
  C   C15       1.0  0.44934  0.24851  0.34079  1.0000
  N   N3        1.0  0.46124  0.23310  0.34107  1.0000
  N   N4        1.0  0.42176  0.23489  0.33807  1.0000
  H   H12       1.0  0.37350  0.22797  0.31287  1.0000
  N   N5        1.0  0.52089  0.36079  0.35086  1.0000
  C   C16       1.0  0.72463  0.19160  0.34396  1.0000
  C   C17       1.0  0.79447  0.15827  0.32257  1.0000
  C   C18       1.0  0.80813  0.14337  0.32094  1.0000
  C   C19       1.0  0.80579  0.31488  0.35404  1.0000
  C   C20       1.0  0.79395  0.28663  0.35638  1.0000
  C   C21       1.0  0.71317  0.20810  0.36468  1.0000
  C   C22       1.0  0.68507  0.19762  0.36615  1.0000
  C   C23       1.0  0.66719  0.17020  0.34627  1.0000
  H   H13       1.0  0.79721  0.12289  0.31019  1.0000
  H   H14       1.0  0.77362  0.27572  0.36941  1.0000
  H   H15       1.0  0.79370  0.32321  0.36396  1.0000
  H   H16       1.0  0.72512  0.22819  0.37983  1.0000
  H   H17       1.0  0.67779  0.21034  0.38165  1.0000
  C   C24       1.0  0.75342  0.20325  0.34081  1.0000
  N   N6        1.0  0.76883  0.23054  0.34109  1.0000
  N   N7        1.0  0.76705  0.18929  0.33807  1.0000
  H   H18       1.0  0.77395  0.14796  0.31279  1.0000
  N   N8        1.0  0.64112  0.16254  0.35097  1.0000
  C   C25       1.0  0.81019  0.53530  0.34389  1.0000
  C   C26       1.0  0.84351  0.63844  0.32258  1.0000
  C   C27       1.0  0.85842  0.66700  0.32096  1.0000
  C   C28       1.0  0.68689  0.49325  0.35452  1.0000
  C   C29       1.0  0.71515  0.50965  0.35684  1.0000
  C   C30       1.0  0.79369  0.50735  0.36453  1.0000
  C   C31       1.0  0.80418  0.48974  0.36599  1.0000
  C   C32       1.0  0.83161  0.49928  0.34620  1.0000
  H   H19       1.0  0.87889  0.67653  0.31018  1.0000
  H   H20       1.0  0.72607  0.50025  0.37008  1.0000
  H   H21       1.0  0.67856  0.47284  0.36462  1.0000
  H   H22       1.0  0.77359  0.49921  0.37960  1.0000
  H   H23       1.0  0.79146  0.46975  0.38143  1.0000
  C   C33       1.0  0.79854  0.55244  0.34077  1.0000
  N   N9        1.0  0.77123  0.54057  0.34112  1.0000
  N   N10       1.0  0.81249  0.58002  0.33804  1.0000
  H   H24       1.0  0.85382  0.62823  0.31273  1.0000
  N   N11       1.0  0.83929  0.48087  0.35092  1.0000
  C   C34       1.0  0.18845  0.09330  0.31877  1.0000
  C   C35       1.0  0.20647  0.10176  0.24465  1.0000
  C   C36       1.0  0.23502  0.11566  0.25576  1.0000
  H   H25       1.0  0.19854  0.09699  0.18091  1.0000
  C   C37       1.0  0.25252  0.12272  0.17422  1.0000
  H   H26       1.0  0.24087  0.11583  0.11180  1.0000
  H   H27       1.0  0.26522  0.11343  0.17823  1.0000
  H   H28       1.0  0.26544  0.14466  0.16967  1.0000
  C   C38       1.0  0.16067  0.07701  0.30458  1.0000
  H   H29       1.0  0.15457  0.06459  0.25170  1.0000
  C   C39       1.0  0.90851  0.09737  0.31878  1.0000
  C   C40       1.0  0.90009  0.10697  0.24465  1.0000
  C   C41       1.0  0.88621  0.12164  0.25572  1.0000
  H   H30       1.0  0.90487  0.10381  0.18092  1.0000
  C   C42       1.0  0.87919  0.13211  0.17417  1.0000
  H   H31       1.0  0.88608  0.12735  0.11176  1.0000
  H   H32       1.0  0.88850  0.15409  0.17821  1.0000
  H   H33       1.0  0.85725  0.12313  0.16956  1.0000
  C   C43       1.0  0.92479  0.08586  0.30465  1.0000
  H   H34       1.0  0.93724  0.09218  0.25184  1.0000
  C   C44       1.0  0.90437  0.81332  0.31870  1.0000
  C   C45       1.0  0.89478  0.79531  0.24459  1.0000
  C   C46       1.0  0.88011  0.76676  0.25571  1.0000
  H   H35       1.0  0.89793  0.80323  0.18085  1.0000
  C   C47       1.0  0.86964  0.74926  0.17420  1.0000
  H   H36       1.0  0.87438  0.76091  0.11177  1.0000
  H   H37       1.0  0.84765  0.73659  0.17827  1.0000
  H   H38       1.0  0.87863  0.73631  0.16960  1.0000
  C   C48       1.0  0.91591  0.84110  0.30454  1.0000
  H   H39       1.0  0.90960  0.84723  0.25168  1.0000
  C   C49       1.0  0.59503  0.14276  0.34630  1.0000
  C   C50       1.0  0.58145  0.14606  0.27191  1.0000
  C   C51       1.0  0.55952  0.15053  0.28467  1.0000
  H   H40       1.0  0.58821  0.14654  0.20760  1.0000
  H   H41       1.0  0.55123  0.15435  0.22936  1.0000
  C   C52       1.0  0.61842  0.14168  0.33026  1.0000
  H   H42       1.0  0.61752  0.12573  0.29987  1.0000
  C   C53       1.0  0.85910  0.45458  0.34627  1.0000
  C   C54       1.0  0.85584  0.43772  0.27188  1.0000
  C   C55       1.0  0.85133  0.41132  0.28465  1.0000
  H   H43       1.0  0.85531  0.44399  0.20758  1.0000
  H   H44       1.0  0.84752  0.39921  0.22933  1.0000
  C   C56       1.0  0.86016  0.47904  0.33023  1.0000
  H   H45       1.0  0.87611  0.49409  0.29986  1.0000
  C   C57       1.0  0.54718  0.40688  0.34619  1.0000
  C   C58       1.0  0.56407  0.42045  0.27184  1.0000
  C   C59       1.0  0.59045  0.44238  0.28464  1.0000
  H   H46       1.0  0.55780  0.41368  0.20753  1.0000
  H   H47       1.0  0.60257  0.45067  0.22936  1.0000
  C   C60       1.0  0.52273  0.38348  0.33011  1.0000
  H   H48       1.0  0.50768  0.38438  0.29963  1.0000
  C   C61       1.0  0.97376  0.94428  0.34923  1.0000
  C   C62       1.0  0.05746  0.03159  0.34929  1.0000
  C   C63       1.0  0.98794  0.93015  0.36604  1.0000
  C   C64       1.0  0.97446  0.90161  0.36816  1.0000
  C   C65       1.0  0.94640  0.88609  0.35122  1.0000
  C   C66       1.0  0.96751  0.06973  0.33504  1.0000
  C   C67       1.0  0.98261  0.05629  0.33416  1.0000
  C   C68       1.0  0.07156  0.05988  0.36617  1.0000
  C   C69       1.0  0.10010  0.07495  0.36830  1.0000
  C   C70       1.0  0.11565  0.06245  0.35127  1.0000
  C   C71       1.0  0.10184  0.03424  0.33492  1.0000
  C   C72       1.0  0.07331  0.01913  0.33405  1.0000
  H   H49       1.0  0.98536  0.89218  0.38146  1.0000
  H   H50       1.0  0.00297  0.06758  0.32199  1.0000
  H   H51       1.0  0.97735  0.09022  0.32490  1.0000
  H   H52       1.0  0.06117  0.06987  0.37879  1.0000
  H   H53       1.0  0.10951  0.09528  0.38166  1.0000
  C   C73       1.0  0.02846  0.01617  0.34867  1.0000
  N   N12       1.0  0.01315  0.02840  0.34872  1.0000
  C   C74       1.0  0.98555  0.01439  0.34866  1.0000
  C   C75       1.0  0.98735  0.97327  0.34864  1.0000
  N   N13       1.0  0.01489  0.98858  0.34870  1.0000
  H   H54       1.0  0.00832  0.94052  0.37859  1.0000
  N   N14       1.0  0.14264  0.07734  0.35610  1.0000
  N   N15       1.0  0.93428  0.85911  0.35604  1.0000
  C   C76       1.0  0.46388  0.19262  0.34028  1.0000
  C   C77       1.0  0.37770  0.19334  0.33540  1.0000
  C   C78       1.0  0.31938  0.16552  0.33403  1.0000
  C   C79       1.0  0.33350  0.15121  0.34635  1.0000
  C   C80       1.0  0.36205  0.16486  0.34705  1.0000
  C   C81       1.0  0.45272  0.16461  0.32254  1.0000
  C   C82       1.0  0.46928  0.15263  0.31981  1.0000
  C   C83       1.0  0.49737  0.16819  0.33694  1.0000
  C   C84       1.0  0.47467  0.32382  0.32642  1.0000
  C   C85       1.0  0.45691  0.29548  0.32567  1.0000
  H   H55       1.0  0.32310  0.13060  0.35309  1.0000
  H   H56       1.0  0.37126  0.15356  0.35614  1.0000
  H   H57       1.0  0.43248  0.15274  0.30931  1.0000
  H   H58       1.0  0.46071  0.13245  0.30530  1.0000
  H   H59       1.0  0.46716  0.33641  0.31293  1.0000
  H   H60       1.0  0.43694  0.28823  0.31042  1.0000
  C   C86       1.0  0.44804  0.20573  0.33946  1.0000
  N   N16       1.0  0.42048  0.19314  0.33706  1.0000
  C   C87       1.0  0.40674  0.20717  0.33637  1.0000
  N   N17       1.0  0.51353  0.15754  0.33057  1.0000
  N   N18       1.0  0.29241  0.15348  0.32756  1.0000
  C   C88       1.0  0.80930  0.27364  0.34026  1.0000
  C   C89       1.0  0.80860  0.18676  0.33535  1.0000
  C   C90       1.0  0.83640  0.15623  0.33397  1.0000
  C   C91       1.0  0.85072  0.18464  0.34633  1.0000
  C   C92       1.0  0.83707  0.19955  0.34703  1.0000
  C   C93       1.0  0.83733  0.29049  0.32253  1.0000
  C   C94       1.0  0.84929  0.31901  0.31978  1.0000
  C   C95       1.0  0.83372  0.33154  0.33692  1.0000
  C   C96       1.0  0.67811  0.15329  0.32647  1.0000
  C   C97       1.0  0.70646  0.16387  0.32570  1.0000
  H   H61       1.0  0.87133  0.19484  0.35309  1.0000
  H   H62       1.0  0.84838  0.22005  0.35614  1.0000
  H   H63       1.0  0.84920  0.28212  0.30928  1.0000
  H   H64       1.0  0.86947  0.33062  0.30528  1.0000
  H   H65       1.0  0.66552  0.13320  0.31293  1.0000
  H   H66       1.0  0.71371  0.15116  0.31036  1.0000
  C   C98       1.0  0.79620  0.24470  0.33945  1.0000
  N   N19       1.0  0.80880  0.22973  0.33703  1.0000
  C   C99       1.0  0.79477  0.20197  0.33634  1.0000
  N   N20       1.0  0.84436  0.35833  0.33055  1.0000
  N   N21       1.0  0.84842  0.14127  0.32753  1.0000
  C   C100      1.0  0.72813  0.53796  0.34043  1.0000
  C   C101      1.0  0.81502  0.62409  0.33539  1.0000
  C   C102      1.0  0.84556  0.68240  0.33411  1.0000
  C   C103      1.0  0.81714  0.66832  0.34642  1.0000
  C   C104      1.0  0.80223  0.63978  0.34710  1.0000
  C   C105      1.0  0.71127  0.54912  0.32245  1.0000
  C   C106      1.0  0.68275  0.53256  0.31966  1.0000
  C   C107      1.0  0.67022  0.50449  0.33708  1.0000
  C   C108      1.0  0.84852  0.52709  0.32649  1.0000
  C   C109      1.0  0.83793  0.54485  0.32572  1.0000
  H   H67       1.0  0.80694  0.67874  0.35321  1.0000
  H   H68       1.0  0.78172  0.63060  0.35622  1.0000
  H   H69       1.0  0.71964  0.56934  0.30891  1.0000
  H   H70       1.0  0.67113  0.54112  0.30491  1.0000
  H   H71       1.0  0.86862  0.53459  0.31302  1.0000
  H   H72       1.0  0.85064  0.56482  0.31045  1.0000
  C   C110      1.0  0.75708  0.55379  0.33954  1.0000
  N   N22       1.0  0.77204  0.58134  0.33711  1.0000
  C   C111      1.0  0.79980  0.59506  0.33637  1.0000
  N   N23       1.0  0.64342  0.48834  0.33065  1.0000
  N   N24       1.0  0.86051  0.70936  0.32758  1.0000
  C   C112      1.0  0.24606  0.12139  0.34458  1.0000
  C   C113      1.0  0.22802  0.11332  0.41867  1.0000
  C   C114      1.0  0.19976  0.09964  0.40611  1.0000
  H   H73       1.0  0.23529  0.11656  0.48331  1.0000
  H   H74       1.0  0.18750  0.09328  0.46172  1.0000
  C   C115      1.0  0.27346  0.13145  0.36266  1.0000
  H   H75       1.0  0.27833  0.12087  0.40424  1.0000
  C   C116      1.0  0.88046  0.12694  0.34451  1.0000
  C   C117      1.0  0.88851  0.11696  0.41864  1.0000
  C   C118      1.0  0.90215  0.10233  0.40611  1.0000
  H   H76       1.0  0.88527  0.12100  0.48327  1.0000
  H   H77       1.0  0.90851  0.09644  0.46173  1.0000
  C   C119      1.0  0.87044  0.14432  0.36260  1.0000
  H   H78       1.0  0.88106  0.15978  0.40414  1.0000
  C   C120      1.0  0.87483  0.75572  0.34453  1.0000
  C   C121      1.0  0.88483  0.77376  0.41862  1.0000
  C   C122      1.0  0.89945  0.80202  0.40604  1.0000
  H   H79       1.0  0.88081  0.76649  0.48326  1.0000
  H   H80       1.0  0.90536  0.81428  0.46165  1.0000
  C   C123      1.0  0.85747  0.72835  0.36266  1.0000
  H   H81       1.0  0.84202  0.72351  0.40429  1.0000
  C   C124      1.0  0.55038  0.15164  0.37221  1.0000
  C   C125      1.0  0.56353  0.14752  0.44631  1.0000
  C   C126      1.0  0.58572  0.14312  0.43508  1.0000
  H   H82       1.0  0.55744  0.14875  0.51024  1.0000
  C   C127      1.0  0.59910  0.13971  0.51626  1.0000
  H   H83       1.0  0.58875  0.13920  0.57876  1.0000
  H   H84       1.0  0.61990  0.15646  0.52110  1.0000
  H   H85       1.0  0.59935  0.12073  0.51143  1.0000
  C   C128      1.0  0.53185  0.16035  0.38754  1.0000
  H   H86       1.0  0.53418  0.17097  0.44355  1.0000
  C   C129      1.0  0.85023  0.40106  0.37219  1.0000
  C   C130      1.0  0.85435  0.41833  0.44628  1.0000
  C   C131      1.0  0.85873  0.44490  0.43505  1.0000
  H   H87       1.0  0.85312  0.41101  0.51021  1.0000
  C   C132      1.0  0.86211  0.46169  0.51624  1.0000
  H   H88       1.0  0.86262  0.45184  0.57874  1.0000
  H   H89       1.0  0.84535  0.46572  0.52104  1.0000
  H   H90       1.0  0.88109  0.48091  0.51144  1.0000
  C   C133      1.0  0.84154  0.37384  0.38751  1.0000
  H   H91       1.0  0.83091  0.36556  0.44351  1.0000
  C   C134      1.0  0.60069  0.45152  0.37220  1.0000
  C   C135      1.0  0.58341  0.43837  0.44627  1.0000
  C   C136      1.0  0.55684  0.41618  0.43498  1.0000
  H   H92       1.0  0.59071  0.44445  0.51022  1.0000
  C   C137      1.0  0.54003  0.40279  0.51613  1.0000
  H   H93       1.0  0.54986  0.41314  0.57866  1.0000
  H   H94       1.0  0.53601  0.38200  0.52098  1.0000
  H   H95       1.0  0.52080  0.40254  0.51128  1.0000
  C   C138      1.0  0.62790  0.47006  0.38767  1.0000
  H   H96       1.0  0.63617  0.46771  0.44370  1.0000
