data_image0
_chemical_formula_structural       CHC3H3C3H2CH2C3H2CH2C2HCH2NC18H12NHNHNHNC18H12NHNHNHC3HCH3CH2C3HCH3CH2CHCH2
_chemical_formula_sum              "C63 H60 N8"
_cell_length_a       32.5135
_cell_length_b       32.5148
_cell_length_c       14.9421
_cell_angle_alpha    90
_cell_angle_beta     90
_cell_angle_gamma    119.999

_space_group_name_H-M_alt    "P 1"
_space_group_IT_number       1

loop_
  _space_group_symop_operation_xyz
  'x, y, z'

loop_
  _atom_site_type_symbol
  _atom_site_label
  _atom_site_symmetry_multiplicity
  _atom_site_fract_x
  _atom_site_fract_y
  _atom_site_fract_z
  _atom_site_occupancy
  C   C1        1.0  0.01854  0.53219  0.42622  1.0000
  H   H1        1.0  0.00627  0.56019  0.54827  1.0000
  C   C2        1.0  0.03137  0.49801  0.29108  1.0000
  C   C3        1.0  0.05079  0.52916  0.36518  1.0000
  C   C4        1.0  0.03534  0.56229  0.50819  1.0000
  H   H2        1.0  0.05265  0.49344  0.24679  1.0000
  H   H3        1.0  0.05836  0.59942  0.48978  1.0000
  H   H4        1.0  0.05514  0.55091  0.55060  1.0000
  C   C5        1.0  0.52897  0.47514  0.31590  1.0000
  C   C6        1.0  0.50763  0.53526  0.27762  1.0000
  C   C7        1.0  0.53310  0.51178  0.25957  1.0000
  H   H5        1.0  0.51201  0.56145  0.23436  1.0000
  H   H6        1.0  0.55429  0.52130  0.20399  1.0000
  C   C8        1.0  0.55326  0.44778  0.29442  1.0000
  H   H7        1.0  0.56952  0.45720  0.22793  1.0000
  H   H8        1.0  0.52631  0.41008  0.29253  1.0000
  C   C9        1.0  0.53011  0.05425  0.32129  1.0000
  C   C10       1.0  0.47032  0.97299  0.28101  1.0000
  C   C11       1.0  0.49437  0.02196  0.26320  1.0000
  H   H9        1.0  0.44484  0.95139  0.23644  1.0000
  H   H10       1.0  0.48594  0.03383  0.20653  1.0000
  C   C12       1.0  0.55816  0.10589  0.30003  1.0000
  H   H11       1.0  0.55030  0.11274  0.23222  1.0000
  H   H12       1.0  0.59584  0.11650  0.30158  1.0000
  C   C13       1.0  0.95043  0.47755  0.33172  1.0000
  C   C14       1.0  0.98232  0.47315  0.27406  1.0000
  H   H13       1.0  0.97011  0.45221  0.21823  1.0000
  C   C15       1.0  0.89876  0.45411  0.31078  1.0000
  H   H14       1.0  0.89181  0.43912  0.24320  1.0000
  H   H15       1.0  0.88834  0.48133  0.31166  1.0000
  N   N1        1.0  0.33641  0.66831  0.34617  1.0000
  C   C16       1.0  0.36257  0.64417  0.33699  1.0000
  C   C17       1.0  0.28602  0.64209  0.33934  1.0000
  C   C18       1.0  0.36047  0.71864  0.33772  1.0000
  C   C19       1.0  0.38852  0.74134  0.26172  1.0000
  C   C20       1.0  0.41055  0.79089  0.25172  1.0000
  C   C21       1.0  0.40445  0.81930  0.31633  1.0000
  C   C22       1.0  0.37566  0.79621  0.39158  1.0000
  C   C23       1.0  0.35464  0.74671  0.40299  1.0000
  C   C24       1.0  0.35667  0.61592  0.26099  1.0000
  C   C25       1.0  0.38415  0.59391  0.25006  1.0000
  C   C26       1.0  0.41905  0.60012  0.31384  1.0000
  C   C27       1.0  0.42523  0.62902  0.38916  1.0000
  C   C28       1.0  0.39688  0.65012  0.40138  1.0000
  C   C29       1.0  0.25848  0.60845  0.40537  1.0000
  C   C30       1.0  0.20884  0.58023  0.39574  1.0000
  C   C31       1.0  0.18514  0.58592  0.32149  1.0000
  C   C32       1.0  0.21304  0.62017  0.25608  1.0000
  C   C33       1.0  0.26269  0.64748  0.26439  1.0000
  H   H16       1.0  0.37935  0.57420  0.19365  1.0000
  H   H17       1.0  0.33269  0.61175  0.21250  1.0000
  H   H18       1.0  0.40247  0.67124  0.45600  1.0000
  H   H19       1.0  0.45105  0.63549  0.43517  1.0000
  H   H20       1.0  0.39259  0.72177  0.21259  1.0000
  H   H21       1.0  0.43013  0.80604  0.19527  1.0000
  H   H22       1.0  0.27472  0.60326  0.45929  1.0000
  H   H23       1.0  0.19007  0.55487  0.44285  1.0000
  H   H24       1.0  0.19740  0.62462  0.20039  1.0000
  H   H25       1.0  0.28187  0.67101  0.21483  1.0000
  H   H26       1.0  0.33365  0.73092  0.45763  1.0000
  H   H27       1.0  0.36921  0.81529  0.43820  1.0000
  N   N2        1.0  0.44992  0.58123  0.29965  1.0000
  H   H28       1.0  0.44370  0.56599  0.23727  1.0000
  N   N3        1.0  0.42338  0.86914  0.30293  1.0000
  H   H29       1.0  0.43929  0.87849  0.24117  1.0000
  N   N4        1.0  0.13517  0.55515  0.30971  1.0000
  H   H30       1.0  0.12536  0.56132  0.24805  1.0000
  N   N5        1.0  0.66939  0.33502  0.35453  1.0000
  C   C34       1.0  0.64882  0.36456  0.35467  1.0000
  C   C35       1.0  0.71946  0.35565  0.35879  1.0000
  C   C36       1.0  0.63985  0.28492  0.35566  1.0000
  C   C37       1.0  0.63820  0.25832  0.43163  1.0000
  C   C38       1.0  0.60833  0.20866  0.43312  1.0000
  C   C39       1.0  0.57937  0.18463  0.35896  1.0000
  C   C40       1.0  0.58082  0.21133  0.28307  1.0000
  C   C41       1.0  0.61103  0.26094  0.28122  1.0000
  C   C42       1.0  0.65541  0.39457  0.28124  1.0000
  C   C43       1.0  0.63610  0.42486  0.28238  1.0000
  C   C44       1.0  0.60921  0.42521  0.35649  1.0000
  C   C45       1.0  0.60248  0.39502  0.42958  1.0000
  C   C46       1.0  0.62215  0.36505  0.42882  1.0000
  C   C47       1.0  0.74492  0.38146  0.43507  1.0000
  C   C48       1.0  0.79459  0.40166  0.43934  1.0000
  C   C49       1.0  0.81977  0.39627  0.36774  1.0000
  C   C50       1.0  0.79418  0.37002  0.29170  1.0000
  C   C51       1.0  0.74458  0.35025  0.28700  1.0000
  H   H31       1.0  0.64204  0.44696  0.22926  1.0000
  H   H32       1.0  0.67486  0.39492  0.22717  1.0000
  H   H33       1.0  0.61730  0.34384  0.48293  1.0000
  H   H34       1.0  0.58358  0.39510  0.48423  1.0000
  H   H35       1.0  0.65856  0.27509  0.48646  1.0000
  H   H36       1.0  0.60745  0.19009  0.48904  1.0000
  H   H37       1.0  0.72730  0.38550  0.48800  1.0000
  H   H38       1.0  0.81233  0.42007  0.49535  1.0000
  H   H39       1.0  0.81158  0.36504  0.23956  1.0000
  H   H40       1.0  0.72675  0.33148  0.23139  1.0000
  H   H41       1.0  0.61153  0.27962  0.22578  1.0000
  H   H42       1.0  0.55962  0.19477  0.22908  1.0000
  N   N6        1.0  0.59011  0.45592  0.36199  1.0000
  H   H43       1.0  0.61747  0.49045  0.35835  1.0000
  N   N7        1.0  0.54875  0.13482  0.36501  1.0000
  H   H44       1.0  0.51426  0.12749  0.35862  1.0000
  N   N8        1.0  0.86960  0.41615  0.37625  1.0000
  H   H45       1.0  0.87744  0.38927  0.37196  1.0000
  C   C52       1.0  0.49976  0.46381  0.39233  1.0000
  C   C53       1.0  0.47336  0.48674  0.41115  1.0000
  C   C54       1.0  0.47626  0.52254  0.35160  1.0000
  H   H46       1.0  0.49685  0.43738  0.43371  1.0000
  C   C55       1.0  0.44294  0.47229  0.49277  1.0000
  H   H47       1.0  0.44516  0.44500  0.53159  1.0000
  H   H48       1.0  0.40584  0.45810  0.47406  1.0000
  H   H49       1.0  0.45392  0.50292  0.53650  1.0000
  C   C56       1.0  0.44616  0.54515  0.36594  1.0000
  H   H50       1.0  0.40901  0.51674  0.36794  1.0000
  H   H51       1.0  0.45540  0.56214  0.43162  1.0000
  C   C57       1.0  0.53990  0.03611  0.39919  1.0000
  C   C58       1.0  0.51643  0.98672  0.41776  1.0000
  C   C59       1.0  0.48163  0.95406  0.35647  1.0000
  H   H52       1.0  0.56565  0.05948  0.44187  1.0000
  C   C60       1.0  0.52929  0.97048  0.50099  1.0000
  H   H53       1.0  0.55601  0.99982  0.54094  1.0000
  H   H54       1.0  0.54356  0.94739  0.48417  1.0000
  H   H55       1.0  0.49789  0.95091  0.54294  1.0000
  C   C61       1.0  0.45868  0.90129  0.37050  1.0000
  H   H56       1.0  0.48700  0.89245  0.37430  1.0000
  H   H57       1.0  0.44083  0.89342  0.43533  1.0000
  C   C62       1.0  0.96904  0.50631  0.40854  1.0000
  H   H58       1.0  0.94597  0.50935  0.45095  1.0000
  C   C63       1.0  0.10367  0.55896  0.37791  1.0000
  H   H59       1.0  0.11267  0.59618  0.38079  1.0000
  H   H60       1.0  0.11198  0.54945  0.44279  1.0000
