data_image0
_chemical_formula_structural       C2HC6H3CHC2HC6H3CHC2HC6H3CHC6H3N3C6H3N3C2NC2NHCH3CHC2NC2NHCH3CHC2NC2NHCH3CH
_chemical_formula_sum              "C57 H36 N12"
_cell_length_a       29.1803
_cell_length_b       29.1804
_cell_length_c       14.9939
_cell_angle_alpha    90
_cell_angle_beta     90
_cell_angle_gamma    120

_space_group_name_H-M_alt    "P 1"
_space_group_IT_number       1

loop_
  _space_group_symop_operation_xyz
  'x, y, z'

loop_
  _atom_site_type_symbol
  _atom_site_label
  _atom_site_symmetry_multiplicity
  _atom_site_fract_x
  _atom_site_fract_y
  _atom_site_fract_z
  _atom_site_occupancy
  C   C1        1.0  0.46901  0.53061  0.26136  1.0000
  C   C2        1.0  0.45021  0.56620  0.27486  1.0000
  H   H1        1.0  0.43625  0.57745  0.22132  1.0000
  C   C3        1.0  0.50908  0.48137  0.32482  1.0000
  C   C4        1.0  0.54941  0.41213  0.30542  1.0000
  C   C5        1.0  0.52838  0.42505  0.23084  1.0000
  C   C6        1.0  0.50834  0.46000  0.23934  1.0000
  C   C7        1.0  0.48791  0.47419  0.16570  1.0000
  C   C8        1.0  0.46854  0.50934  0.17657  1.0000
  H   H2        1.0  0.48718  0.45927  0.10360  1.0000
  H   H3        1.0  0.45410  0.51923  0.12216  1.0000
  H   H4        1.0  0.52816  0.40934  0.16957  1.0000
  C   C9        1.0  0.56876  0.37772  0.29649  1.0000
  H   H5        1.0  0.55014  0.34674  0.25594  1.0000
  C   C10       1.0  0.46990  0.93849  0.26139  1.0000
  C   C11       1.0  0.43431  0.88410  0.27489  1.0000
  H   H6        1.0  0.42305  0.85888  0.22136  1.0000
  C   C12       1.0  0.51914  0.02780  0.32484  1.0000
  C   C13       1.0  0.58837  0.13736  0.30543  1.0000
  C   C14       1.0  0.57546  0.10342  0.23085  1.0000
  C   C15       1.0  0.54051  0.04843  0.23935  1.0000
  C   C16       1.0  0.52632  0.01380  0.16572  1.0000
  C   C17       1.0  0.49117  0.95928  0.17660  1.0000
  H   H7        1.0  0.54124  0.02800  0.10362  1.0000
  H   H8        1.0  0.48128  0.93495  0.12220  1.0000
  H   H9        1.0  0.59118  0.11891  0.16958  1.0000
  C   C18       1.0  0.62279  0.19113  0.29650  1.0000
  H   H10       1.0  0.65380  0.20348  0.25600  1.0000
  C   C19       1.0  0.06200  0.53150  0.26135  1.0000
  C   C20       1.0  0.11639  0.55030  0.27483  1.0000
  H   H11       1.0  0.14160  0.56424  0.22128  1.0000
  C   C21       1.0  0.97271  0.49145  0.32485  1.0000
  C   C22       1.0  0.86314  0.45111  0.30549  1.0000
  C   C23       1.0  0.89706  0.47212  0.23090  1.0000
  C   C24       1.0  0.95206  0.49217  0.23937  1.0000
  C   C25       1.0  0.98667  0.51258  0.16571  1.0000
  C   C26       1.0  0.04119  0.53196  0.17657  1.0000
  H   H12       1.0  0.97247  0.51331  0.10362  1.0000
  H   H13       1.0  0.06551  0.54639  0.12215  1.0000
  H   H14       1.0  0.88157  0.47233  0.16962  1.0000
  C   C27       1.0  0.80937  0.43175  0.29658  1.0000
  H   H15       1.0  0.79700  0.45038  0.25605  1.0000
  C   C28       1.0  0.36299  0.64003  0.34834  1.0000
  C   C29       1.0  0.30720  0.61134  0.34762  1.0000
  C   C30       1.0  0.27745  0.63752  0.34838  1.0000
  C   C31       1.0  0.30455  0.69331  0.34766  1.0000
  C   C32       1.0  0.36048  0.72306  0.34844  1.0000
  C   C33       1.0  0.38917  0.69596  0.34771  1.0000
  H   H16       1.0  0.28321  0.71244  0.34574  1.0000
  H   H17       1.0  0.42964  0.71730  0.34579  1.0000
  H   H18       1.0  0.28807  0.57087  0.34568  1.0000
  N   N1        1.0  0.38784  0.61232  0.34598  1.0000
  N   N2        1.0  0.22488  0.61266  0.34592  1.0000
  N   N3        1.0  0.38820  0.77563  0.34605  1.0000
  C   C34       1.0  0.63751  0.36019  0.33336  1.0000
  C   C35       1.0  0.69329  0.38910  0.33436  1.0000
  C   C36       1.0  0.72309  0.36300  0.33346  1.0000
  C   C37       1.0  0.69623  0.30722  0.33434  1.0000
  C   C38       1.0  0.64032  0.27741  0.33335  1.0000
  C   C39       1.0  0.61141  0.30428  0.33430  1.0000
  H   H19       1.0  0.71758  0.28807  0.33574  1.0000
  H   H20       1.0  0.57091  0.28293  0.33566  1.0000
  H   H21       1.0  0.71243  0.42960  0.33577  1.0000
  N   N4        1.0  0.61201  0.38722  0.33499  1.0000
  N   N5        1.0  0.77563  0.38850  0.33506  1.0000
  N   N6        1.0  0.61328  0.22488  0.33496  1.0000
  C   C40       1.0  0.45115  0.58708  0.36051  1.0000
  C   C41       1.0  0.47157  0.57125  0.43293  1.0000
  N   N7        1.0  0.48946  0.53704  0.41688  1.0000
  C   C42       1.0  0.48929  0.51637  0.33571  1.0000
  C   C43       1.0  0.54900  0.43476  0.38857  1.0000
  N   N8        1.0  0.52917  0.46787  0.39530  1.0000
  H   H22       1.0  0.56313  0.42635  0.44493  1.0000
  C   C44       1.0  0.47468  0.58810  0.52702  1.0000
  H   H23       1.0  0.45813  0.61388  0.53760  1.0000
  H   H24       1.0  0.51599  0.60923  0.54828  1.0000
  H   H25       1.0  0.45291  0.55327  0.56925  1.0000
  C   C45       1.0  0.43464  0.62370  0.37002  1.0000
  H   H26       1.0  0.45921  0.65849  0.39761  1.0000
  C   C46       1.0  0.41341  0.86417  0.36055  1.0000
  C   C47       1.0  0.42927  0.90043  0.43297  1.0000
  N   N9        1.0  0.46348  0.95252  0.41691  1.0000
  C   C48       1.0  0.48414  0.97302  0.33574  1.0000
  C   C49       1.0  0.56576  0.11434  0.38858  1.0000
  N   N10       1.0  0.53265  0.06140  0.39532  1.0000
  H   H27       1.0  0.57418  0.13688  0.44494  1.0000
  C   C50       1.0  0.41242  0.88669  0.52706  1.0000
  H   H28       1.0  0.38663  0.84436  0.53765  1.0000
  H   H29       1.0  0.39131  0.90688  0.54833  1.0000
  H   H30       1.0  0.44725  0.89973  0.56928  1.0000
  C   C51       1.0  0.37680  0.81103  0.37008  1.0000
  H   H31       1.0  0.34202  0.80081  0.39769  1.0000
  C   C52       1.0  0.13634  0.54936  0.36047  1.0000
  C   C53       1.0  0.10010  0.52897  0.43292  1.0000
  N   N11       1.0  0.04801  0.51109  0.41689  1.0000
  C   C54       1.0  0.02749  0.51124  0.33572  1.0000
  C   C55       1.0  0.88618  0.45154  0.38863  1.0000
  N   N12       1.0  0.93912  0.47137  0.39534  1.0000
  H   H32       1.0  0.86364  0.43741  0.44500  1.0000
  C   C56       1.0  0.11386  0.52588  0.52700  1.0000
  H   H33       1.0  0.15619  0.54243  0.53757  1.0000
  H   H34       1.0  0.09369  0.48458  0.54827  1.0000
  H   H35       1.0  0.10082  0.54766  0.56924  1.0000
  C   C57       1.0  0.18948  0.56586  0.36994  1.0000
  H   H36       1.0  0.19970  0.54134  0.39771  1.0000
