data_image0
_chemical_formula_structural       NC4HCH4CH4CN2HNHCN2HNHNHNHC29H17C3O3C29H17C3O3C7H3NHC7H3NHC4H2NH
_chemical_formula_sum              "N12 C90 H60 O6"
_cell_length_a       44.9185
_cell_length_b       44.9186
_cell_length_c       14.9652
_cell_angle_alpha    90
_cell_angle_beta     90
_cell_angle_gamma    120

_space_group_name_H-M_alt    "P 1"
_space_group_IT_number       1

loop_
  _space_group_symop_operation_xyz
  'x, y, z'

loop_
  _atom_site_type_symbol
  _atom_site_label
  _atom_site_symmetry_multiplicity
  _atom_site_fract_x
  _atom_site_fract_y
  _atom_site_fract_z
  _atom_site_occupancy
  N   N1        1.0  0.01559  0.50304  0.28188  1.0000
  C   C1        1.0  0.02293  0.51022  0.43948  1.0000
  C   C2        1.0  0.03739  0.51463  0.35263  1.0000
  C   C3        1.0  0.02829  0.51373  0.60298  1.0000
  C   C4        1.0  0.04328  0.51879  0.51792  1.0000
  H   H1        1.0  0.04328  0.51988  0.65896  1.0000
  C   C5        1.0  0.40880  0.85613  0.34422  1.0000
  H   H2        1.0  0.39796  0.87132  0.35056  1.0000
  H   H3        1.0  0.36066  0.81085  0.34337  1.0000
  H   H4        1.0  0.47570  0.60494  0.35052  1.0000
  H   H5        1.0  0.13157  0.52721  0.35045  1.0000
  C   C6        1.0  0.59532  0.14597  0.33875  1.0000
  H   H6        1.0  0.60644  0.13090  0.33896  1.0000
  H   H7        1.0  0.64280  0.19154  0.35255  1.0000
  H   H8        1.0  0.52678  0.39645  0.33896  1.0000
  H   H9        1.0  0.87199  0.47613  0.33902  1.0000
  C   C7        1.0  0.48832  0.52338  0.35259  1.0000
  N   N2        1.0  0.51365  0.49367  0.28959  1.0000
  N   N3        1.0  0.49990  0.51316  0.28183  1.0000
  H   H10       1.0  0.50747  0.48686  0.00650  1.0000
  N   N4        1.0  0.47445  0.54383  0.33518  1.0000
  H   H11       1.0  0.48757  0.56326  0.29548  1.0000
  C   C8        1.0  0.47953  0.96551  0.35268  1.0000
  N   N5        1.0  0.50920  0.02055  0.28967  1.0000
  N   N6        1.0  0.48972  0.98731  0.28192  1.0000
  H   H12       1.0  0.51606  0.02121  0.00656  1.0000
  N   N7        1.0  0.45908  0.93119  0.33528  1.0000
  H   H13       1.0  0.43964  0.92486  0.29562  1.0000
  N   N8        1.0  0.98235  0.48928  0.28963  1.0000
  H   H14       1.0  0.98170  0.49545  0.00653  1.0000
  N   N9        1.0  0.07171  0.52852  0.33522  1.0000
  H   H15       1.0  0.07800  0.51534  0.29568  1.0000
  C   C9        1.0  0.44500  0.87067  0.34420  1.0000
  C   C10       1.0  0.45806  0.84777  0.34036  1.0000
  C   C11       1.0  0.43597  0.81193  0.33691  1.0000
  C   C12       1.0  0.39988  0.79763  0.33721  1.0000
  C   C13       1.0  0.38664  0.82028  0.34103  1.0000
  C   C14       1.0  0.37754  0.76229  0.34032  1.0000
  C   C15       1.0  0.37951  0.73950  0.28579  1.0000
  C   C16       1.0  0.35731  0.70414  0.28987  1.0000
  C   C17       1.0  0.32118  0.68974  0.28921  1.0000
  C   C18       1.0  0.29877  0.65374  0.28976  1.0000
  C   C19       1.0  0.31317  0.63201  0.28915  1.0000
  C   C20       1.0  0.34917  0.64560  0.28977  1.0000
  C   C21       1.0  0.37090  0.68173  0.28923  1.0000
  C   C22       1.0  0.36235  0.62341  0.28569  1.0000
  C   C23       1.0  0.38709  0.62536  0.34024  1.0000
  C   C24       1.0  0.40009  0.60302  0.33710  1.0000
  C   C25       1.0  0.43598  0.61625  0.34101  1.0000
  C   C26       1.0  0.37830  0.56693  0.33680  1.0000
  C   C27       1.0  0.39206  0.54485  0.34020  1.0000
  C   C28       1.0  0.42801  0.55790  0.34407  1.0000
  C   C29       1.0  0.44967  0.59410  0.34405  1.0000
  C   C30       1.0  0.26341  0.64056  0.28568  1.0000
  C   C31       1.0  0.24062  0.61581  0.34019  1.0000
  C   C32       1.0  0.20528  0.60282  0.33708  1.0000
  C   C33       1.0  0.19099  0.62462  0.33692  1.0000
  C   C34       1.0  0.18261  0.56693  0.34095  1.0000
  C   C35       1.0  0.14677  0.55326  0.34411  1.0000
  C   C36       1.0  0.13224  0.57492  0.34413  1.0000
  C   C37       1.0  0.15515  0.61087  0.34037  1.0000
  H   H16       1.0  0.48399  0.85693  0.34122  1.0000
  H   H17       1.0  0.44654  0.79635  0.33670  1.0000
  H   H18       1.0  0.39704  0.69188  0.28728  1.0000
  H   H19       1.0  0.31103  0.70572  0.28726  1.0000
  H   H20       1.0  0.29719  0.60587  0.28716  1.0000
  H   H21       1.0  0.20658  0.65077  0.33670  1.0000
  H   H22       1.0  0.45253  0.64224  0.34332  1.0000
  H   H23       1.0  0.37528  0.51892  0.34108  1.0000
  H   H24       1.0  0.35215  0.55636  0.33654  1.0000
  H   H25       1.0  0.14601  0.62766  0.34131  1.0000
  H   H26       1.0  0.19204  0.55037  0.34318  1.0000
  H   H27       1.0  0.39722  0.64412  0.38544  1.0000
  H   H28       1.0  0.35213  0.60460  0.24065  1.0000
  H   H29       1.0  0.35876  0.75365  0.38546  1.0000
  H   H30       1.0  0.39833  0.74809  0.24080  1.0000
  H   H31       1.0  0.24925  0.60566  0.38533  1.0000
  H   H32       1.0  0.25483  0.65082  0.24071  1.0000
  C   C38       1.0  0.09611  0.56151  0.35517  1.0000
  C   C39       1.0  0.44143  0.53518  0.35498  1.0000
  C   C40       1.0  0.46771  0.90681  0.35517  1.0000
  O   O1        1.0  0.42049  0.50389  0.39166  1.0000
  O   O2        1.0  0.49903  0.91717  0.39166  1.0000
  O   O3        1.0  0.08576  0.58248  0.39165  1.0000
  C   C41       1.0  0.55929  0.13109  0.32913  1.0000
  C   C42       1.0  0.54566  0.15350  0.32628  1.0000
  C   C43       1.0  0.56711  0.18932  0.33430  1.0000
  C   C44       1.0  0.60311  0.20406  0.34355  1.0000
  C   C45       1.0  0.61685  0.18181  0.34606  1.0000
  C   C46       1.0  0.62486  0.23936  0.35265  1.0000
  C   C47       1.0  0.62389  0.26297  0.29928  1.0000
  C   C48       1.0  0.64607  0.29822  0.30682  1.0000
  C   C49       1.0  0.68217  0.31245  0.30621  1.0000
  C   C50       1.0  0.70469  0.34843  0.30681  1.0000
  C   C51       1.0  0.69045  0.37030  0.30625  1.0000
  C   C52       1.0  0.65448  0.35684  0.30683  1.0000
  C   C53       1.0  0.63260  0.32073  0.30625  1.0000
  C   C54       1.0  0.64140  0.37900  0.29930  1.0000
  C   C55       1.0  0.61682  0.37803  0.35272  1.0000
  C   C56       1.0  0.60328  0.39979  0.34364  1.0000
  C   C57       1.0  0.56728  0.38604  0.34613  1.0000
  C   C58       1.0  0.62453  0.43578  0.33441  1.0000
  C   C59       1.0  0.61016  0.45724  0.32637  1.0000
  C   C60       1.0  0.57413  0.44360  0.32917  1.0000
  C   C61       1.0  0.55297  0.40757  0.33879  1.0000
  C   C62       1.0  0.73993  0.36150  0.29928  1.0000
  C   C63       1.0  0.76354  0.38608  0.35269  1.0000
  C   C64       1.0  0.79884  0.39963  0.34361  1.0000
  C   C65       1.0  0.81358  0.37838  0.33436  1.0000
  C   C66       1.0  0.82108  0.43562  0.34610  1.0000
  C   C67       1.0  0.85693  0.44993  0.33880  1.0000
  C   C68       1.0  0.87181  0.42878  0.32919  1.0000
  C   C69       1.0  0.84941  0.39275  0.32639  1.0000
  H   H33       1.0  0.51973  0.14390  0.32070  1.0000
  H   H34       1.0  0.55612  0.20453  0.33398  1.0000
  H   H35       1.0  0.60650  0.31070  0.30312  1.0000
  H   H36       1.0  0.69221  0.29639  0.30309  1.0000
  H   H37       1.0  0.70652  0.39640  0.30312  1.0000
  H   H38       1.0  0.79838  0.35218  0.33402  1.0000
  H   H39       1.0  0.55107  0.36010  0.35258  1.0000
  H   H40       1.0  0.62648  0.48316  0.32077  1.0000
  H   H41       1.0  0.65073  0.44678  0.33408  1.0000
  H   H42       1.0  0.85901  0.37643  0.32074  1.0000
  H   H43       1.0  0.81135  0.45184  0.35261  1.0000
  H   H44       1.0  0.60683  0.36013  0.40016  1.0000
  H   H45       1.0  0.65122  0.39671  0.25137  1.0000
  H   H46       1.0  0.64277  0.24727  0.40009  1.0000
  H   H47       1.0  0.60619  0.25510  0.25133  1.0000
  H   H48       1.0  0.75562  0.39607  0.40014  1.0000
  H   H49       1.0  0.74781  0.35169  0.25133  1.0000
  C   C70       1.0  0.90814  0.44301  0.32227  1.0000
  C   C71       1.0  0.55989  0.46570  0.32219  1.0000
  C   C72       1.0  0.53718  0.09476  0.32222  1.0000
  O   O4        1.0  0.57789  0.49533  0.27547  1.0000
  O   O5        1.0  0.50756  0.08312  0.27545  1.0000
  O   O6        1.0  0.91978  0.42503  0.27551  1.0000
  C   C73       1.0  0.49273  0.51334  0.43943  1.0000
  C   C74       1.0  0.50752  0.49171  0.44779  1.0000
  C   C75       1.0  0.51813  0.48182  0.36909  1.0000
  C   C76       1.0  0.51260  0.48220  0.53440  1.0000
  C   C77       1.0  0.50334  0.49367  0.61118  1.0000
  C   C78       1.0  0.48923  0.51520  0.60293  1.0000
  C   C79       1.0  0.48416  0.52512  0.51788  1.0000
  H   H50       1.0  0.52383  0.46747  0.54324  1.0000
  H   H51       1.0  0.48306  0.52403  0.65890  1.0000
  H   H52       1.0  0.47472  0.54158  0.51448  1.0000
  N   N10       1.0  0.53146  0.46022  0.36868  1.0000
  H   H53       1.0  0.52100  0.44074  0.40939  1.0000
  C   C80       1.0  0.48960  0.97997  0.43951  1.0000
  C   C81       1.0  0.51122  0.01638  0.44785  1.0000
  C   C82       1.0  0.52108  0.03688  0.36915  1.0000
  C   C83       1.0  0.52075  0.03098  0.53445  1.0000
  C   C84       1.0  0.50930  0.01025  0.61124  1.0000
  C   C85       1.0  0.48776  0.97461  0.60302  1.0000
  C   C86       1.0  0.47783  0.95962  0.51797  1.0000
  H   H54       1.0  0.53543  0.05693  0.54329  1.0000
  H   H55       1.0  0.47891  0.95962  0.65900  1.0000
  H   H56       1.0  0.46135  0.93371  0.51460  1.0000
  N   N11       1.0  0.54265  0.07182  0.36876  1.0000
  H   H57       1.0  0.56215  0.08084  0.40940  1.0000
  C   C87       1.0  0.98652  0.49542  0.44782  1.0000
  C   C88       1.0  0.96602  0.48480  0.36912  1.0000
  C   C89       1.0  0.97192  0.49034  0.53442  1.0000
  C   C90       1.0  0.99265  0.49962  0.61121  1.0000
  H   H58       1.0  0.94597  0.47909  0.54326  1.0000
  H   H59       1.0  0.06919  0.52823  0.51455  1.0000
  N   N12       1.0  0.93108  0.47146  0.36870  1.0000
  H   H60       1.0  0.92207  0.48192  0.40941  1.0000
