data_image0
_chemical_formula_structural       C3H4C6H5C3H4C4HNO2NC3HNO2NC3HNO2NC8H4C3HC6H2C9H4C6H3C8H2C10H5C6H3C8H2C3HNO2NC3HNO2NC3HNO2NHC2HCHCHCHC2HC3NOH2NC2HCNOHCNOC3H4C2NO2C2HNC8H4CHC6H2C3NO2NC2HOC2H2C2H2C3HNO2NC4H2C3H2C3HC4H2C5H2C3HC3HNO2N
_chemical_formula_sum              "C168 H84 N24 O24"
_cell_length_a       70.6319
_cell_length_b       70.6347
_cell_length_c       14.7264
_cell_angle_alpha    90
_cell_angle_beta     90
_cell_angle_gamma    119.998

_space_group_name_H-M_alt    "P 1"
_space_group_IT_number       1

loop_
  _space_group_symop_operation_xyz
  'x, y, z'

loop_
  _atom_site_type_symbol
  _atom_site_label
  _atom_site_symmetry_multiplicity
  _atom_site_fract_x
  _atom_site_fract_y
  _atom_site_fract_z
  _atom_site_occupancy
  C   C1        1.0  0.96928  0.06811  0.35597  1.0000
  C   C2        1.0  0.10570  0.04209  0.35556  1.0000
  C   C3        1.0  0.12863  0.05583  0.35239  1.0000
  H   H1        1.0  0.96268  0.09399  0.35336  1.0000
  H   H2        1.0  0.09937  0.02551  0.35847  1.0000
  H   H3        1.0  0.13821  0.04875  0.35277  1.0000
  H   H4        1.0  0.98585  0.07832  0.36033  1.0000
  C   C4        1.0  0.95558  0.07734  0.35211  1.0000
  C   C5        1.0  0.50709  0.30932  0.32703  1.0000
  C   C6        1.0  0.33513  0.18106  0.32508  1.0000
  C   C7        1.0  0.31227  0.16773  0.33487  1.0000
  C   C8        1.0  0.48373  0.16745  0.36120  1.0000
  C   C9        1.0  0.50123  0.16333  0.36902  1.0000
  H   H5        1.0  0.34121  0.19590  0.29347  1.0000
  H   H6        1.0  0.30244  0.17338  0.31053  1.0000
  H   H7        1.0  0.46809  0.15447  0.35825  1.0000
  H   H8        1.0  0.49783  0.14744  0.37141  1.0000
  H   H9        1.0  0.51031  0.29745  0.30499  1.0000
  C   C10       1.0  0.70209  0.20239  0.32744  1.0000
  C   C11       1.0  0.83027  0.15861  0.32339  1.0000
  C   C12       1.0  0.84347  0.14895  0.33349  1.0000
  H   H10       1.0  0.67731  0.21025  0.31413  1.0000
  H   H11       1.0  0.81558  0.15004  0.29051  1.0000
  H   H12       1.0  0.83789  0.13357  0.30808  1.0000
  H   H13       1.0  0.71399  0.21746  0.30535  1.0000
  C   C13       1.0  0.68040  0.19810  0.33269  1.0000
  C   C14       1.0  0.19705  0.09940  0.35579  1.0000
  C   C15       1.0  0.20846  0.10979  0.27480  1.0000
  C   C16       1.0  0.23164  0.12191  0.27510  1.0000
  H   H14       1.0  0.23971  0.12928  0.21631  1.0000
  N   N1        1.0  0.19642  0.10751  0.19468  1.0000
  O   O1        1.0  0.19995  0.12574  0.16587  1.0000
  O   O2        1.0  0.20099  0.09820  0.13280  1.0000
  N   N2        1.0  0.17521  0.08728  0.35842  1.0000
  C   C17       1.0  0.91185  0.10206  0.35547  1.0000
  C   C18       1.0  0.90251  0.10409  0.27317  1.0000
  C   C19       1.0  0.89034  0.11512  0.27315  1.0000
  H   H15       1.0  0.88375  0.11656  0.21343  1.0000
  N   N3        1.0  0.90588  0.09539  0.19216  1.0000
  O   O3        1.0  0.88808  0.08109  0.15835  1.0000
  O   O4        1.0  0.91598  0.11006  0.13392  1.0000
  N   N4        1.0  0.92397  0.09233  0.35874  1.0000
  C   C20       1.0  0.57583  0.18506  0.34337  1.0000
  C   C21       1.0  0.58721  0.18747  0.26177  1.0000
  C   C22       1.0  0.60712  0.18720  0.26056  1.0000
  H   H16       1.0  0.58101  0.18949  0.20204  1.0000
  N   N5        1.0  0.61843  0.18937  0.17826  1.0000
  O   O5        1.0  0.62386  0.20724  0.13973  1.0000
  O   O6        1.0  0.60701  0.17409  0.12416  1.0000
  N   N6        1.0  0.55788  0.18670  0.34054  1.0000
  C   C23       1.0  0.96033  0.04520  0.35304  1.0000
  C   C24       1.0  0.09172  0.05102  0.35395  1.0000
  C   C25       1.0  0.93256  0.06399  0.34506  1.0000
  C   C26       1.0  0.92382  0.04104  0.34244  1.0000
  C   C27       1.0  0.93742  0.03176  0.34649  1.0000
  C   C28       1.0  0.13829  0.07889  0.34740  1.0000
  C   C29       1.0  0.12404  0.08759  0.34611  1.0000
  C   C30       1.0  0.10117  0.07395  0.34943  1.0000
  H   H17       1.0  0.90730  0.03070  0.33720  1.0000
  H   H18       1.0  0.93035  0.01508  0.34396  1.0000
  H   H19       1.0  0.13021  0.10414  0.34243  1.0000
  H   H20       1.0  0.09154  0.08101  0.34797  1.0000
  C   C31       1.0  0.02929  0.01701  0.35684  1.0000
  C   C32       1.0  0.99430  0.01673  0.35674  1.0000
  C   C33       1.0  0.01743  0.02830  0.35674  1.0000
  H   H21       1.0  0.02571  0.04508  0.35656  1.0000
  C   C34       1.0  0.07035  0.03851  0.35567  1.0000
  C   C35       1.0  0.05078  0.02795  0.35647  1.0000
  C   C36       1.0  0.97281  0.03631  0.35519  1.0000
  C   C37       1.0  0.98336  0.02728  0.35624  1.0000
  C   C38       1.0  0.16089  0.09306  0.34190  1.0000
  C   C39       1.0  0.91846  0.07248  0.33844  1.0000
  H   H22       1.0  0.90311  0.06251  0.31847  1.0000
  H   H23       1.0  0.16630  0.10865  0.32588  1.0000
  C   C40       1.0  0.34940  0.17419  0.35941  1.0000
  C   C41       1.0  0.48576  0.30405  0.35296  1.0000
  C   C42       1.0  0.48777  0.18913  0.35918  1.0000
  C   C43       1.0  0.30303  0.14721  0.37935  1.0000
  C   C44       1.0  0.31756  0.14051  0.41301  1.0000
  C   C45       1.0  0.34036  0.15371  0.40316  1.0000
  C   C46       1.0  0.52309  0.18073  0.37399  1.0000
  C   C47       1.0  0.52701  0.20243  0.37150  1.0000
  C   C48       1.0  0.50955  0.20660  0.36423  1.0000
  H   H24       1.0  0.35023  0.14824  0.42925  1.0000
  H   H25       1.0  0.31167  0.12585  0.44597  1.0000
  H   H26       1.0  0.54258  0.21541  0.37674  1.0000
  H   H27       1.0  0.51296  0.22251  0.36377  1.0000
  C   C49       1.0  0.44681  0.20878  0.35043  1.0000
  C   C50       1.0  0.42370  0.19695  0.35015  1.0000
  C   C51       1.0  0.41170  0.20810  0.34920  1.0000
  C   C52       1.0  0.42304  0.23125  0.34894  1.0000
  C   C53       1.0  0.44615  0.24316  0.34929  1.0000
  C   C54       1.0  0.45789  0.23184  0.35001  1.0000
  H   H28       1.0  0.41449  0.23947  0.34880  1.0000
  H   H29       1.0  0.41563  0.18018  0.35093  1.0000
  H   H30       1.0  0.47471  0.24049  0.35059  1.0000
  C   C55       1.0  0.47169  0.19323  0.35480  1.0000
  C   C56       1.0  0.45851  0.19914  0.35218  1.0000
  C   C57       1.0  0.46998  0.28372  0.35095  1.0000
  C   C58       1.0  0.45724  0.26451  0.34983  1.0000
  C   C59       1.0  0.39026  0.19705  0.35010  1.0000
  C   C60       1.0  0.37070  0.18651  0.35290  1.0000
  C   C61       1.0  0.54000  0.17641  0.38607  1.0000
  C   C62       1.0  0.28059  0.13394  0.39419  1.0000
  H   H31       1.0  0.27583  0.12245  0.44181  1.0000
  H   H32       1.0  0.53795  0.16477  0.42976  1.0000
  C   C63       1.0  0.83704  0.17961  0.35922  1.0000
  C   C64       1.0  0.70730  0.18629  0.35335  1.0000
  C   C65       1.0  0.82200  0.30308  0.35944  1.0000
  C   C66       1.0  0.66332  0.17766  0.36401  1.0000
  C   C67       1.0  0.66882  0.16166  0.38977  1.0000
  C   C68       1.0  0.69051  0.16588  0.38464  1.0000
  C   C69       1.0  0.86377  0.15995  0.37978  1.0000
  C   C70       1.0  0.87039  0.18105  0.41489  1.0000
  C   C71       1.0  0.85731  0.19077  0.40475  1.0000
  C   C72       1.0  0.80452  0.30729  0.36862  1.0000
  H   H33       1.0  0.65704  0.14671  0.41330  1.0000
  H   H34       1.0  0.69386  0.15397  0.40471  1.0000
  H   H35       1.0  0.86270  0.20598  0.43192  1.0000
  H   H36       1.0  0.88489  0.18960  0.44914  1.0000
  H   H37       1.0  0.78865  0.29473  0.37101  1.0000
  C   C73       1.0  0.80253  0.24253  0.35016  1.0000
  C   C74       1.0  0.81437  0.23126  0.34975  1.0000
  C   C75       1.0  0.80324  0.20811  0.34881  1.0000
  C   C76       1.0  0.78009  0.19629  0.34871  1.0000
  C   C77       1.0  0.76816  0.20747  0.34919  1.0000
  C   C78       1.0  0.77947  0.23053  0.34987  1.0000
  H   H38       1.0  0.77188  0.17951  0.34864  1.0000
  H   H39       1.0  0.83114  0.23997  0.35048  1.0000
  H   H40       1.0  0.77081  0.23869  0.35055  1.0000
  C   C79       1.0  0.81797  0.28293  0.35476  1.0000
  C   C80       1.0  0.81213  0.26386  0.35197  1.0000
  C   C81       1.0  0.72761  0.19077  0.35119  1.0000
  C   C82       1.0  0.74682  0.19720  0.34990  1.0000
  C   C83       1.0  0.81430  0.19772  0.34969  1.0000
  C   C84       1.0  0.82480  0.18867  0.35254  1.0000
  C   C85       1.0  0.87686  0.15060  0.39510  1.0000
  C   C86       1.0  0.64178  0.17316  0.37183  1.0000
  H   H41       1.0  0.63083  0.15940  0.40233  1.0000
  H   H42       1.0  0.88785  0.15682  0.44482  1.0000
  C   C87       1.0  0.24384  0.12358  0.35349  1.0000
  C   C88       1.0  0.23222  0.11315  0.43350  1.0000
  C   C89       1.0  0.20915  0.10099  0.43546  1.0000
  H   H43       1.0  0.24064  0.11445  0.49182  1.0000
  N   N7        1.0  0.19956  0.09122  0.51959  1.0000
  O   O7        1.0  0.18773  0.09839  0.55008  1.0000
  O   O8        1.0  0.18835  0.07077  0.51325  1.0000
  N   N8        1.0  0.26571  0.13513  0.34799  1.0000
  C   C90       1.0  0.88762  0.12464  0.35260  1.0000
  C   C91       1.0  0.89701  0.12243  0.43387  1.0000
  C   C92       1.0  0.90921  0.11148  0.43607  1.0000
  H   H44       1.0  0.89496  0.12880  0.49292  1.0000
  N   N9        1.0  0.91868  0.10954  0.51781  1.0000
  O   O9        1.0  0.93226  0.12799  0.54905  1.0000
  O   O10       1.0  0.90438  0.09932  0.57729  1.0000
  N   N10       1.0  0.87613  0.13501  0.34686  1.0000
  C   C93       1.0  0.61589  0.18461  0.34316  1.0000
  C   C94       1.0  0.60493  0.18278  0.42636  1.0000
  C   C95       1.0  0.58494  0.18288  0.42530  1.0000
  H   H45       1.0  0.57734  0.18205  0.48552  1.0000
  N   N11       1.0  0.61446  0.18156  0.50918  1.0000
  O   O11       1.0  0.60215  0.16415  0.55104  1.0000
  O   O12       1.0  0.61867  0.19744  0.56025  1.0000
  N   N12       1.0  0.63545  0.18610  0.34068  1.0000
  H   H46       1.0  0.53971  0.33416  0.31384  1.0000
  C   C96       1.0  0.52444  0.33103  0.33229  1.0000
  C   C97       1.0  0.84364  0.32082  0.35753  1.0000
  H   H47       1.0  0.85663  0.31823  0.35148  1.0000
  C   C98       1.0  0.48208  0.32081  0.38428  1.0000
  H   H48       1.0  0.46681  0.31741  0.40437  1.0000
  C   C99       1.0  0.80865  0.32890  0.37604  1.0000
  H   H49       1.0  0.79570  0.33145  0.38436  1.0000
  C   C100      1.0  0.84773  0.34241  0.36560  1.0000
  H   H50       1.0  0.86360  0.35497  0.36514  1.0000
  C   C101      1.0  0.52102  0.34807  0.36367  1.0000
  C   C102      1.0  0.49951  0.34251  0.38943  1.0000
  H   H51       1.0  0.49630  0.35426  0.41300  1.0000
  C   C103      1.0  0.83031  0.34675  0.37469  1.0000
  C   C104      1.0  0.53804  0.36962  0.37179  1.0000
  C   C105      1.0  0.83463  0.36796  0.38702  1.0000
  N   N13       1.0  0.82446  0.37560  0.34097  1.0000
  O   O13       1.0  0.58970  0.38809  0.13796  1.0000
  H   H52       1.0  0.53526  0.38049  0.40315  1.0000
  H   H53       1.0  0.84623  0.37750  0.43091  1.0000
  N   N14       1.0  0.55729  0.37603  0.34009  1.0000
  C   C106      1.0  0.82617  0.39522  0.34364  1.0000
  C   C107      1.0  0.82403  0.40429  0.26181  1.0000
  H   H54       1.0  0.82213  0.39610  0.20208  1.0000
  C   C108      1.0  0.58664  0.40454  0.26034  1.0000
  N   N15       1.0  0.57736  0.39348  0.17773  1.0000
  O   O14       1.0  0.57349  0.40509  0.12480  1.0000
  H   H55       1.0  0.82886  0.39965  0.48587  1.0000
  C   C109      1.0  0.57536  0.39558  0.34292  1.0000
  N   N16       1.0  0.57391  0.39659  0.50910  1.0000
  O   O15       1.0  0.58557  0.39218  0.55931  1.0000
  C   C110      1.0  0.80897  0.50421  0.32715  1.0000
  C   C111      1.0  0.69047  0.52713  0.35487  1.0000
  C   C112      1.0  0.66887  0.50963  0.36318  1.0000
  H   H56       1.0  0.80112  0.47156  0.31401  1.0000
  H   H57       1.0  0.69303  0.54264  0.34657  1.0000
  H   H58       1.0  0.65629  0.51288  0.36056  1.0000
  H   H59       1.0  0.79390  0.50103  0.30506  1.0000
  C   C113      1.0  0.81327  0.48681  0.33247  1.0000
  C   C114      1.0  0.82438  0.42451  0.26039  1.0000
  N   N17       1.0  0.82247  0.43375  0.17790  1.0000
  O   O16       1.0  0.80469  0.42138  0.13854  1.0000
  O   O17       1.0  0.83789  0.43762  0.12457  1.0000
  C   C115      1.0  0.61600  0.43550  0.34386  1.0000
  C   C116      1.0  0.60688  0.42438  0.26190  1.0000
  H   H60       1.0  0.61506  0.43072  0.20218  1.0000
  N   N18       1.0  0.63565  0.45339  0.34126  1.0000
  C   C117      1.0  0.82507  0.52553  0.35296  1.0000
  C   C118      1.0  0.70824  0.52330  0.35977  1.0000
  C   C119      1.0  0.83372  0.49019  0.36379  1.0000
  C   C120      1.0  0.84971  0.51168  0.38950  1.0000
  C   C121      1.0  0.84549  0.52915  0.38427  1.0000
  C   C122      1.0  0.66459  0.48797  0.37535  1.0000
  C   C123      1.0  0.68246  0.48422  0.37965  1.0000
  C   C124      1.0  0.70407  0.50170  0.37202  1.0000
  H   H61       1.0  0.86466  0.51487  0.41305  1.0000
  H   H62       1.0  0.85740  0.54442  0.40431  1.0000
  H   H63       1.0  0.67992  0.46880  0.39013  1.0000
  H   H64       1.0  0.71665  0.49846  0.37655  1.0000
  C   C125      1.0  0.78080  0.55341  0.34963  1.0000
  H   H65       1.0  0.77266  0.53659  0.35025  1.0000
  C   C126      1.0  0.72838  0.53944  0.35486  1.0000
  C   C127      1.0  0.74745  0.55270  0.35192  1.0000
  C   C128      1.0  0.82058  0.54135  0.35082  1.0000
  C   C129      1.0  0.81414  0.55411  0.34957  1.0000
  C   C130      1.0  0.64338  0.47112  0.38784  1.0000
  C   C131      1.0  0.83820  0.47314  0.37185  1.0000
  H   H66       1.0  0.85189  0.47591  0.40293  1.0000
  H   H67       1.0  0.63393  0.47316  0.43230  1.0000
  C   C132      1.0  0.82679  0.43582  0.34299  1.0000
  C   C133      1.0  0.82839  0.42661  0.42638  1.0000
  C   C134      1.0  0.82821  0.40647  0.42555  1.0000
  N   N19       1.0  0.82945  0.43731  0.50912  1.0000
  O   O18       1.0  0.84676  0.44234  0.55171  1.0000
  O   O19       1.0  0.81344  0.42564  0.55962  1.0000
  N   N20       1.0  0.82533  0.45389  0.34029  1.0000
  C   C135      1.0  0.58461  0.40630  0.42641  1.0000
  C   C136      1.0  0.60476  0.42623  0.42572  1.0000
  H   H68       1.0  0.61162  0.43364  0.48612  1.0000
  O   O20       1.0  0.56892  0.40886  0.55205  1.0000
  C   C137      1.0  0.94323  0.90562  0.35543  1.0000
  C   C138      1.0  0.93404  0.88269  0.35226  1.0000
  H   H69       1.0  0.93299  0.91195  0.35827  1.0000
  H   H70       1.0  0.91738  0.87312  0.35261  1.0000
  C   C139      1.0  0.85269  0.67617  0.32465  1.0000
  C   C140      1.0  0.86224  0.69903  0.33449  1.0000
  H   H71       1.0  0.86142  0.67009  0.29280  1.0000
  H   H72       1.0  0.87769  0.70886  0.30993  1.0000
  C   C141      1.0  0.90917  0.81426  0.35575  1.0000
  C   C142      1.0  0.90817  0.80286  0.27477  1.0000
  C   C143      1.0  0.89711  0.77967  0.27505  1.0000
  H   H73       1.0  0.89641  0.77161  0.21626  1.0000
  N   N21       1.0  0.91793  0.81490  0.19467  1.0000
  O   O21       1.0  0.93264  0.81137  0.16590  1.0000
  O   O22       1.0  0.90407  0.81034  0.13275  1.0000
  N   N22       1.0  0.91890  0.83611  0.35838  1.0000
  C   C144      1.0  0.96615  0.91959  0.35396  1.0000
  C   C145      1.0  0.94743  0.87301  0.34744  1.0000
  C   C146      1.0  0.97039  0.88726  0.34626  1.0000
  C   C147      1.0  0.97963  0.91013  0.34956  1.0000
  H   H74       1.0  0.99632  0.91975  0.34819  1.0000
  H   H75       1.0  0.98076  0.88109  0.34268  1.0000
  C   C148      1.0  0.01772  0.99388  0.35685  1.0000
  C   C149      1.0  0.99458  0.98202  0.35683  1.0000
  C   C150      1.0  0.98301  0.99359  0.35674  1.0000
  H   H76       1.0  0.96623  0.98508  0.35655  1.0000
  H   H77       1.0  0.02623  0.98560  0.35674  1.0000
  C   C151      1.0  0.98403  0.96054  0.35647  1.0000
  C   C152      1.0  0.97501  0.94096  0.35566  1.0000
  C   C153      1.0  0.93900  0.85042  0.34198  1.0000
  H   H78       1.0  0.94919  0.84501  0.32601  1.0000
  C   C154      1.0  0.83157  0.66189  0.35923  1.0000
  C   C155      1.0  0.85100  0.70828  0.37926  1.0000
  C   C156      1.0  0.82978  0.69374  0.41315  1.0000
  C   C157      1.0  0.82018  0.67094  0.40329  1.0000
  H   H79       1.0  0.80486  0.66108  0.42950  1.0000
  H   H80       1.0  0.82104  0.69963  0.44628  1.0000
  C   C158      1.0  0.76878  0.56445  0.35002  1.0000
  C   C159      1.0  0.78003  0.58756  0.34974  1.0000
  C   C160      1.0  0.80318  0.59960  0.34880  1.0000
  C   C161      1.0  0.81502  0.58829  0.34858  1.0000
  C   C162      1.0  0.80386  0.56518  0.34893  1.0000
  H   H81       1.0  0.83180  0.59686  0.34849  1.0000
  H   H82       1.0  0.77130  0.59560  0.35056  1.0000
  C   C163      1.0  0.81355  0.62104  0.34975  1.0000
  C   C164      1.0  0.82257  0.64059  0.35262  1.0000
  C   C165      1.0  0.86017  0.73072  0.39407  1.0000
  H   H83       1.0  0.85345  0.73548  0.44169  1.0000
  C   C166      1.0  0.88657  0.76747  0.35341  1.0000
  C   C167      1.0  0.88774  0.77909  0.43341  1.0000
  C   C168      1.0  0.89866  0.80216  0.43540  1.0000
  H   H84       1.0  0.88061  0.77066  0.49173  1.0000
  N   N23       1.0  0.89846  0.81175  0.51952  1.0000
  O   O23       1.0  0.91745  0.82357  0.55005  1.0000
  O   O24       1.0  0.88922  0.82296  0.51314  1.0000
  N   N24       1.0  0.87625  0.74560  0.34790  1.0000
