data_image0
_chemical_formula_structural       C4HC2O2C2NC3H3NHC2NC3H3NHC6HC5HCH3C2O2C5NH3NHC5NH3NHC4HC2O2C2NC3H3NHC2NC3H3NHC6HC5HCH3C2O2C5NH3NHC5NH3NHC4HC2O2C2NC3H3NHC2NC3H3NHC6HC5HCH3C2O2C5NH3NHC5NH3NHC4HC2O2C2NC3H3NHC2NC3H3NHC6HC5HCH3C2O2C5NH3NHC5NH3NH
_chemical_formula_sum              "C160 H88 O16 N32"
_cell_length_a       39.0864
_cell_length_b       39.0864
_cell_length_c       14.9904
_cell_angle_alpha    90
_cell_angle_beta     90
_cell_angle_gamma    90

_space_group_name_H-M_alt    "P 1"
_space_group_IT_number       1

loop_
  _space_group_symop_operation_xyz
  'x, y, z'

loop_
  _atom_site_type_symbol
  _atom_site_label
  _atom_site_symmetry_multiplicity
  _atom_site_fract_x
  _atom_site_fract_y
  _atom_site_fract_z
  _atom_site_occupancy
  C   C1        1.0  0.47649  0.06909  0.42016  1.0000
  C   C2        1.0  0.49909  0.04619  0.37523  1.0000
  C   C3        1.0  0.00155  0.45450  0.29272  1.0000
  C   C4        1.0  0.02414  0.43160  0.24774  1.0000
  H   H1        1.0  0.45818  0.42148  0.29625  1.0000
  C   C5        1.0  0.48265  0.10476  0.43210  1.0000
  C   C6        1.0  0.01802  0.39592  0.23598  1.0000
  O   O1        1.0  0.46667  0.12026  0.50159  1.0000
  O   O2        1.0  0.03410  0.38034  0.16675  1.0000
  C   C7        1.0  0.99711  0.15973  0.36003  1.0000
  C   C8        1.0  0.00008  0.23242  0.34090  1.0000
  N   N1        1.0  0.99964  0.21081  0.26976  1.0000
  C   C9        1.0  0.99878  0.17622  0.27594  1.0000
  C   C10       1.0  0.00032  0.28332  0.24137  1.0000
  C   C11       1.0  0.00174  0.31913  0.23249  1.0000
  H   H2        1.0  0.99919  0.26866  0.18492  1.0000
  H   H3        1.0  0.00032  0.32895  0.16958  1.0000
  H   H4        1.0  0.99779  0.16247  0.21801  1.0000
  N   N2        1.0  0.99384  0.12479  0.36304  1.0000
  H   H5        1.0  0.99640  0.11302  0.30597  1.0000
  C   C12       1.0  0.34091  0.00356  0.35996  1.0000
  C   C13       1.0  0.26822  0.00049  0.34082  1.0000
  N   N3        1.0  0.28984  0.00094  0.26969  1.0000
  C   C14       1.0  0.32443  0.00183  0.27587  1.0000
  C   C15       1.0  0.21732  0.00022  0.24131  1.0000
  C   C16       1.0  0.18151  0.99880  0.23243  1.0000
  H   H6        1.0  0.23198  0.00136  0.18486  1.0000
  H   H7        1.0  0.17169  0.00022  0.16953  1.0000
  H   H8        1.0  0.33818  0.00282  0.21793  1.0000
  N   N4        1.0  0.37585  0.00687  0.36302  1.0000
  H   H9        1.0  0.38762  0.00425  0.30594  1.0000
  C   C17       1.0  0.48862  0.01206  0.35477  1.0000
  C   C18       1.0  0.45447  0.00162  0.37519  1.0000
  C   C19       1.0  0.43158  0.02423  0.42013  1.0000
  C   C20       1.0  0.44438  0.05632  0.44807  1.0000
  C   C21       1.0  0.44498  0.46760  0.35500  1.0000
  C   C22       1.0  0.03312  0.05566  0.35501  1.0000
  H   H10       1.0  0.42753  0.07322  0.47632  1.0000
  C   C23       1.0  0.01203  0.48863  0.31315  1.0000
  C   C24       1.0  0.05626  0.44436  0.21987  1.0000
  C   C25       1.0  0.06905  0.47646  0.24776  1.0000
  C   C26       1.0  0.04617  0.49908  0.29272  1.0000
  C   C27       1.0  0.46753  0.44503  0.31299  1.0000
  H   H11       1.0  0.07314  0.42749  0.19167  1.0000
  C   C28       1.0  0.05567  0.03309  0.31297  1.0000
  H   H12       1.0  0.42142  0.45827  0.37171  1.0000
  H   H13       1.0  0.07923  0.04242  0.29627  1.0000
  H   H14       1.0  0.04247  0.07921  0.37172  1.0000
  C   C29       1.0  0.39590  0.01819  0.43194  1.0000
  C   C30       1.0  0.10473  0.48258  0.23586  1.0000
  O   O3        1.0  0.38022  0.03428  0.50099  1.0000
  O   O4        1.0  0.12023  0.46659  0.16638  1.0000
  C   C31       1.0  0.99893  0.18152  0.43553  1.0000
  C   C32       1.0  0.00033  0.21733  0.42665  1.0000
  C   C33       1.0  0.00056  0.26823  0.32713  1.0000
  C   C34       1.0  0.00354  0.34092  0.30799  1.0000
  C   C35       1.0  0.00186  0.32443  0.39208  1.0000
  N   N5        1.0  0.00099  0.28985  0.39827  1.0000
  H   H15       1.0  0.00281  0.33818  0.45002  1.0000
  H   H16       1.0  0.00034  0.17170  0.49844  1.0000
  H   H17       1.0  0.00147  0.23199  0.48311  1.0000
  N   N6        1.0  0.00679  0.37586  0.30493  1.0000
  H   H18       1.0  0.00421  0.38764  0.36200  1.0000
  C   C36       1.0  0.31913  0.00174  0.43546  1.0000
  C   C37       1.0  0.28332  0.00028  0.42658  1.0000
  C   C38       1.0  0.23242  0.99999  0.32706  1.0000
  C   C39       1.0  0.15972  0.99701  0.30794  1.0000
  C   C40       1.0  0.17622  0.99870  0.39202  1.0000
  N   N7        1.0  0.21080  0.99956  0.39821  1.0000
  H   H19       1.0  0.16246  0.99772  0.44996  1.0000
  H   H20       1.0  0.32895  0.00034  0.49836  1.0000
  H   H21       1.0  0.26866  0.99913  0.48303  1.0000
  N   N8        1.0  0.12478  0.99377  0.30489  1.0000
  H   H22       1.0  0.11302  0.99634  0.36198  1.0000
  C   C41       1.0  0.47649  0.56909  0.42016  1.0000
  C   C42       1.0  0.49909  0.54619  0.37523  1.0000
  C   C43       1.0  0.00155  0.95450  0.29272  1.0000
  C   C44       1.0  0.02414  0.93160  0.24774  1.0000
  H   H23       1.0  0.45818  0.92148  0.29625  1.0000
  C   C45       1.0  0.48265  0.60476  0.43210  1.0000
  C   C46       1.0  0.01802  0.89592  0.23598  1.0000
  O   O5        1.0  0.46667  0.62026  0.50159  1.0000
  O   O6        1.0  0.03410  0.88034  0.16675  1.0000
  C   C47       1.0  0.99711  0.65973  0.36003  1.0000
  C   C48       1.0  0.00008  0.73242  0.34090  1.0000
  N   N9        1.0  0.99964  0.71081  0.26976  1.0000
  C   C49       1.0  0.99878  0.67622  0.27594  1.0000
  C   C50       1.0  0.00032  0.78332  0.24137  1.0000
  C   C51       1.0  0.00174  0.81913  0.23249  1.0000
  H   H24       1.0  0.99919  0.76866  0.18492  1.0000
  H   H25       1.0  0.00032  0.82895  0.16958  1.0000
  H   H26       1.0  0.99779  0.66247  0.21801  1.0000
  N   N10       1.0  0.99384  0.62479  0.36304  1.0000
  H   H27       1.0  0.99640  0.61302  0.30597  1.0000
  C   C52       1.0  0.34091  0.50356  0.35996  1.0000
  C   C53       1.0  0.26822  0.50049  0.34082  1.0000
  N   N11       1.0  0.28984  0.50094  0.26969  1.0000
  C   C54       1.0  0.32443  0.50183  0.27587  1.0000
  C   C55       1.0  0.21732  0.50022  0.24131  1.0000
  C   C56       1.0  0.18151  0.49880  0.23243  1.0000
  H   H28       1.0  0.23198  0.50136  0.18486  1.0000
  H   H29       1.0  0.17169  0.50022  0.16953  1.0000
  H   H30       1.0  0.33818  0.50282  0.21793  1.0000
  N   N12       1.0  0.37585  0.50687  0.36302  1.0000
  H   H31       1.0  0.38762  0.50425  0.30594  1.0000
  C   C57       1.0  0.48862  0.51206  0.35477  1.0000
  C   C58       1.0  0.45447  0.50162  0.37519  1.0000
  C   C59       1.0  0.43158  0.52423  0.42013  1.0000
  C   C60       1.0  0.44438  0.55632  0.44807  1.0000
  C   C61       1.0  0.44498  0.96760  0.35500  1.0000
  C   C62       1.0  0.03312  0.55566  0.35501  1.0000
  H   H32       1.0  0.42753  0.57322  0.47632  1.0000
  C   C63       1.0  0.01203  0.98863  0.31315  1.0000
  C   C64       1.0  0.05626  0.94436  0.21987  1.0000
  C   C65       1.0  0.06905  0.97646  0.24776  1.0000
  C   C66       1.0  0.04617  0.99908  0.29272  1.0000
  C   C67       1.0  0.46753  0.94503  0.31299  1.0000
  H   H33       1.0  0.07314  0.92749  0.19167  1.0000
  C   C68       1.0  0.05567  0.53309  0.31297  1.0000
  H   H34       1.0  0.42142  0.95827  0.37171  1.0000
  H   H35       1.0  0.07923  0.54242  0.29627  1.0000
  H   H36       1.0  0.04247  0.57921  0.37172  1.0000
  C   C69       1.0  0.39590  0.51819  0.43194  1.0000
  C   C70       1.0  0.10473  0.98258  0.23586  1.0000
  O   O7        1.0  0.38022  0.53428  0.50099  1.0000
  O   O8        1.0  0.12023  0.96659  0.16638  1.0000
  C   C71       1.0  0.99893  0.68152  0.43553  1.0000
  C   C72       1.0  0.00033  0.71733  0.42665  1.0000
  C   C73       1.0  0.00056  0.76823  0.32713  1.0000
  C   C74       1.0  0.00354  0.84092  0.30799  1.0000
  C   C75       1.0  0.00186  0.82443  0.39208  1.0000
  N   N13       1.0  0.00099  0.78985  0.39827  1.0000
  H   H37       1.0  0.00281  0.83818  0.45002  1.0000
  H   H38       1.0  0.00034  0.67170  0.49844  1.0000
  H   H39       1.0  0.00147  0.73199  0.48311  1.0000
  N   N14       1.0  0.00679  0.87586  0.30493  1.0000
  H   H40       1.0  0.00421  0.88764  0.36200  1.0000
  C   C76       1.0  0.31913  0.50174  0.43546  1.0000
  C   C77       1.0  0.28332  0.50028  0.42658  1.0000
  C   C78       1.0  0.23242  0.49999  0.32706  1.0000
  C   C79       1.0  0.15972  0.49701  0.30794  1.0000
  C   C80       1.0  0.17622  0.49869  0.39202  1.0000
  N   N15       1.0  0.21080  0.49956  0.39821  1.0000
  H   H41       1.0  0.16246  0.49773  0.44996  1.0000
  H   H42       1.0  0.32895  0.50034  0.49836  1.0000
  H   H43       1.0  0.26866  0.49913  0.48303  1.0000
  N   N16       1.0  0.12478  0.49377  0.30489  1.0000
  H   H44       1.0  0.11302  0.49634  0.36198  1.0000
  C   C81       1.0  0.97649  0.06909  0.42016  1.0000
  C   C82       1.0  0.99909  0.04619  0.37523  1.0000
  C   C83       1.0  0.50155  0.45450  0.29272  1.0000
  C   C84       1.0  0.52414  0.43160  0.24774  1.0000
  H   H45       1.0  0.95818  0.42148  0.29625  1.0000
  C   C85       1.0  0.98265  0.10476  0.43210  1.0000
  C   C86       1.0  0.51802  0.39592  0.23598  1.0000
  O   O9        1.0  0.96667  0.12026  0.50159  1.0000
  O   O10       1.0  0.53410  0.38034  0.16675  1.0000
  C   C87       1.0  0.49711  0.15973  0.36003  1.0000
  C   C88       1.0  0.50008  0.23242  0.34090  1.0000
  N   N17       1.0  0.49964  0.21081  0.26976  1.0000
  C   C89       1.0  0.49878  0.17622  0.27594  1.0000
  C   C90       1.0  0.50033  0.28332  0.24137  1.0000
  C   C91       1.0  0.50174  0.31913  0.23249  1.0000
  H   H46       1.0  0.49919  0.26866  0.18492  1.0000
  H   H47       1.0  0.50033  0.32895  0.16958  1.0000
  H   H48       1.0  0.49779  0.16247  0.21801  1.0000
  N   N18       1.0  0.49384  0.12479  0.36304  1.0000
  H   H49       1.0  0.49640  0.11302  0.30597  1.0000
  C   C92       1.0  0.84091  0.00356  0.35996  1.0000
  C   C93       1.0  0.76822  0.00049  0.34082  1.0000
  N   N19       1.0  0.78984  0.00094  0.26969  1.0000
  C   C94       1.0  0.82442  0.00183  0.27587  1.0000
  C   C95       1.0  0.71732  0.00022  0.24131  1.0000
  C   C96       1.0  0.68151  0.99880  0.23243  1.0000
  H   H50       1.0  0.73198  0.00136  0.18486  1.0000
  H   H51       1.0  0.67169  0.00022  0.16953  1.0000
  H   H52       1.0  0.83818  0.00282  0.21793  1.0000
  N   N20       1.0  0.87585  0.00687  0.36302  1.0000
  H   H53       1.0  0.88762  0.00425  0.30594  1.0000
  C   C97       1.0  0.98862  0.01206  0.35477  1.0000
  C   C98       1.0  0.95447  0.00162  0.37519  1.0000
  C   C99       1.0  0.93158  0.02423  0.42013  1.0000
  C   C100      1.0  0.94438  0.05632  0.44807  1.0000
  C   C101      1.0  0.94498  0.46760  0.35500  1.0000
  C   C102      1.0  0.53312  0.05566  0.35501  1.0000
  H   H54       1.0  0.92753  0.07322  0.47632  1.0000
  C   C103      1.0  0.51203  0.48863  0.31315  1.0000
  C   C104      1.0  0.55626  0.44436  0.21987  1.0000
  C   C105      1.0  0.56905  0.47646  0.24776  1.0000
  C   C106      1.0  0.54617  0.49908  0.29272  1.0000
  C   C107      1.0  0.96753  0.44503  0.31299  1.0000
  H   H55       1.0  0.57315  0.42749  0.19167  1.0000
  C   C108      1.0  0.55567  0.03309  0.31297  1.0000
  H   H56       1.0  0.92142  0.45827  0.37171  1.0000
  H   H57       1.0  0.57923  0.04242  0.29627  1.0000
  H   H58       1.0  0.54247  0.07921  0.37172  1.0000
  C   C109      1.0  0.89590  0.01819  0.43194  1.0000
  C   C110      1.0  0.60473  0.48258  0.23586  1.0000
  O   O11       1.0  0.88022  0.03428  0.50099  1.0000
  O   O12       1.0  0.62023  0.46659  0.16638  1.0000
  C   C111      1.0  0.49893  0.18152  0.43553  1.0000
  C   C112      1.0  0.50033  0.21733  0.42665  1.0000
  C   C113      1.0  0.50056  0.26823  0.32713  1.0000
  C   C114      1.0  0.50354  0.34092  0.30799  1.0000
  C   C115      1.0  0.50186  0.32443  0.39208  1.0000
  N   N21       1.0  0.50099  0.28985  0.39827  1.0000
  H   H59       1.0  0.50281  0.33818  0.45002  1.0000
  H   H60       1.0  0.50033  0.17170  0.49844  1.0000
  H   H61       1.0  0.50148  0.23199  0.48311  1.0000
  N   N22       1.0  0.50679  0.37586  0.30493  1.0000
  H   H62       1.0  0.50421  0.38764  0.36200  1.0000
  C   C116      1.0  0.81913  0.00174  0.43546  1.0000
  C   C117      1.0  0.78332  0.00028  0.42658  1.0000
  C   C118      1.0  0.73242  0.99999  0.32706  1.0000
  C   C119      1.0  0.65972  0.99701  0.30794  1.0000
  C   C120      1.0  0.67622  0.99870  0.39202  1.0000
  N   N23       1.0  0.71080  0.99956  0.39821  1.0000
  H   H63       1.0  0.66246  0.99772  0.44996  1.0000
  H   H64       1.0  0.82895  0.00034  0.49836  1.0000
  H   H65       1.0  0.76866  0.99913  0.48303  1.0000
  N   N24       1.0  0.62478  0.99377  0.30489  1.0000
  H   H66       1.0  0.61302  0.99634  0.36198  1.0000
  C   C121      1.0  0.97649  0.56909  0.42016  1.0000
  C   C122      1.0  0.99909  0.54619  0.37523  1.0000
  C   C123      1.0  0.50155  0.95450  0.29272  1.0000
  C   C124      1.0  0.52414  0.93160  0.24774  1.0000
  H   H67       1.0  0.95818  0.92148  0.29625  1.0000
  C   C125      1.0  0.98265  0.60476  0.43210  1.0000
  C   C126      1.0  0.51802  0.89592  0.23598  1.0000
  O   O13       1.0  0.96667  0.62026  0.50159  1.0000
  O   O14       1.0  0.53410  0.88034  0.16675  1.0000
  C   C127      1.0  0.49711  0.65973  0.36003  1.0000
  C   C128      1.0  0.50008  0.73242  0.34090  1.0000
  N   N25       1.0  0.49964  0.71081  0.26976  1.0000
  C   C129      1.0  0.49878  0.67622  0.27594  1.0000
  C   C130      1.0  0.50033  0.78332  0.24137  1.0000
  C   C131      1.0  0.50174  0.81913  0.23249  1.0000
  H   H68       1.0  0.49919  0.76866  0.18492  1.0000
  H   H69       1.0  0.50033  0.82895  0.16958  1.0000
  H   H70       1.0  0.49779  0.66247  0.21801  1.0000
  N   N26       1.0  0.49384  0.62479  0.36304  1.0000
  H   H71       1.0  0.49640  0.61302  0.30597  1.0000
  C   C132      1.0  0.84091  0.50356  0.35996  1.0000
  C   C133      1.0  0.76822  0.50049  0.34082  1.0000
  N   N27       1.0  0.78984  0.50094  0.26969  1.0000
  C   C134      1.0  0.82442  0.50183  0.27587  1.0000
  C   C135      1.0  0.71732  0.50022  0.24131  1.0000
  C   C136      1.0  0.68151  0.49880  0.23243  1.0000
  H   H72       1.0  0.73198  0.50136  0.18486  1.0000
  H   H73       1.0  0.67169  0.50022  0.16953  1.0000
  H   H74       1.0  0.83818  0.50282  0.21793  1.0000
  N   N28       1.0  0.87585  0.50687  0.36302  1.0000
  H   H75       1.0  0.88762  0.50425  0.30594  1.0000
  C   C137      1.0  0.98862  0.51206  0.35477  1.0000
  C   C138      1.0  0.95447  0.50162  0.37519  1.0000
  C   C139      1.0  0.93158  0.52423  0.42013  1.0000
  C   C140      1.0  0.94438  0.55632  0.44807  1.0000
  C   C141      1.0  0.94498  0.96760  0.35500  1.0000
  C   C142      1.0  0.53312  0.55566  0.35501  1.0000
  H   H76       1.0  0.92753  0.57322  0.47632  1.0000
  C   C143      1.0  0.51203  0.98863  0.31315  1.0000
  C   C144      1.0  0.55626  0.94436  0.21987  1.0000
  C   C145      1.0  0.56905  0.97646  0.24776  1.0000
  C   C146      1.0  0.54617  0.99908  0.29272  1.0000
  C   C147      1.0  0.96753  0.94503  0.31299  1.0000
  H   H77       1.0  0.57315  0.92749  0.19167  1.0000
  C   C148      1.0  0.55567  0.53309  0.31297  1.0000
  H   H78       1.0  0.92142  0.95827  0.37171  1.0000
  H   H79       1.0  0.57923  0.54242  0.29627  1.0000
  H   H80       1.0  0.54247  0.57921  0.37172  1.0000
  C   C149      1.0  0.89590  0.51819  0.43194  1.0000
  C   C150      1.0  0.60473  0.98258  0.23586  1.0000
  O   O15       1.0  0.88022  0.53428  0.50099  1.0000
  O   O16       1.0  0.62023  0.96659  0.16638  1.0000
  C   C151      1.0  0.49893  0.68152  0.43553  1.0000
  C   C152      1.0  0.50033  0.71733  0.42665  1.0000
  C   C153      1.0  0.50056  0.76823  0.32713  1.0000
  C   C154      1.0  0.50354  0.84092  0.30799  1.0000
  C   C155      1.0  0.50186  0.82443  0.39208  1.0000
  N   N29       1.0  0.50099  0.78985  0.39827  1.0000
  H   H81       1.0  0.50281  0.83818  0.45002  1.0000
  H   H82       1.0  0.50033  0.67170  0.49844  1.0000
  H   H83       1.0  0.50148  0.73199  0.48311  1.0000
  N   N30       1.0  0.50679  0.87586  0.30493  1.0000
  H   H84       1.0  0.50421  0.88764  0.36200  1.0000
  C   C156      1.0  0.81913  0.50174  0.43546  1.0000
  C   C157      1.0  0.78332  0.50028  0.42658  1.0000
  C   C158      1.0  0.73242  0.49999  0.32706  1.0000
  C   C159      1.0  0.65972  0.49701  0.30794  1.0000
  C   C160      1.0  0.67622  0.49869  0.39202  1.0000
  N   N31       1.0  0.71080  0.49956  0.39821  1.0000
  H   H85       1.0  0.66246  0.49773  0.44996  1.0000
  H   H86       1.0  0.82895  0.50034  0.49836  1.0000
  H   H87       1.0  0.76866  0.49913  0.48303  1.0000
  N   N32       1.0  0.62478  0.49377  0.30489  1.0000
  H   H88       1.0  0.61302  0.49634  0.36198  1.0000
