data_image0
_chemical_formula_structural       C16H16C4HC3H2NO2CHC4HC3H2NO2CHC3NC3NC5NC5NC36H26N4C5H4CHC5H4CH
_chemical_formula_sum              "C96 H60 N10 O4"
_cell_length_a       38.4625
_cell_length_b       38.4605
_cell_length_c       14.9066
_cell_angle_alpha    90
_cell_angle_beta     90
_cell_angle_gamma    89.9404

_space_group_name_H-M_alt    "P 1"
_space_group_IT_number       1

loop_
  _space_group_symop_operation_xyz
  'x, y, z'

loop_
  _atom_site_type_symbol
  _atom_site_label
  _atom_site_symmetry_multiplicity
  _atom_site_fract_x
  _atom_site_fract_y
  _atom_site_fract_z
  _atom_site_occupancy
  C   C1        1.0  0.15296  0.00407  0.28342  1.0000
  C   C2        1.0  0.18956  0.00364  0.28209  1.0000
  C   C3        1.0  0.30154  0.02392  0.30677  1.0000
  C   C4        1.0  0.26495  0.02377  0.30882  1.0000
  C   C5        1.0  0.00359  0.14974  0.28336  1.0000
  C   C6        1.0  0.00373  0.18635  0.28178  1.0000
  C   C7        1.0  0.98323  0.26168  0.31434  1.0000
  C   C8        1.0  0.98285  0.29828  0.31300  1.0000
  C   C9        1.0  0.82285  0.00126  0.28192  1.0000
  C   C10       1.0  0.85944  0.00046  0.28338  1.0000
  C   C11       1.0  0.74724  0.98217  0.31492  1.0000
  C   C12       1.0  0.71064  0.98240  0.31381  1.0000
  C   C13       1.0  0.00704  0.85632  0.28333  1.0000
  C   C14       1.0  0.00634  0.81972  0.28182  1.0000
  C   C15       1.0  0.02449  0.70725  0.30506  1.0000
  C   C16       1.0  0.02506  0.74384  0.30743  1.0000
  H   H1        1.0  0.04287  0.69455  0.26783  1.0000
  H   H2        1.0  0.04400  0.75646  0.27189  1.0000
  H   H3        1.0  0.00880  0.80748  0.22120  1.0000
  H   H4        1.0  0.01039  0.86958  0.22440  1.0000
  H   H5        1.0  0.87264  0.99558  0.22505  1.0000
  H   H6        1.0  0.81049  0.99731  0.22199  1.0000
  H   H7        1.0  0.99902  0.13644  0.22504  1.0000
  H   H8        1.0  0.99964  0.19862  0.22178  1.0000
  H   H9        1.0  0.96326  0.31074  0.27947  1.0000
  H   H10       1.0  0.96339  0.24868  0.28329  1.0000
  H   H11       1.0  0.25198  0.04257  0.27353  1.0000
  H   H12       1.0  0.31389  0.04265  0.26999  1.0000
  H   H13       1.0  0.20184  0.00637  0.22159  1.0000
  H   H14       1.0  0.13972  0.00755  0.22451  1.0000
  H   H15       1.0  0.75991  0.96206  0.28403  1.0000
  H   H16       1.0  0.69785  0.96296  0.28059  1.0000
  C   C17       1.0  0.00284  0.59527  0.30794  1.0000
  C   C18       1.0  0.99914  0.52116  0.32765  1.0000
  C   C19       1.0  0.99766  0.53654  0.24102  1.0000
  C   C20       1.0  0.99967  0.57319  0.23246  1.0000
  H   H17       1.0  0.99864  0.58378  0.16944  1.0000
  C   C21       1.0  0.99733  0.48435  0.34002  1.0000
  C   C22       1.0  0.01811  0.42534  0.30574  1.0000
  C   C23       1.0  0.02124  0.46170  0.29757  1.0000
  H   H18       1.0  0.03536  0.40987  0.27187  1.0000
  H   H19       1.0  0.04099  0.47155  0.25923  1.0000
  N   N1        1.0  0.99315  0.51525  0.16431  1.0000
  O   O1        1.0  0.01786  0.51865  0.10984  1.0000
  O   O2        1.0  0.96517  0.52203  0.12445  1.0000
  C   C24       1.0  0.00625  0.63102  0.29547  1.0000
  H   H20       1.0  0.01489  0.63943  0.23641  1.0000
  C   C25       1.0  0.41394  0.00427  0.31016  1.0000
  C   C26       1.0  0.48806  0.00091  0.33008  1.0000
  C   C27       1.0  0.47273  0.99951  0.24337  1.0000
  C   C28       1.0  0.43607  0.00137  0.23470  1.0000
  H   H21       1.0  0.42551  0.00034  0.17165  1.0000
  C   C29       1.0  0.52486  0.99895  0.34260  1.0000
  C   C30       1.0  0.58397  0.01932  0.30826  1.0000
  C   C31       1.0  0.54762  0.02270  0.30012  1.0000
  H   H22       1.0  0.59951  0.03642  0.27421  1.0000
  H   H23       1.0  0.53786  0.04251  0.26174  1.0000
  N   N2        1.0  0.49407  0.99516  0.16667  1.0000
  O   O3        1.0  0.49055  0.01992  0.11239  1.0000
  O   O4        1.0  0.48746  0.96719  0.12658  1.0000
  C   C32       1.0  0.37818  0.00737  0.29763  1.0000
  H   H24       1.0  0.36971  0.01644  0.23904  1.0000
  C   C33       1.0  0.06875  0.91140  0.36627  1.0000
  C   C34       1.0  0.09473  0.93615  0.36605  1.0000
  C   C35       1.0  0.07921  0.96902  0.36678  1.0000
  N   N3        1.0  0.04446  0.96291  0.36713  1.0000
  C   C36       1.0  0.03667  0.92851  0.36649  1.0000
  C   C37       1.0  0.00368  0.91171  0.36631  1.0000
  C   C38       1.0  0.97115  0.92928  0.36646  1.0000
  N   N4        1.0  0.96523  0.96396  0.36635  1.0000
  C   C39       1.0  0.93089  0.97155  0.36601  1.0000
  C   C40       1.0  0.91365  0.93960  0.36629  1.0000
  C   C41       1.0  0.93841  0.91360  0.36610  1.0000
  C   C42       1.0  0.91492  0.00490  0.36575  1.0000
  C   C43       1.0  0.93333  0.03703  0.36605  1.0000
  N   N5        1.0  0.96808  0.04314  0.36664  1.0000
  C   C44       1.0  0.97588  0.07755  0.36601  1.0000
  C   C45       1.0  0.94379  0.09464  0.36561  1.0000
  C   C46       1.0  0.91782  0.06990  0.36503  1.0000
  C   C47       1.0  0.00886  0.09438  0.36599  1.0000
  C   C48       1.0  0.04139  0.07680  0.36646  1.0000
  N   N6        1.0  0.04728  0.04212  0.36692  1.0000
  C   C49       1.0  0.08162  0.03451  0.36646  1.0000
  C   C50       1.0  0.09889  0.06644  0.36595  1.0000
  C   C51       1.0  0.07414  0.09246  0.36548  1.0000
  C   C52       1.0  0.09758  0.00116  0.36645  1.0000
  C   C53       1.0  0.13470  0.99997  0.36490  1.0000
  C   C54       1.0  0.20911  0.99894  0.36181  1.0000
  C   C55       1.0  0.19047  0.99453  0.44305  1.0000
  C   C56       1.0  0.15386  0.99517  0.44476  1.0000
  C   C57       1.0  0.24637  0.99900  0.36025  1.0000
  C   C58       1.0  0.26602  0.97458  0.41029  1.0000
  C   C59       1.0  0.30266  0.97470  0.40825  1.0000
  C   C60       1.0  0.32096  0.99904  0.35559  1.0000
  C   C61       1.0  0.00945  0.13154  0.36426  1.0000
  C   C62       1.0  0.01013  0.20591  0.36061  1.0000
  C   C63       1.0  0.01632  0.18741  0.44124  1.0000
  C   C64       1.0  0.01581  0.15080  0.44325  1.0000
  C   C65       1.0  0.00995  0.24312  0.35896  1.0000
  C   C66       1.0  0.00921  0.31761  0.35634  1.0000
  C   C67       1.0  0.03631  0.29930  0.39921  1.0000
  C   C68       1.0  0.03646  0.26266  0.40146  1.0000
  C   C69       1.0  0.87778  0.00613  0.36415  1.0000
  C   C70       1.0  0.85866  0.01294  0.44315  1.0000
  C   C71       1.0  0.82206  0.01413  0.44125  1.0000
  C   C72       1.0  0.80343  0.00814  0.36073  1.0000
  C   C73       1.0  0.76622  0.00863  0.35920  1.0000
  C   C74       1.0  0.69174  0.00914  0.35704  1.0000
  C   C75       1.0  0.71048  0.03599  0.39957  1.0000
  C   C76       1.0  0.74712  0.03553  0.40157  1.0000
  C   C77       1.0  0.00307  0.87457  0.36488  1.0000
  C   C78       1.0  0.99823  0.85539  0.44468  1.0000
  C   C79       1.0  0.00145  0.80016  0.36143  1.0000
  C   C80       1.0  0.99734  0.81879  0.44280  1.0000
  C   C81       1.0  0.00083  0.76289  0.35956  1.0000
  C   C82       1.0  0.97617  0.74368  0.40987  1.0000
  C   C83       1.0  0.97559  0.70705  0.40758  1.0000
  C   C84       1.0  0.99941  0.68830  0.35425  1.0000
  H   H25       1.0  0.95723  0.69411  0.44439  1.0000
  H   H26       1.0  0.95786  0.75625  0.44771  1.0000
  H   H27       1.0  0.99434  0.80581  0.50222  1.0000
  H   H28       1.0  0.99537  0.86797  0.50476  1.0000
  H   H29       1.0  0.07307  0.88518  0.36589  1.0000
  H   H30       1.0  0.12072  0.93056  0.36533  1.0000
  H   H31       1.0  0.02724  0.98099  0.36747  1.0000
  H   H32       1.0  0.98529  0.02506  0.36714  1.0000
  H   H33       1.0  0.93299  0.88759  0.36592  1.0000
  H   H34       1.0  0.88741  0.93543  0.36650  1.0000
  H   H35       1.0  0.87128  0.01700  0.50269  1.0000
  H   H36       1.0  0.80908  0.01861  0.50005  1.0000
  H   H37       1.0  0.89185  0.07553  0.36403  1.0000
  H   H38       1.0  0.93944  0.12086  0.36534  1.0000
  H   H39       1.0  0.12513  0.07059  0.36550  1.0000
  H   H40       1.0  0.07959  0.11846  0.36440  1.0000
  H   H41       1.0  0.02002  0.13827  0.50288  1.0000
  H   H42       1.0  0.02051  0.20050  0.50004  1.0000
  H   H43       1.0  0.05666  0.25034  0.43294  1.0000
  H   H44       1.0  0.05603  0.31258  0.43002  1.0000
  H   H45       1.0  0.14126  0.99235  0.50482  1.0000
  H   H46       1.0  0.20344  0.99171  0.50255  1.0000
  H   H47       1.0  0.31594  0.95648  0.44482  1.0000
  H   H48       1.0  0.25379  0.95593  0.44770  1.0000
  H   H49       1.0  0.75977  0.05554  0.43283  1.0000
  H   H50       1.0  0.69752  0.05597  0.43032  1.0000
  N   N7        1.0  0.35568  0.99799  0.35687  1.0000
  N   N8        1.0  0.99778  0.65361  0.35545  1.0000
  N   N9        1.0  0.65708  0.01086  0.35621  1.0000
  N   N10       1.0  0.01043  0.35229  0.35511  1.0000
  C   C85       1.0  0.00374  0.57959  0.39372  1.0000
  C   C86       1.0  0.00180  0.54323  0.40334  1.0000
  C   C87       1.0  0.97072  0.46944  0.39293  1.0000
  C   C88       1.0  0.96747  0.43311  0.40072  1.0000
  C   C89       1.0  0.99095  0.41038  0.35688  1.0000
  H   H51       1.0  0.95267  0.48495  0.42374  1.0000
  H   H52       1.0  0.94727  0.42338  0.43776  1.0000
  H   H53       1.0  0.00641  0.59449  0.45020  1.0000
  H   H54       1.0  0.00306  0.53289  0.46657  1.0000
  C   C90       1.0  0.98553  0.37463  0.36042  1.0000
  H   H55       1.0  0.96131  0.36609  0.36870  1.0000
  C   C91       1.0  0.42956  0.00519  0.39599  1.0000
  C   C92       1.0  0.46593  0.00341  0.40570  1.0000
  C   C93       1.0  0.53964  0.97225  0.39552  1.0000
  C   C94       1.0  0.57596  0.96874  0.40326  1.0000
  C   C95       1.0  0.59879  0.99203  0.35931  1.0000
  H   H56       1.0  0.52406  0.95430  0.42637  1.0000
  H   H57       1.0  0.58558  0.94846  0.44030  1.0000
  H   H58       1.0  0.41460  0.00767  0.45244  1.0000
  H   H59       1.0  0.47622  0.00458  0.46899  1.0000
  C   C96       1.0  0.63451  0.98626  0.36262  1.0000
  H   H60       1.0  0.64285  0.96198  0.37152  1.0000
