data_image0
_chemical_formula_structural       C4HCOC5HOCNCHNHC5HOC4HCOCNCNCNCNCNCNCNHCNHC4HC6HO2CNHCNHC6HOC2HOCNHCNHC4HC2HCNCNC2NCNC2HCHC4HC6HO2C4HC6HO2C4HC6HO2C4HC6HO2CNCHNHCNCHNHCNCHNHCNCHNHCNCHNHC4HCOC4HC6HO2C4HC4O2C5HOC8HO2C4HC6HO2CNCNCN2CNCNCNCNCNCNCNCNCNCNCNCNCNCNCNCNCNCNCNCNCN2CNCHNHCNCHNHCNCHNHCNCHNHC4HC6HO2C4HC6HO2C4HC6HO2C4HC6HO2C4HC6HO2CNHCNCHNHCNHNCNHNCNHCNCHNH
_chemical_formula_sum              "C252 H72 O36 N72"
_cell_length_a       59.0334
_cell_length_b       59.0334
_cell_length_c       14.82
_cell_angle_alpha    90
_cell_angle_beta     90
_cell_angle_gamma    120

_space_group_name_H-M_alt    "P 1"
_space_group_IT_number       1

loop_
  _space_group_symop_operation_xyz
  'x, y, z'

loop_
  _atom_site_type_symbol
  _atom_site_label
  _atom_site_symmetry_multiplicity
  _atom_site_fract_x
  _atom_site_fract_y
  _atom_site_fract_z
  _atom_site_occupancy
  C   C1        1.0  0.17629  0.46031  0.34209  1.0000
  C   C2        1.0  0.22369  0.45926  0.33915  1.0000
  C   C3        1.0  0.21149  0.45915  0.25619  1.0000
  C   C4        1.0  0.18777  0.45974  0.25910  1.0000
  H   H1        1.0  0.17901  0.46037  0.20030  1.0000
  C   C5        1.0  0.22363  0.45903  0.17402  1.0000
  O   O1        1.0  0.21275  0.45921  0.09370  1.0000
  C   C6        1.0  0.22369  0.77969  0.33916  1.0000
  C   C7        1.0  0.17631  0.73123  0.34204  1.0000
  C   C8        1.0  0.18777  0.74331  0.25907  1.0000
  C   C9        1.0  0.21149  0.76761  0.25619  1.0000
  C   C10       1.0  0.22364  0.77988  0.17403  1.0000
  H   H2        1.0  0.17902  0.73391  0.20026  1.0000
  O   O2        1.0  0.21276  0.76883  0.09370  1.0000
  C   C11       1.0  0.14424  0.62636  0.27097  1.0000
  N   N1        1.0  0.14504  0.60382  0.27563  1.0000
  C   C12       1.0  0.14426  0.53313  0.27101  1.0000
  H   H3        1.0  0.14374  0.63369  0.20899  1.0000
  N   N2        1.0  0.14504  0.55646  0.27565  1.0000
  H   H4        1.0  0.14372  0.52528  0.20904  1.0000
  C   C13       1.0  0.02703  0.39912  0.33804  1.0000
  C   C14       1.0  0.08230  0.42898  0.34124  1.0000
  C   C15       1.0  0.06874  0.42162  0.25820  1.0000
  C   C16       1.0  0.04105  0.40658  0.25512  1.0000
  C   C17       1.0  0.02696  0.39973  0.17294  1.0000
  H   H5        1.0  0.07915  0.42835  0.19951  1.0000
  O   O3        1.0  0.03962  0.40677  0.09266  1.0000
  C   C18       1.0  0.08231  0.66857  0.34110  1.0000
  C   C19       1.0  0.02705  0.64318  0.33798  1.0000
  C   C20       1.0  0.04106  0.64974  0.25503  1.0000
  C   C21       1.0  0.06875  0.66238  0.25806  1.0000
  H   H6        1.0  0.07916  0.66607  0.19937  1.0000
  C   C22       1.0  0.02696  0.64250  0.17287  1.0000
  O   O4        1.0  0.03962  0.64812  0.09257  1.0000
  C   C23       1.0  0.10891  0.44869  0.34406  1.0000
  N   N3        1.0  0.12930  0.44396  0.34242  1.0000
  C   C24       1.0  0.15453  0.46420  0.34449  1.0000
  N   N4        1.0  0.15911  0.48919  0.34687  1.0000
  C   C25       1.0  0.13898  0.49410  0.34762  1.0000
  N   N5        1.0  0.11409  0.47380  0.34646  1.0000
  C   C26       1.0  0.10892  0.67547  0.34395  1.0000
  N   N6        1.0  0.12931  0.70059  0.34234  1.0000
  C   C27       1.0  0.15454  0.70558  0.34444  1.0000
  N   N7        1.0  0.15912  0.68517  0.34682  1.0000
  C   C28       1.0  0.13899  0.66013  0.34756  1.0000
  N   N8        1.0  0.11410  0.65554  0.34636  1.0000
  C   C29       1.0  0.18947  0.46066  0.42196  1.0000
  N   N9        1.0  0.21218  0.46006  0.41779  1.0000
  H   H7        1.0  0.18245  0.46186  0.48374  1.0000
  C   C30       1.0  0.18948  0.74407  0.42194  1.0000
  N   N10       1.0  0.21218  0.76737  0.41779  1.0000
  H   H8        1.0  0.18246  0.73584  0.48370  1.0000
  C   C31       1.0  0.14315  0.63873  0.35086  1.0000
  C   C32       1.0  0.14492  0.59205  0.35471  1.0000
  C   C33       1.0  0.14388  0.60363  0.43761  1.0000
  C   C34       1.0  0.14292  0.62709  0.43426  1.0000
  H   H9        1.0  0.14141  0.63549  0.49271  1.0000
  C   C35       1.0  0.14492  0.56812  0.35472  1.0000
  C   C36       1.0  0.14315  0.51967  0.35091  1.0000
  C   C37       1.0  0.14294  0.53108  0.43431  1.0000
  C   C38       1.0  0.14388  0.55550  0.43764  1.0000
  C   C39       1.0  0.14316  0.56727  0.51989  1.0000
  C   C40       1.0  0.14316  0.59114  0.51989  1.0000
  H   H10       1.0  0.14139  0.52117  0.49276  1.0000
  O   O5        1.0  0.14206  0.55573  0.60007  1.0000
  O   O6        1.0  0.14205  0.60159  0.60005  1.0000
  C   C41       1.0  0.06724  0.42108  0.42105  1.0000
  N   N11       1.0  0.04073  0.40675  0.41676  1.0000
  H   H11       1.0  0.07593  0.42697  0.48287  1.0000
  C   C42       1.0  0.06727  0.66145  0.42096  1.0000
  N   N12       1.0  0.04075  0.64926  0.41668  1.0000
  H   H12       1.0  0.07596  0.66422  0.48276  1.0000
  C   C43       1.0  0.24771  0.45925  0.33913  1.0000
  C   C44       1.0  0.24752  0.45902  0.17399  1.0000
  C   C45       1.0  0.24771  0.80371  0.33916  1.0000
  C   C46       1.0  0.24752  0.80377  0.17403  1.0000
  C   C47       1.0  0.28409  0.45971  0.25900  1.0000
  C   C48       1.0  0.25978  0.45914  0.25615  1.0000
  H   H13       1.0  0.29348  0.46037  0.20018  1.0000
  O   O7        1.0  0.25857  0.45920  0.09366  1.0000
  C   C49       1.0  0.25979  0.81592  0.25619  1.0000
  C   C50       1.0  0.28410  0.83963  0.25908  1.0000
  H   H14       1.0  0.29349  0.84839  0.20026  1.0000
  O   O8        1.0  0.25858  0.81465  0.09370  1.0000
  C   C51       1.0  0.28332  0.46063  0.42188  1.0000
  N   N13       1.0  0.26003  0.46005  0.41775  1.0000
  H   H15       1.0  0.29156  0.46185  0.48364  1.0000
  C   C52       1.0  0.28333  0.83793  0.42194  1.0000
  N   N14       1.0  0.26004  0.81523  0.41779  1.0000
  H   H16       1.0  0.29156  0.84496  0.48371  1.0000
  C   C53       1.0  0.29616  0.46031  0.34196  1.0000
  C   C54       1.0  0.29616  0.85110  0.34204  1.0000
  C   C55       1.0  0.35886  0.94510  0.34130  1.0000
  C   C56       1.0  0.36503  0.95864  0.25821  1.0000
  H   H17       1.0  0.36137  0.94823  0.19953  1.0000
  C   C57       1.0  0.35884  0.42900  0.34136  1.0000
  C   C58       1.0  0.36505  0.42167  0.25827  1.0000
  H   H18       1.0  0.36133  0.42837  0.19959  1.0000
  C   C59       1.0  0.35195  0.91848  0.34400  1.0000
  N   N15       1.0  0.32682  0.89810  0.34240  1.0000
  C   C60       1.0  0.32182  0.87287  0.34444  1.0000
  N   N16       1.0  0.34222  0.86828  0.34682  1.0000
  C   C61       1.0  0.36727  0.88840  0.34757  1.0000
  C   C62       1.0  0.35193  0.44871  0.34400  1.0000
  N   N17       1.0  0.32681  0.44397  0.34236  1.0000
  C   C63       1.0  0.32181  0.46420  0.34434  1.0000
  N   N18       1.0  0.34221  0.48919  0.34670  1.0000
  C   C64       1.0  0.36726  0.49411  0.34748  1.0000
  C   C65       1.0  0.36595  0.96014  0.42113  1.0000
  H   H19       1.0  0.36314  0.95145  0.48295  1.0000
  C   C66       1.0  0.36599  0.42109  0.42115  1.0000
  H   H20       1.0  0.36316  0.42694  0.48298  1.0000
  C   C67       1.0  0.56713  0.73124  0.34204  1.0000
  C   C68       1.0  0.56815  0.77968  0.33916  1.0000
  C   C69       1.0  0.56827  0.76760  0.25619  1.0000
  C   C70       1.0  0.56769  0.74330  0.25909  1.0000
  H   H21       1.0  0.56705  0.73390  0.20028  1.0000
  C   C71       1.0  0.56814  0.80370  0.33916  1.0000
  C   C72       1.0  0.56712  0.85111  0.34204  1.0000
  C   C73       1.0  0.56768  0.83962  0.25908  1.0000
  C   C74       1.0  0.56826  0.81590  0.25619  1.0000
  C   C75       1.0  0.56837  0.80374  0.17403  1.0000
  C   C76       1.0  0.56838  0.77986  0.17404  1.0000
  H   H22       1.0  0.56704  0.84837  0.20026  1.0000
  O   O9        1.0  0.56819  0.81462  0.09370  1.0000
  O   O10       1.0  0.56820  0.76880  0.09370  1.0000
  C   C77       1.0  0.85006  0.56810  0.34201  1.0000
  C   C78       1.0  0.80266  0.56914  0.33913  1.0000
  C   C79       1.0  0.81487  0.56928  0.25616  1.0000
  C   C80       1.0  0.83859  0.56870  0.25906  1.0000
  H   H23       1.0  0.84735  0.56807  0.20024  1.0000
  C   C81       1.0  0.77864  0.56915  0.33912  1.0000
  C   C82       1.0  0.73019  0.56810  0.34198  1.0000
  C   C83       1.0  0.74227  0.56870  0.25904  1.0000
  C   C84       1.0  0.76657  0.56928  0.25615  1.0000
  C   C85       1.0  0.77884  0.56941  0.17399  1.0000
  C   C86       1.0  0.80273  0.56941  0.17399  1.0000
  H   H24       1.0  0.73288  0.56808  0.20022  1.0000
  O   O11       1.0  0.76780  0.56925  0.09366  1.0000
  O   O12       1.0  0.81362  0.56925  0.09367  1.0000
  C   C87       1.0  0.45928  0.29720  0.34209  1.0000
  C   C88       1.0  0.45822  0.24874  0.33916  1.0000
  C   C89       1.0  0.45811  0.26083  0.25619  1.0000
  C   C90       1.0  0.45870  0.28514  0.25911  1.0000
  H   H25       1.0  0.45933  0.29453  0.20030  1.0000
  C   C91       1.0  0.45822  0.22472  0.33913  1.0000
  C   C92       1.0  0.45927  0.17733  0.34197  1.0000
  C   C93       1.0  0.45867  0.18880  0.25901  1.0000
  C   C94       1.0  0.45810  0.21252  0.25615  1.0000
  C   C95       1.0  0.45799  0.22468  0.17400  1.0000
  C   C96       1.0  0.45799  0.24857  0.17402  1.0000
  H   H26       1.0  0.45932  0.18006  0.20019  1.0000
  O   O13       1.0  0.45816  0.21381  0.09366  1.0000
  O   O14       1.0  0.45817  0.25963  0.09370  1.0000
  C   C97       1.0  0.73020  0.17729  0.34203  1.0000
  C   C98       1.0  0.77863  0.22471  0.33914  1.0000
  C   C99       1.0  0.76655  0.21251  0.25617  1.0000
  C   C100      1.0  0.74225  0.18878  0.25907  1.0000
  H   H27       1.0  0.73286  0.18002  0.20026  1.0000
  C   C101      1.0  0.80265  0.24873  0.33913  1.0000
  C   C102      1.0  0.85006  0.29718  0.34199  1.0000
  C   C103      1.0  0.83857  0.28512  0.25904  1.0000
  C   C104      1.0  0.81485  0.26081  0.25615  1.0000
  C   C105      1.0  0.80269  0.24855  0.17399  1.0000
  C   C106      1.0  0.77881  0.22466  0.17400  1.0000
  H   H28       1.0  0.84732  0.29451  0.20022  1.0000
  O   O15       1.0  0.81357  0.25960  0.09366  1.0000
  O   O16       1.0  0.76776  0.21378  0.09368  1.0000
  C   C107      1.0  0.40102  0.53315  0.27095  1.0000
  N   N19       1.0  0.42357  0.55647  0.27563  1.0000
  C   C108      1.0  0.49426  0.62638  0.27103  1.0000
  H   H29       1.0  0.39371  0.52531  0.20897  1.0000
  N   N20       1.0  0.47093  0.60384  0.27566  1.0000
  H   H30       1.0  0.50211  0.63371  0.20906  1.0000
  C   C109      1.0  0.49426  0.88313  0.27094  1.0000
  N   N21       1.0  0.47093  0.88233  0.27561  1.0000
  C   C110      1.0  0.40102  0.88311  0.27100  1.0000
  H   H31       1.0  0.50209  0.88362  0.20896  1.0000
  N   N22       1.0  0.42356  0.88233  0.27564  1.0000
  H   H32       1.0  0.39370  0.88365  0.20903  1.0000
  C   C111      1.0  0.88208  0.40205  0.27097  1.0000
  N   N23       1.0  0.88131  0.42459  0.27564  1.0000
  C   C112      1.0  0.88213  0.49530  0.27103  1.0000
  H   H33       1.0  0.88262  0.39473  0.20899  1.0000
  N   N24       1.0  0.88133  0.47197  0.27568  1.0000
  H   H34       1.0  0.88264  0.50315  0.20907  1.0000
  C   C113      1.0  0.62532  0.49530  0.27100  1.0000
  N   N25       1.0  0.60279  0.47196  0.27566  1.0000
  C   C114      1.0  0.53209  0.40206  0.27101  1.0000
  H   H35       1.0  0.63266  0.50313  0.20903  1.0000
  N   N26       1.0  0.55542  0.42460  0.27567  1.0000
  H   H36       1.0  0.52424  0.39474  0.20904  1.0000
  C   C115      1.0  0.53210  0.14529  0.27095  1.0000
  N   N27       1.0  0.55542  0.14607  0.27561  1.0000
  C   C116      1.0  0.62533  0.14528  0.27102  1.0000
  H   H37       1.0  0.52425  0.14475  0.20896  1.0000
  N   N28       1.0  0.60279  0.14607  0.27565  1.0000
  H   H38       1.0  0.63266  0.14477  0.20906  1.0000
  C   C117      1.0  0.94404  0.35985  0.34132  1.0000
  C   C118      1.0  0.99932  0.38527  0.33806  1.0000
  C   C119      1.0  0.98529  0.37871  0.25515  1.0000
  C   C120      1.0  0.95760  0.36609  0.25826  1.0000
  H   H39       1.0  0.94719  0.36236  0.19957  1.0000
  C   C121      1.0  0.99938  0.38595  0.17296  1.0000
  O   O17       1.0  0.98671  0.38033  0.09269  1.0000
  C   C122      1.0  0.66753  0.59944  0.34112  1.0000
  C   C123      1.0  0.64214  0.62930  0.33796  1.0000
  C   C124      1.0  0.64872  0.62187  0.25502  1.0000
  C   C125      1.0  0.66136  0.60682  0.25808  1.0000
  H   H40       1.0  0.66507  0.60011  0.19939  1.0000
  C   C126      1.0  0.62827  0.64316  0.33798  1.0000
  C   C127      1.0  0.59839  0.66851  0.34124  1.0000
  C   C128      1.0  0.60577  0.66237  0.25814  1.0000
  C   C129      1.0  0.62083  0.64974  0.25506  1.0000
  C   C130      1.0  0.62771  0.64253  0.17287  1.0000
  C   C131      1.0  0.64150  0.62875  0.17285  1.0000
  H   H41       1.0  0.59906  0.66608  0.19947  1.0000
  O   O18       1.0  0.62067  0.64816  0.09260  1.0000
  O   O19       1.0  0.64714  0.62172  0.09256  1.0000
  C   C132      1.0  0.42794  0.08333  0.34136  1.0000
  C   C133      1.0  0.39808  0.02806  0.33809  1.0000
  C   C134      1.0  0.40555  0.04209  0.25518  1.0000
  C   C135      1.0  0.42062  0.06978  0.25828  1.0000
  H   H42       1.0  0.42733  0.08019  0.19959  1.0000
  C   C136      1.0  0.38421  0.00035  0.33808  1.0000
  C   C137      1.0  0.37767  0.98633  0.25516  1.0000
  C   C138      1.0  0.38493  0.00042  0.17298  1.0000
  C   C139      1.0  0.39872  0.02800  0.17299  1.0000
  O   O20       1.0  0.37932  0.98776  0.09269  1.0000
  O   O21       1.0  0.40579  0.04067  0.09272  1.0000
  C   C140      1.0  0.99933  0.62932  0.33802  1.0000
  C   C141      1.0  0.94406  0.59946  0.34133  1.0000
  C   C142      1.0  0.95761  0.60681  0.25825  1.0000
  C   C143      1.0  0.98530  0.62186  0.25512  1.0000
  C   C144      1.0  0.99938  0.62871  0.17292  1.0000
  H   H43       1.0  0.94719  0.60009  0.19958  1.0000
  O   O22       1.0  0.98670  0.62166  0.09266  1.0000
  C   C145      1.0  0.38423  0.39913  0.33808  1.0000
  C   C146      1.0  0.37767  0.40660  0.25516  1.0000
  C   C147      1.0  0.39808  0.38526  0.33806  1.0000
  C   C148      1.0  0.42794  0.35985  0.34124  1.0000
  C   C149      1.0  0.42058  0.36605  0.25820  1.0000
  C   C150      1.0  0.40554  0.37871  0.25513  1.0000
  C   C151      1.0  0.39870  0.38595  0.17296  1.0000
  C   C152      1.0  0.38491  0.39975  0.17297  1.0000
  H   H44       1.0  0.42731  0.36238  0.19951  1.0000
  O   O23       1.0  0.40574  0.38034  0.09267  1.0000
  O   O24       1.0  0.37930  0.40681  0.09271  1.0000
  C   C153      1.0  0.59839  0.94510  0.34119  1.0000
  C   C154      1.0  0.62827  0.00034  0.33799  1.0000
  C   C155      1.0  0.62083  0.98632  0.25506  1.0000
  C   C156      1.0  0.60577  0.95863  0.25812  1.0000
  H   H45       1.0  0.59906  0.94822  0.19945  1.0000
  C   C157      1.0  0.64213  0.02806  0.33800  1.0000
  C   C158      1.0  0.66748  0.08331  0.34123  1.0000
  C   C159      1.0  0.66133  0.06977  0.25815  1.0000
  C   C160      1.0  0.64870  0.04208  0.25507  1.0000
  C   C161      1.0  0.64148  0.02800  0.17289  1.0000
  C   C162      1.0  0.62769  0.00041  0.17288  1.0000
  H   H46       1.0  0.66503  0.08019  0.19947  1.0000
  O   O25       1.0  0.64711  0.04066  0.09261  1.0000
  O   O26       1.0  0.62066  0.98775  0.09260  1.0000
  C   C163      1.0  0.57869  0.67544  0.34406  1.0000
  N   N29       1.0  0.58344  0.70057  0.34242  1.0000
  C   C164      1.0  0.56322  0.70558  0.34449  1.0000
  N   N30       1.0  0.53822  0.68519  0.34688  1.0000
  C   C165      1.0  0.53329  0.66014  0.34765  1.0000
  N   N31       1.0  0.55357  0.65552  0.34648  1.0000
  N   N32       1.0  0.37187  0.91330  0.34643  1.0000
  C   C166      1.0  0.91745  0.57974  0.34404  1.0000
  N   N33       1.0  0.89706  0.58446  0.34242  1.0000
  C   C167      1.0  0.87183  0.56422  0.34448  1.0000
  N   N34       1.0  0.86726  0.53923  0.34686  1.0000
  C   C168      1.0  0.88739  0.53433  0.34763  1.0000
  N   N35       1.0  0.91228  0.55463  0.34648  1.0000
  C   C169      1.0  0.44765  0.35296  0.34406  1.0000
  N   N36       1.0  0.44293  0.32784  0.34242  1.0000
  C   C170      1.0  0.46317  0.32285  0.34449  1.0000
  N   N37       1.0  0.48815  0.34326  0.34687  1.0000
  C   C171      1.0  0.49306  0.36830  0.34762  1.0000
  N   N38       1.0  0.47277  0.37289  0.34646  1.0000
  C   C172      1.0  0.67440  0.10993  0.34406  1.0000
  N   N39       1.0  0.69953  0.13030  0.34241  1.0000
  C   C173      1.0  0.70453  0.15554  0.34449  1.0000
  N   N40       1.0  0.68414  0.16014  0.34687  1.0000
  C   C174      1.0  0.65909  0.14002  0.34763  1.0000
  N   N41       1.0  0.65448  0.11512  0.34648  1.0000
  C   C175      1.0  0.44766  0.10994  0.34400  1.0000
  N   N42       1.0  0.44292  0.13033  0.34237  1.0000
  C   C176      1.0  0.46316  0.15556  0.34435  1.0000
  N   N43       1.0  0.48815  0.16015  0.34670  1.0000
  C   C177      1.0  0.49306  0.14001  0.34748  1.0000
  N   N44       1.0  0.47277  0.11512  0.34640  1.0000
  C   C178      1.0  0.67443  0.57973  0.34397  1.0000
  N   N45       1.0  0.69955  0.58445  0.34234  1.0000
  C   C179      1.0  0.70454  0.56421  0.34445  1.0000
  N   N46       1.0  0.68413  0.53923  0.34684  1.0000
  C   C180      1.0  0.65909  0.53432  0.34760  1.0000
  N   N47       1.0  0.65450  0.55462  0.34641  1.0000
  C   C181      1.0  0.91743  0.35296  0.34402  1.0000
  N   N48       1.0  0.89705  0.32783  0.34238  1.0000
  C   C182      1.0  0.87181  0.32284  0.34439  1.0000
  N   N49       1.0  0.86723  0.34324  0.34673  1.0000
  C   C183      1.0  0.88736  0.36828  0.34749  1.0000
  N   N50       1.0  0.91225  0.37289  0.34640  1.0000
  C   C184      1.0  0.57869  0.91848  0.34401  1.0000
  N   N51       1.0  0.58344  0.89810  0.34239  1.0000
  C   C185      1.0  0.56321  0.87286  0.34444  1.0000
  N   N52       1.0  0.53821  0.86827  0.34679  1.0000
  C   C186      1.0  0.53329  0.88839  0.34753  1.0000
  N   N53       1.0  0.55357  0.91329  0.34639  1.0000
  N   N54       1.0  0.37186  0.47382  0.34640  1.0000
  C   C187      1.0  0.56678  0.74407  0.42194  1.0000
  N   N55       1.0  0.56735  0.76736  0.41779  1.0000
  C   C188      1.0  0.56676  0.83793  0.42193  1.0000
  H   H47       1.0  0.56555  0.73583  0.48370  1.0000
  N   N56       1.0  0.56734  0.81522  0.41779  1.0000
  H   H48       1.0  0.56555  0.84494  0.48370  1.0000
  C   C189      1.0  0.83689  0.56775  0.42191  1.0000
  N   N57       1.0  0.81417  0.56833  0.41776  1.0000
  C   C190      1.0  0.74302  0.56774  0.42189  1.0000
  H   H49       1.0  0.84389  0.56651  0.48368  1.0000
  N   N58       1.0  0.76631  0.56832  0.41775  1.0000
  H   H50       1.0  0.73478  0.56652  0.48365  1.0000
  C   C191      1.0  0.45962  0.28436  0.42196  1.0000
  N   N59       1.0  0.45903  0.26106  0.41779  1.0000
  C   C192      1.0  0.45960  0.19049  0.42188  1.0000
  H   H51       1.0  0.46082  0.29258  0.48374  1.0000
  N   N60       1.0  0.45901  0.21319  0.41775  1.0000
  H   H52       1.0  0.46080  0.18346  0.48364  1.0000
  C   C193      1.0  0.74303  0.19048  0.42192  1.0000
  N   N61       1.0  0.76631  0.21319  0.41777  1.0000
  C   C194      1.0  0.83687  0.28435  0.42188  1.0000
  H   H53       1.0  0.73479  0.18347  0.48369  1.0000
  N   N62       1.0  0.81417  0.26106  0.41775  1.0000
  H   H54       1.0  0.84389  0.29259  0.48365  1.0000
  C   C195      1.0  0.38865  0.51968  0.35084  1.0000
  C   C196      1.0  0.43535  0.56813  0.35470  1.0000
  C   C197      1.0  0.42376  0.55549  0.43760  1.0000
  C   C198      1.0  0.40029  0.53108  0.43423  1.0000
  H   H55       1.0  0.39191  0.52116  0.49267  1.0000
  C   C199      1.0  0.45927  0.59205  0.35472  1.0000
  C   C200      1.0  0.50772  0.63875  0.35093  1.0000
  C   C201      1.0  0.49631  0.62710  0.43431  1.0000
  C   C202      1.0  0.47189  0.60363  0.43764  1.0000
  C   C203      1.0  0.46012  0.59113  0.51989  1.0000
  C   C204      1.0  0.43625  0.56726  0.51987  1.0000
  H   H56       1.0  0.50622  0.63547  0.49277  1.0000
  O   O27       1.0  0.47167  0.60157  0.60007  1.0000
  O   O28       1.0  0.42581  0.55570  0.60003  1.0000
  C   C205      1.0  0.50772  0.88421  0.35082  1.0000
  C   C206      1.0  0.45927  0.88246  0.35468  1.0000
  C   C207      1.0  0.47190  0.88350  0.43758  1.0000
  C   C208      1.0  0.49632  0.88446  0.43422  1.0000
  H   H57       1.0  0.50623  0.88598  0.49267  1.0000
  C   C209      1.0  0.43534  0.88245  0.35470  1.0000
  C   C210      1.0  0.38865  0.88421  0.35090  1.0000
  C   C211      1.0  0.40030  0.88445  0.43429  1.0000
  C   C212      1.0  0.42377  0.88350  0.43761  1.0000
  C   C213      1.0  0.43627  0.88423  0.51987  1.0000
  C   C214      1.0  0.46014  0.88423  0.51985  1.0000
  H   H58       1.0  0.39193  0.88600  0.49274  1.0000
  O   O29       1.0  0.42583  0.88534  0.60005  1.0000
  O   O30       1.0  0.47169  0.88534  0.60002  1.0000
  C   C215      1.0  0.88318  0.38968  0.35086  1.0000
  C   C216      1.0  0.88144  0.43638  0.35472  1.0000
  C   C217      1.0  0.88247  0.42478  0.43761  1.0000
  C   C218      1.0  0.88341  0.40131  0.43426  1.0000
  H   H59       1.0  0.88495  0.39293  0.49270  1.0000
  C   C219      1.0  0.88145  0.46031  0.35473  1.0000
  C   C220      1.0  0.88323  0.50877  0.35095  1.0000
  C   C221      1.0  0.88345  0.49735  0.43433  1.0000
  C   C222      1.0  0.88249  0.47293  0.43765  1.0000
  C   C223      1.0  0.88321  0.46115  0.51991  1.0000
  C   C224      1.0  0.88320  0.43727  0.51989  1.0000
  H   H60       1.0  0.88498  0.50726  0.49279  1.0000
  O   O31       1.0  0.88432  0.47270  0.60009  1.0000
  O   O32       1.0  0.88430  0.42683  0.60005  1.0000
  C   C225      1.0  0.63769  0.50876  0.35090  1.0000
  C   C226      1.0  0.59101  0.46030  0.35473  1.0000
  C   C227      1.0  0.60259  0.47293  0.43764  1.0000
  C   C228      1.0  0.62606  0.49735  0.43430  1.0000
  H   H61       1.0  0.63445  0.50725  0.49275  1.0000
  C   C229      1.0  0.56708  0.43638  0.35474  1.0000
  C   C230      1.0  0.51863  0.38970  0.35091  1.0000
  C   C231      1.0  0.53004  0.40132  0.43431  1.0000
  C   C232      1.0  0.55446  0.42479  0.43765  1.0000
  C   C233      1.0  0.56623  0.43728  0.51991  1.0000
  C   C234      1.0  0.59010  0.46116  0.51991  1.0000
  H   H62       1.0  0.52013  0.39295  0.49277  1.0000
  O   O33       1.0  0.55469  0.42684  0.60009  1.0000
  O   O34       1.0  0.60055  0.47271  0.60008  1.0000
  C   C235      1.0  0.51863  0.14419  0.35083  1.0000
  C   C236      1.0  0.56708  0.14594  0.35469  1.0000
  C   C237      1.0  0.55445  0.14490  0.43759  1.0000
  C   C238      1.0  0.53003  0.14395  0.43422  1.0000
  H   H63       1.0  0.52011  0.14242  0.49267  1.0000
  C   C239      1.0  0.59100  0.14595  0.35471  1.0000
  C   C240      1.0  0.63771  0.14421  0.35092  1.0000
  C   C241      1.0  0.62605  0.14396  0.43430  1.0000
  C   C242      1.0  0.60259  0.14491  0.43763  1.0000
  C   C243      1.0  0.59008  0.14418  0.51989  1.0000
  C   C244      1.0  0.56621  0.14418  0.51987  1.0000
  H   H64       1.0  0.63443  0.14243  0.49276  1.0000
  O   O35       1.0  0.60052  0.14307  0.60006  1.0000
  O   O36       1.0  0.55466  0.14307  0.60003  1.0000
  C   C245      1.0  0.95911  0.36703  0.42110  1.0000
  N   N63       1.0  0.98563  0.37920  0.41679  1.0000
  H   H65       1.0  0.95043  0.36421  0.48293  1.0000
  C   C246      1.0  0.66039  0.60734  0.42097  1.0000
  N   N64       1.0  0.64820  0.62167  0.41667  1.0000
  C   C247      1.0  0.60629  0.66137  0.42106  1.0000
  H   H66       1.0  0.66315  0.60142  0.48277  1.0000
  N   N65       1.0  0.62064  0.64921  0.41672  1.0000
  H   H67       1.0  0.60040  0.66416  0.48287  1.0000
  C   C248      1.0  0.42002  0.06827  0.42115  1.0000
  N   N66       1.0  0.40567  0.04176  0.41683  1.0000
  H   H68       1.0  0.42587  0.07696  0.48298  1.0000
  N   N67       1.0  0.37812  0.98665  0.41682  1.0000
  C   C249      1.0  0.95914  0.60736  0.42110  1.0000
  N   N68       1.0  0.98565  0.62170  0.41676  1.0000
  H   H69       1.0  0.95046  0.60148  0.48292  1.0000
  N   N69       1.0  0.37815  0.40674  0.41682  1.0000
  C   C250      1.0  0.42005  0.36702  0.42105  1.0000
  N   N70       1.0  0.40570  0.37918  0.41677  1.0000
  H   H70       1.0  0.42591  0.36419  0.48287  1.0000
  C   C251      1.0  0.60632  0.96013  0.42105  1.0000
  N   N71       1.0  0.62065  0.98665  0.41672  1.0000
  C   C252      1.0  0.66035  0.06826  0.42107  1.0000
  H   H71       1.0  0.60040  0.95145  0.48285  1.0000
  N   N72       1.0  0.64819  0.04175  0.41673  1.0000
  H   H72       1.0  0.66314  0.07695  0.48287  1.0000
