data_image0
_chemical_formula_structural       C2H8C2H8C3H2NHC3H2NHC3H2NHC28H16CHCHCHC28H16CHCHCHC3HNH2NHC3HNH2NHC3HNH2NH
_chemical_formula_sum              "C84 H75 N9"
_cell_length_a       44.9465
_cell_length_b       44.9417
_cell_length_c       14.9995
_cell_angle_alpha    90
_cell_angle_beta     90
_cell_angle_gamma    120.001

_space_group_name_H-M_alt    "P 1"
_space_group_IT_number       1

loop_
  _space_group_symop_operation_xyz
  'x, y, z'

loop_
  _atom_site_type_symbol
  _atom_site_label
  _atom_site_symmetry_multiplicity
  _atom_site_fract_x
  _atom_site_fract_y
  _atom_site_fract_z
  _atom_site_occupancy
  C   C1        1.0  0.38624  0.81874  0.31822  1.0000
  C   C2        1.0  0.40810  0.85443  0.32768  1.0000
  H   H1        1.0  0.39729  0.86973  0.32894  1.0000
  H   H2        1.0  0.36029  0.80926  0.31391  1.0000
  H   H3        1.0  0.47245  0.60272  0.32892  1.0000
  H   H4        1.0  0.13029  0.52755  0.32894  1.0000
  H   H5        1.0  0.19075  0.55101  0.31395  1.0000
  H   H6        1.0  0.08527  0.57026  0.28682  1.0000
  H   H7        1.0  0.42975  0.51498  0.28684  1.0000
  H   H8        1.0  0.48503  0.91477  0.28687  1.0000
  C   C3        1.0  0.61238  0.18119  0.34874  1.0000
  C   C4        1.0  0.59038  0.14548  0.34094  1.0000
  H   H9        1.0  0.60103  0.13004  0.34293  1.0000
  H   H10       1.0  0.63824  0.19052  0.35537  1.0000
  H   H11       1.0  0.52904  0.39900  0.34295  1.0000
  H   H12       1.0  0.87003  0.47102  0.34294  1.0000
  H   H13       1.0  0.80954  0.44775  0.35538  1.0000
  H   H14       1.0  0.91069  0.42576  0.26102  1.0000
  H   H15       1.0  0.57427  0.48493  0.26101  1.0000
  H   H16       1.0  0.51511  0.08935  0.26103  1.0000
  C   C5        1.0  0.50483  0.52391  0.27411  1.0000
  C   C6        1.0  0.51755  0.50129  0.26253  1.0000
  C   C7        1.0  0.51383  0.47813  0.33086  1.0000
  H   H17       1.0  0.50742  0.54021  0.22321  1.0000
  H   H18       1.0  0.52919  0.50147  0.20379  1.0000
  N   N1        1.0  0.52586  0.45459  0.32221  1.0000
  H   H19       1.0  0.51562  0.44030  0.26535  1.0000
  C   C8        1.0  0.47611  0.98093  0.27414  1.0000
  C   C9        1.0  0.49873  0.01627  0.26256  1.0000
  C   C10       1.0  0.52189  0.03571  0.33089  1.0000
  H   H20       1.0  0.45981  0.96722  0.22324  1.0000
  H   H21       1.0  0.49855  0.02772  0.20381  1.0000
  N   N2        1.0  0.54544  0.07128  0.32222  1.0000
  H   H22       1.0  0.55973  0.07532  0.26535  1.0000
  C   C11       1.0  0.01911  0.49518  0.27412  1.0000
  C   C12       1.0  0.98377  0.48247  0.26254  1.0000
  C   C13       1.0  0.96434  0.48620  0.33086  1.0000
  H   H23       1.0  0.03281  0.49259  0.22323  1.0000
  H   H24       1.0  0.97232  0.47083  0.20380  1.0000
  N   N3        1.0  0.92877  0.47418  0.32220  1.0000
  H   H25       1.0  0.92473  0.48442  0.26532  1.0000
  C   C14       1.0  0.44411  0.86876  0.33510  1.0000
  C   C15       1.0  0.45753  0.84625  0.33075  1.0000
  C   C16       1.0  0.43575  0.81058  0.32144  1.0000
  C   C17       1.0  0.39974  0.79631  0.31630  1.0000
  C   C18       1.0  0.37772  0.76115  0.30816  1.0000
  C   C19       1.0  0.37821  0.73798  0.36400  1.0000
  C   C20       1.0  0.35587  0.70283  0.35790  1.0000
  C   C21       1.0  0.31985  0.68893  0.35858  1.0000
  C   C22       1.0  0.29718  0.65303  0.35801  1.0000
  C   C23       1.0  0.31108  0.63090  0.35864  1.0000
  C   C24       1.0  0.34697  0.64414  0.35800  1.0000
  C   C25       1.0  0.36910  0.68016  0.35855  1.0000
  C   C26       1.0  0.35978  0.62179  0.36410  1.0000
  C   C27       1.0  0.38344  0.62228  0.30826  1.0000
  C   C28       1.0  0.39659  0.60027  0.31638  1.0000
  C   C29       1.0  0.43251  0.61377  0.31830  1.0000
  C   C30       1.0  0.37485  0.56425  0.32154  1.0000
  C   C31       1.0  0.38873  0.54247  0.33080  1.0000
  C   C32       1.0  0.42466  0.55589  0.33512  1.0000
  C   C33       1.0  0.44633  0.59191  0.32770  1.0000
  C   C34       1.0  0.26204  0.64022  0.36412  1.0000
  C   C35       1.0  0.23886  0.61655  0.30828  1.0000
  C   C36       1.0  0.20371  0.60341  0.31640  1.0000
  C   C37       1.0  0.18944  0.62516  0.32154  1.0000
  C   C38       1.0  0.18128  0.56748  0.31832  1.0000
  C   C39       1.0  0.14560  0.55367  0.32771  1.0000
  C   C40       1.0  0.13127  0.57535  0.33514  1.0000
  C   C41       1.0  0.15378  0.61128  0.33080  1.0000
  H   H26       1.0  0.48347  0.85573  0.33494  1.0000
  H   H27       1.0  0.44644  0.79514  0.31870  1.0000
  H   H28       1.0  0.39517  0.69000  0.36114  1.0000
  H   H29       1.0  0.31001  0.70517  0.36115  1.0000
  H   H30       1.0  0.29484  0.60483  0.36125  1.0000
  H   H31       1.0  0.20489  0.65130  0.31880  1.0000
  H   H32       1.0  0.44899  0.63973  0.31392  1.0000
  H   H33       1.0  0.37227  0.51653  0.33500  1.0000
  H   H34       1.0  0.34871  0.55356  0.31881  1.0000
  H   H35       1.0  0.14431  0.62775  0.33498  1.0000
  H   H36       1.0  0.39308  0.63996  0.26032  1.0000
  H   H37       1.0  0.35040  0.60429  0.41249  1.0000
  H   H38       1.0  0.36004  0.75312  0.26027  1.0000
  H   H39       1.0  0.39573  0.74609  0.41236  1.0000
  H   H40       1.0  0.24690  0.60691  0.26036  1.0000
  H   H41       1.0  0.25392  0.64962  0.41248  1.0000
  C   C42       1.0  0.09377  0.56231  0.34599  1.0000
  H   H42       1.0  0.09032  0.57517  0.40365  1.0000
  C   C43       1.0  0.43770  0.53144  0.34600  1.0000
  H   H43       1.0  0.42485  0.51514  0.40367  1.0000
  C   C44       1.0  0.46857  0.90626  0.34602  1.0000
  H   H44       1.0  0.48486  0.90970  0.40369  1.0000
  C   C45       1.0  0.55448  0.13129  0.33087  1.0000
  C   C46       1.0  0.54132  0.15405  0.33028  1.0000
  C   C47       1.0  0.56323  0.18976  0.33825  1.0000
  C   C48       1.0  0.59914  0.20384  0.34650  1.0000
  C   C49       1.0  0.62131  0.23901  0.35412  1.0000
  C   C50       1.0  0.62132  0.26217  0.29734  1.0000
  C   C51       1.0  0.64390  0.29727  0.30328  1.0000
  C   C52       1.0  0.67987  0.31083  0.30272  1.0000
  C   C53       1.0  0.70280  0.34667  0.30332  1.0000
  C   C54       1.0  0.68924  0.36908  0.30270  1.0000
  C   C55       1.0  0.65341  0.35617  0.30328  1.0000
  C   C56       1.0  0.63099  0.32020  0.30266  1.0000
  C   C57       1.0  0.64090  0.37876  0.29737  1.0000
  C   C58       1.0  0.61775  0.37877  0.35420  1.0000
  C   C59       1.0  0.60475  0.40093  0.34655  1.0000
  C   C60       1.0  0.56887  0.38768  0.34878  1.0000
  C   C61       1.0  0.62657  0.43685  0.33830  1.0000
  C   C62       1.0  0.61277  0.45875  0.33030  1.0000
  C   C63       1.0  0.57685  0.44558  0.33090  1.0000
  C   C64       1.0  0.55514  0.40967  0.34096  1.0000
  C   C65       1.0  0.73789  0.35918  0.29735  1.0000
  C   C66       1.0  0.76106  0.38234  0.35412  1.0000
  C   C67       1.0  0.79622  0.39532  0.34650  1.0000
  C   C68       1.0  0.81030  0.37349  0.33825  1.0000
  C   C69       1.0  0.81887  0.43121  0.34874  1.0000
  C   C70       1.0  0.85458  0.44493  0.34094  1.0000
  C   C71       1.0  0.86876  0.42320  0.33087  1.0000
  C   C72       1.0  0.84600  0.38728  0.33028  1.0000
  H   H45       1.0  0.51546  0.14471  0.32407  1.0000
  H   H46       1.0  0.55268  0.20535  0.33802  1.0000
  H   H47       1.0  0.60495  0.31060  0.30015  1.0000
  H   H48       1.0  0.68947  0.29439  0.30015  1.0000
  H   H49       1.0  0.70568  0.39512  0.30018  1.0000
  H   H50       1.0  0.79470  0.34735  0.33802  1.0000
  H   H51       1.0  0.55234  0.36182  0.35542  1.0000
  H   H52       1.0  0.62928  0.48462  0.32409  1.0000
  H   H53       1.0  0.65271  0.44740  0.33806  1.0000
  H   H54       1.0  0.85534  0.37076  0.32407  1.0000
  H   H55       1.0  0.60834  0.36129  0.40265  1.0000
  H   H56       1.0  0.65009  0.39601  0.24837  1.0000
  H   H57       1.0  0.63877  0.24707  0.40262  1.0000
  H   H58       1.0  0.60407  0.25411  0.24833  1.0000
  H   H59       1.0  0.75301  0.39174  0.40262  1.0000
  H   H60       1.0  0.74594  0.34997  0.24837  1.0000
  C   C73       1.0  0.90633  0.43616  0.32248  1.0000
  H   H61       1.0  0.91369  0.42569  0.37872  1.0000
  C   C74       1.0  0.56387  0.47017  0.32248  1.0000
  H   H62       1.0  0.57434  0.48802  0.37870  1.0000
  C   C75       1.0  0.52987  0.09372  0.32250  1.0000
  H   H63       1.0  0.51204  0.08636  0.37873  1.0000
  C   C76       1.0  0.49738  0.47817  0.41074  1.0000
  C   C77       1.0  0.48476  0.50108  0.42429  1.0000
  C   C78       1.0  0.48814  0.52388  0.35384  1.0000
  H   H64       1.0  0.49508  0.46150  0.46037  1.0000
  N   N4        1.0  0.47035  0.50074  0.50428  1.0000
  H   H65       1.0  0.46891  0.48537  0.55196  1.0000
  H   H66       1.0  0.46285  0.51702  0.51850  1.0000
  N   N5        1.0  0.47554  0.54715  0.35681  1.0000
  H   H67       1.0  0.48416  0.56197  0.41329  1.0000
  C   C79       1.0  0.52185  0.01921  0.41076  1.0000
  C   C80       1.0  0.49893  0.98367  0.42431  1.0000
  C   C81       1.0  0.47613  0.96427  0.35387  1.0000
  H   H68       1.0  0.53852  0.03358  0.46039  1.0000
  N   N6        1.0  0.49927  0.96961  0.50430  1.0000
  H   H69       1.0  0.51464  0.98353  0.55198  1.0000
  H   H70       1.0  0.48299  0.94583  0.51852  1.0000
  N   N7        1.0  0.45287  0.92839  0.35683  1.0000
  H   H71       1.0  0.43805  0.92219  0.41331  1.0000
  C   C82       1.0  0.98083  0.50266  0.41073  1.0000
  C   C83       1.0  0.01636  0.51527  0.42428  1.0000
  C   C84       1.0  0.03576  0.51187  0.35384  1.0000
  H   H72       1.0  0.96647  0.50496  0.46035  1.0000
  N   N8        1.0  0.03043  0.52968  0.50427  1.0000
  H   H73       1.0  0.01651  0.53113  0.55194  1.0000
  H   H74       1.0  0.05420  0.53717  0.51849  1.0000
  N   N9        1.0  0.07164  0.52448  0.35682  1.0000
  H   H75       1.0  0.07783  0.51585  0.41330  1.0000
