data_image0
_chemical_formula_structural       C2HC2HN2C3HCH3CHC3HCH3CHC4H2C4H2N2CN2CHCN2CHC2HC2HN2C3HCH3CHC3HCH3CHC4H2C4H2N2CN2CHCN2CHC2HC2HN2C3HCH3CHC3HCH3CHC4H2C4H2N2CN2CHCN2CHC2HC2HN2C3HCH3CHC3HCH3CHC4H2C4H2N2CN2CHCN2CH
_chemical_formula_sum              "C104 H72 N32"
_cell_length_a       31.4308
_cell_length_b       31.4308
_cell_length_c       14.909
_cell_angle_alpha    90
_cell_angle_beta     90
_cell_angle_gamma    90

_space_group_name_H-M_alt    "P 1"
_space_group_IT_number       1

loop_
  _space_group_symop_operation_xyz
  'x, y, z'

loop_
  _atom_site_type_symbol
  _atom_site_label
  _atom_site_symmetry_multiplicity
  _atom_site_fract_x
  _atom_site_fract_y
  _atom_site_fract_z
  _atom_site_occupancy
  C   C1        1.0  0.01832  0.05494  0.30626  1.0000
  C   C2        1.0  0.04920  0.08765  0.30636  1.0000
  H   H1        1.0  0.48780  0.06503  0.30520  1.0000
  C   C3        1.0  0.47296  0.40161  0.30686  1.0000
  C   C4        1.0  0.50494  0.43329  0.30705  1.0000
  H   H2        1.0  0.03542  0.42254  0.30653  1.0000
  N   N1        1.0  0.47953  0.35911  0.30618  1.0000
  N   N2        1.0  0.04084  0.13007  0.30571  1.0000
  C   C5        1.0  0.00374  0.19723  0.30432  1.0000
  C   C6        1.0  0.96514  0.22002  0.30215  1.0000
  C   C7        1.0  0.96488  0.26506  0.30235  1.0000
  H   H3        1.0  0.93701  0.20358  0.30030  1.0000
  C   C8        1.0  0.92293  0.28703  0.29936  1.0000
  H   H4        1.0  0.89609  0.26499  0.29669  1.0000
  H   H5        1.0  0.92111  0.30709  0.23975  1.0000
  H   H6        1.0  0.41891  0.30653  0.35929  1.0000
  C   C9        1.0  0.00416  0.15250  0.30429  1.0000
  H   H7        1.0  0.97579  0.13661  0.30298  1.0000
  C   C10       1.0  0.30887  0.00237  0.30653  1.0000
  C   C11       1.0  0.28608  0.04097  0.30446  1.0000
  C   C12       1.0  0.24104  0.04123  0.30454  1.0000
  H   H8        1.0  0.30252  0.06910  0.30271  1.0000
  C   C13       1.0  0.21908  0.08318  0.30160  1.0000
  H   H9        1.0  0.24112  0.11003  0.29922  1.0000
  H   H10       1.0  0.19948  0.08714  0.36140  1.0000
  H   H11       1.0  0.19911  0.58507  0.24185  1.0000
  C   C14       1.0  0.35360  0.00194  0.30645  1.0000
  H   H12       1.0  0.36949  0.03031  0.30514  1.0000
  C   C15       1.0  0.02822  0.01047  0.30725  1.0000
  C   C16       1.0  0.09222  0.07608  0.30709  1.0000
  C   C17       1.0  0.10449  0.03314  0.30763  1.0000
  C   C18       1.0  0.07281  0.00116  0.30791  1.0000
  H   H13       1.0  0.08356  0.47068  0.30857  1.0000
  H   H14       1.0  0.11501  0.09945  0.30691  1.0000
  C   C19       1.0  0.49563  0.47788  0.30734  1.0000
  C   C20       1.0  0.45116  0.48778  0.30767  1.0000
  C   C21       1.0  0.41845  0.45690  0.30740  1.0000
  C   C22       1.0  0.43002  0.41388  0.30707  1.0000
  H   H15       1.0  0.44106  0.01830  0.30860  1.0000
  H   H16       1.0  0.40666  0.39108  0.30680  1.0000
  N   N3        1.0  0.37603  0.46526  0.30726  1.0000
  N   N4        1.0  0.14699  0.02657  0.30747  1.0000
  C   C23       1.0  0.00490  0.28663  0.30506  1.0000
  N   N5        1.0  0.04051  0.26195  0.30686  1.0000
  N   N6        1.0  0.04022  0.22031  0.30653  1.0000
  C   C24       1.0  0.01190  0.33104  0.30612  1.0000
  H   H17       1.0  0.04236  0.34253  0.30753  1.0000
  C   C25       1.0  0.21947  0.00121  0.30708  1.0000
  N   N7        1.0  0.24415  0.96560  0.30884  1.0000
  N   N8        1.0  0.28579  0.96588  0.30857  1.0000
  C   C26       1.0  0.17506  0.99420  0.30792  1.0000
  H   H18       1.0  0.16357  0.96375  0.30924  1.0000
  C   C27       1.0  0.01832  0.55494  0.30626  1.0000
  C   C28       1.0  0.04920  0.58765  0.30636  1.0000
  H   H19       1.0  0.48780  0.56503  0.30520  1.0000
  C   C29       1.0  0.47296  0.90161  0.30686  1.0000
  C   C30       1.0  0.50494  0.93329  0.30705  1.0000
  H   H20       1.0  0.03542  0.92254  0.30653  1.0000
  N   N9        1.0  0.47953  0.85911  0.30618  1.0000
  N   N10       1.0  0.04084  0.63006  0.30571  1.0000
  C   C31       1.0  0.00374  0.69723  0.30432  1.0000
  C   C32       1.0  0.96514  0.72002  0.30215  1.0000
  C   C33       1.0  0.96488  0.76506  0.30235  1.0000
  H   H21       1.0  0.93701  0.70358  0.30030  1.0000
  C   C34       1.0  0.92293  0.78703  0.29936  1.0000
  H   H22       1.0  0.89609  0.76499  0.29669  1.0000
  H   H23       1.0  0.92111  0.80709  0.23975  1.0000
  H   H24       1.0  0.41891  0.80654  0.35929  1.0000
  C   C35       1.0  0.00416  0.65250  0.30429  1.0000
  H   H25       1.0  0.97579  0.63661  0.30298  1.0000
  C   C36       1.0  0.30887  0.50237  0.30653  1.0000
  C   C37       1.0  0.28608  0.54097  0.30446  1.0000
  C   C38       1.0  0.24104  0.54123  0.30454  1.0000
  H   H26       1.0  0.30252  0.56910  0.30271  1.0000
  C   C39       1.0  0.21908  0.58318  0.30160  1.0000
  H   H27       1.0  0.24112  0.61003  0.29922  1.0000
  H   H28       1.0  0.19948  0.58714  0.36140  1.0000
  H   H29       1.0  0.19911  0.08507  0.24185  1.0000
  C   C40       1.0  0.35360  0.50194  0.30645  1.0000
  H   H30       1.0  0.36949  0.53031  0.30514  1.0000
  C   C41       1.0  0.02822  0.51046  0.30725  1.0000
  C   C42       1.0  0.09222  0.57608  0.30709  1.0000
  C   C43       1.0  0.10449  0.53314  0.30763  1.0000
  C   C44       1.0  0.07281  0.50116  0.30791  1.0000
  H   H31       1.0  0.08356  0.97068  0.30857  1.0000
  H   H32       1.0  0.11501  0.59944  0.30691  1.0000
  C   C45       1.0  0.49563  0.97788  0.30734  1.0000
  C   C46       1.0  0.45116  0.98778  0.30767  1.0000
  C   C47       1.0  0.41845  0.95690  0.30740  1.0000
  C   C48       1.0  0.43002  0.91388  0.30707  1.0000
  H   H33       1.0  0.44106  0.51830  0.30860  1.0000
  H   H34       1.0  0.40666  0.89109  0.30680  1.0000
  N   N11       1.0  0.37603  0.96526  0.30726  1.0000
  N   N12       1.0  0.14699  0.52657  0.30747  1.0000
  C   C49       1.0  0.00490  0.78663  0.30506  1.0000
  N   N13       1.0  0.04051  0.76194  0.30686  1.0000
  N   N14       1.0  0.04022  0.72031  0.30653  1.0000
  C   C50       1.0  0.01190  0.83104  0.30612  1.0000
  H   H35       1.0  0.04236  0.84253  0.30753  1.0000
  C   C51       1.0  0.21947  0.50121  0.30708  1.0000
  N   N15       1.0  0.24415  0.46560  0.30884  1.0000
  N   N16       1.0  0.28579  0.46588  0.30857  1.0000
  C   C52       1.0  0.17506  0.49420  0.30792  1.0000
  H   H36       1.0  0.16357  0.46375  0.30924  1.0000
  C   C53       1.0  0.51832  0.05494  0.30626  1.0000
  C   C54       1.0  0.54920  0.08765  0.30636  1.0000
  H   H37       1.0  0.98780  0.06503  0.30520  1.0000
  C   C55       1.0  0.97296  0.40161  0.30686  1.0000
  C   C56       1.0  0.00494  0.43329  0.30705  1.0000
  H   H38       1.0  0.53542  0.42254  0.30653  1.0000
  N   N17       1.0  0.97953  0.35911  0.30618  1.0000
  N   N18       1.0  0.54084  0.13007  0.30571  1.0000
  C   C57       1.0  0.50374  0.19723  0.30432  1.0000
  C   C58       1.0  0.46514  0.22002  0.30215  1.0000
  C   C59       1.0  0.46488  0.26506  0.30235  1.0000
  H   H39       1.0  0.43701  0.20358  0.30030  1.0000
  C   C60       1.0  0.42293  0.28703  0.29936  1.0000
  H   H40       1.0  0.39609  0.26499  0.29669  1.0000
  H   H41       1.0  0.42111  0.30709  0.23975  1.0000
  H   H42       1.0  0.91891  0.30653  0.35929  1.0000
  C   C61       1.0  0.50416  0.15250  0.30429  1.0000
  H   H43       1.0  0.47580  0.13661  0.30298  1.0000
  C   C62       1.0  0.80887  0.00237  0.30653  1.0000
  C   C63       1.0  0.78608  0.04097  0.30446  1.0000
  C   C64       1.0  0.74104  0.04123  0.30454  1.0000
  H   H44       1.0  0.80253  0.06910  0.30271  1.0000
  C   C65       1.0  0.71908  0.08318  0.30160  1.0000
  H   H45       1.0  0.74112  0.11003  0.29922  1.0000
  H   H46       1.0  0.69947  0.08714  0.36140  1.0000
  H   H47       1.0  0.69911  0.58507  0.24185  1.0000
  C   C66       1.0  0.85360  0.00194  0.30645  1.0000
  H   H48       1.0  0.86949  0.03031  0.30514  1.0000
  C   C67       1.0  0.52822  0.01047  0.30725  1.0000
  C   C68       1.0  0.59222  0.07608  0.30709  1.0000
  C   C69       1.0  0.60449  0.03314  0.30763  1.0000
  C   C70       1.0  0.57281  0.00116  0.30791  1.0000
  H   H49       1.0  0.58356  0.47068  0.30857  1.0000
  H   H50       1.0  0.61501  0.09945  0.30691  1.0000
  C   C71       1.0  0.99564  0.47788  0.30734  1.0000
  C   C72       1.0  0.95116  0.48778  0.30767  1.0000
  C   C73       1.0  0.91845  0.45690  0.30740  1.0000
  C   C74       1.0  0.93002  0.41388  0.30707  1.0000
  H   H51       1.0  0.94106  0.01830  0.30860  1.0000
  H   H52       1.0  0.90666  0.39108  0.30680  1.0000
  N   N19       1.0  0.87603  0.46526  0.30726  1.0000
  N   N20       1.0  0.64699  0.02657  0.30747  1.0000
  C   C75       1.0  0.50490  0.28663  0.30506  1.0000
  N   N21       1.0  0.54051  0.26195  0.30686  1.0000
  N   N22       1.0  0.54022  0.22031  0.30653  1.0000
  C   C76       1.0  0.51191  0.33104  0.30612  1.0000
  H   H53       1.0  0.54236  0.34253  0.30753  1.0000
  C   C77       1.0  0.71947  0.00121  0.30708  1.0000
  N   N23       1.0  0.74415  0.96560  0.30884  1.0000
  N   N24       1.0  0.78579  0.96588  0.30857  1.0000
  C   C78       1.0  0.67506  0.99420  0.30792  1.0000
  H   H54       1.0  0.66357  0.96375  0.30924  1.0000
  C   C79       1.0  0.51832  0.55494  0.30626  1.0000
  C   C80       1.0  0.54920  0.58765  0.30636  1.0000
  H   H55       1.0  0.98780  0.56503  0.30520  1.0000
  C   C81       1.0  0.97296  0.90161  0.30686  1.0000
  C   C82       1.0  0.00494  0.93329  0.30705  1.0000
  H   H56       1.0  0.53542  0.92254  0.30653  1.0000
  N   N25       1.0  0.97953  0.85911  0.30618  1.0000
  N   N26       1.0  0.54084  0.63006  0.30571  1.0000
  C   C83       1.0  0.50374  0.69723  0.30432  1.0000
  C   C84       1.0  0.46514  0.72002  0.30215  1.0000
  C   C85       1.0  0.46488  0.76506  0.30235  1.0000
  H   H57       1.0  0.43701  0.70358  0.30030  1.0000
  C   C86       1.0  0.42293  0.78703  0.29936  1.0000
  H   H58       1.0  0.39609  0.76499  0.29669  1.0000
  H   H59       1.0  0.42111  0.80709  0.23975  1.0000
  H   H60       1.0  0.91891  0.80654  0.35929  1.0000
  C   C87       1.0  0.50416  0.65250  0.30429  1.0000
  H   H61       1.0  0.47580  0.63661  0.30298  1.0000
  C   C88       1.0  0.80887  0.50237  0.30653  1.0000
  C   C89       1.0  0.78608  0.54097  0.30446  1.0000
  C   C90       1.0  0.74104  0.54123  0.30454  1.0000
  H   H62       1.0  0.80253  0.56910  0.30271  1.0000
  C   C91       1.0  0.71908  0.58318  0.30160  1.0000
  H   H63       1.0  0.74112  0.61003  0.29922  1.0000
  H   H64       1.0  0.69947  0.58714  0.36140  1.0000
  H   H65       1.0  0.69911  0.08507  0.24185  1.0000
  C   C92       1.0  0.85360  0.50194  0.30645  1.0000
  H   H66       1.0  0.86949  0.53031  0.30514  1.0000
  C   C93       1.0  0.52822  0.51046  0.30725  1.0000
  C   C94       1.0  0.59222  0.57608  0.30709  1.0000
  C   C95       1.0  0.60449  0.53314  0.30763  1.0000
  C   C96       1.0  0.57281  0.50116  0.30791  1.0000
  H   H67       1.0  0.58356  0.97068  0.30857  1.0000
  H   H68       1.0  0.61501  0.59944  0.30691  1.0000
  C   C97       1.0  0.99564  0.97788  0.30734  1.0000
  C   C98       1.0  0.95116  0.98778  0.30767  1.0000
  C   C99       1.0  0.91845  0.95690  0.30740  1.0000
  C   C100      1.0  0.93002  0.91388  0.30707  1.0000
  H   H69       1.0  0.94106  0.51830  0.30860  1.0000
  H   H70       1.0  0.90666  0.89109  0.30680  1.0000
  N   N27       1.0  0.87603  0.96526  0.30726  1.0000
  N   N28       1.0  0.64699  0.52657  0.30747  1.0000
  C   C101      1.0  0.50490  0.78663  0.30506  1.0000
  N   N29       1.0  0.54051  0.76194  0.30686  1.0000
  N   N30       1.0  0.54022  0.72031  0.30653  1.0000
  C   C102      1.0  0.51191  0.83104  0.30612  1.0000
  H   H71       1.0  0.54236  0.84253  0.30753  1.0000
  C   C103      1.0  0.71947  0.50121  0.30708  1.0000
  N   N31       1.0  0.74415  0.46560  0.30884  1.0000
  N   N32       1.0  0.78579  0.46588  0.30857  1.0000
  C   C104      1.0  0.67506  0.49420  0.30792  1.0000
  H   H72       1.0  0.66357  0.46375  0.30924  1.0000
