data_image0
_chemical_formula_structural       C6H6N2C8H5CN2HNC8H5CN2HNC8H5CN2HNC4HCNHCH3CHC4HCNHCH3CHC4HCNHCH3CHCNC4H2CH3CHCNC4H2CH3CHCNC4H2CH3CHC12H5CNC2NHN2C10H6CNCN2C10H6CNCN2C10H6CNCN2CNC4H2CH3CHCNC4H2CH3CHCNC4H2CH3CHC4HCNHCH3CHC4HCNHCH3CHC4HCNHCH3CH
_chemical_formula_sum              "C168 H120 N36"
_cell_length_a       67.5351
_cell_length_b       67.5449
_cell_length_c       14.9667
_cell_angle_alpha    90
_cell_angle_beta     90
_cell_angle_gamma    119.982

_space_group_name_H-M_alt    "P 1"
_space_group_IT_number       1

loop_
  _space_group_symop_operation_xyz
  'x, y, z'

loop_
  _atom_site_type_symbol
  _atom_site_label
  _atom_site_symmetry_multiplicity
  _atom_site_fract_x
  _atom_site_fract_y
  _atom_site_fract_z
  _atom_site_occupancy
  C   C1        1.0  0.97015  0.02048  0.33611  1.0000
  C   C2        1.0  0.93751  0.91261  0.34895  1.0000
  C   C3        1.0  0.94889  0.93665  0.34714  1.0000
  C   C4        1.0  0.94604  0.00839  0.32599  1.0000
  C   C5        1.0  0.93336  0.01979  0.32693  1.0000
  C   C6        1.0  0.94428  0.04362  0.33989  1.0000
  H   H1        1.0  0.92012  0.90375  0.35598  1.0000
  H   H2        1.0  0.93926  0.94438  0.35431  1.0000
  H   H3        1.0  0.93734  0.99106  0.31704  1.0000
  H   H4        1.0  0.91598  0.01049  0.31913  1.0000
  H   H5        1.0  0.08970  0.01656  0.35622  1.0000
  H   H6        1.0  0.04905  0.99505  0.35453  1.0000
  N   N1        1.0  0.97267  0.98575  0.33538  1.0000
  N   N2        1.0  0.93163  0.05372  0.33907  1.0000
  C   C7        1.0  0.45685  0.26805  0.33429  1.0000
  C   C8        1.0  0.37110  0.20809  0.35439  1.0000
  C   C9        1.0  0.34701  0.19631  0.35526  1.0000
  C   C10       1.0  0.49314  0.19814  0.32956  1.0000
  C   C11       1.0  0.48009  0.20903  0.33349  1.0000
  C   C12       1.0  0.48080  0.27919  0.31964  1.0000
  C   C13       1.0  0.49432  0.30312  0.32083  1.0000
  C   C14       1.0  0.48445  0.31685  0.33695  1.0000
  H   H7        1.0  0.33871  0.20518  0.36841  1.0000
  H   H8        1.0  0.48874  0.22644  0.33996  1.0000
  H   H9        1.0  0.51060  0.20791  0.33306  1.0000
  H   H10       1.0  0.48887  0.27005  0.30775  1.0000
  H   H11       1.0  0.51157  0.31043  0.31042  1.0000
  C   C15       1.0  0.44348  0.24369  0.33436  1.0000
  N   N3        1.0  0.45406  0.23114  0.33187  1.0000
  N   N4        1.0  0.42023  0.23185  0.33660  1.0000
  H   H12       1.0  0.37950  0.22524  0.36765  1.0000
  N   N5        1.0  0.49880  0.33922  0.33868  1.0000
  C   C16       1.0  0.72557  0.18911  0.33021  1.0000
  C   C17       1.0  0.78555  0.16346  0.35429  1.0000
  C   C18       1.0  0.79733  0.15116  0.35530  1.0000
  C   C19       1.0  0.79535  0.29536  0.32927  1.0000
  C   C20       1.0  0.78447  0.27142  0.33289  1.0000
  C   C21       1.0  0.71443  0.20168  0.31044  1.0000
  C   C22       1.0  0.69049  0.19122  0.30991  1.0000
  C   C23       1.0  0.67677  0.16784  0.33013  1.0000
  H   H13       1.0  0.78845  0.13398  0.36829  1.0000
  H   H14       1.0  0.76705  0.26265  0.33884  1.0000
  H   H15       1.0  0.78556  0.30303  0.33243  1.0000
  H   H16       1.0  0.72358  0.21874  0.29570  1.0000
  H   H17       1.0  0.68315  0.20097  0.29581  1.0000
  C   C24       1.0  0.74992  0.20017  0.33187  1.0000
  N   N6        1.0  0.76242  0.22329  0.32993  1.0000
  N   N7        1.0  0.76178  0.18878  0.33494  1.0000
  H   H18       1.0  0.76838  0.15472  0.36728  1.0000
  N   N8        1.0  0.65437  0.15973  0.33014  1.0000
  C   C25       1.0  0.80419  0.53660  0.33365  1.0000
  C   C26       1.0  0.82997  0.62232  0.35424  1.0000
  C   C27       1.0  0.84227  0.64640  0.35509  1.0000
  C   C28       1.0  0.69799  0.50034  0.33019  1.0000
  C   C29       1.0  0.72193  0.51338  0.33392  1.0000
  C   C30       1.0  0.79142  0.51268  0.31827  1.0000
  C   C31       1.0  0.80183  0.49916  0.31912  1.0000
  C   C32       1.0  0.82540  0.50899  0.33580  1.0000
  H   H19       1.0  0.85945  0.65469  0.36820  1.0000
  H   H20       1.0  0.73069  0.50473  0.34037  1.0000
  H   H21       1.0  0.69031  0.48289  0.33378  1.0000
  H   H22       1.0  0.77422  0.50464  0.30601  1.0000
  H   H23       1.0  0.79193  0.48194  0.30817  1.0000
  C   C33       1.0  0.79318  0.54996  0.33400  1.0000
  N   N9        1.0  0.77006  0.53939  0.33171  1.0000
  N   N10       1.0  0.80460  0.57321  0.33629  1.0000
  H   H24       1.0  0.83870  0.61390  0.36746  1.0000
  N   N11       1.0  0.83344  0.49465  0.33715  1.0000
  C   C34       1.0  0.27334  0.13645  0.30015  1.0000
  C   C35       1.0  0.22534  0.11298  0.32671  1.0000
  C   C36       1.0  0.23414  0.11183  0.24162  1.0000
  C   C37       1.0  0.25818  0.12365  0.23032  1.0000
  H   H25       1.0  0.26483  0.12253  0.17022  1.0000
  C   C38       1.0  0.16370  0.09080  0.30860  1.0000
  N   N12       1.0  0.18671  0.10286  0.29815  1.0000
  H   H26       1.0  0.15383  0.09383  0.26523  1.0000
  C   C39       1.0  0.21914  0.09776  0.16696  1.0000
  H   H27       1.0  0.20834  0.08012  0.18897  1.0000
  H   H28       1.0  0.22883  0.09756  0.10890  1.0000
  H   H29       1.0  0.20831  0.10459  0.14533  1.0000
  C   C40       1.0  0.29686  0.14626  0.28850  1.0000
  H   H30       1.0  0.30247  0.14061  0.23853  1.0000
  C   C41       1.0  0.85716  0.13729  0.30037  1.0000
  C   C42       1.0  0.88059  0.11271  0.32685  1.0000
  C   C43       1.0  0.88175  0.12266  0.24178  1.0000
  C   C44       1.0  0.86996  0.13493  0.23054  1.0000
  H   H31       1.0  0.87109  0.14270  0.17044  1.0000
  C   C45       1.0  0.90267  0.07317  0.30858  1.0000
  N   N13       1.0  0.89064  0.08416  0.29819  1.0000
  H   H32       1.0  0.89961  0.06026  0.26520  1.0000
  C   C46       1.0  0.89580  0.12171  0.16710  1.0000
  H   H33       1.0  0.91344  0.12852  0.18911  1.0000
  H   H34       1.0  0.89602  0.13162  0.10907  1.0000
  H   H35       1.0  0.88895  0.10406  0.14542  1.0000
  C   C47       1.0  0.84738  0.15103  0.28878  1.0000
  H   H36       1.0  0.85304  0.16229  0.23884  1.0000
  C   C48       1.0  0.85613  0.72010  0.30013  1.0000
  C   C49       1.0  0.88072  0.76809  0.32668  1.0000
  C   C50       1.0  0.87076  0.75931  0.24162  1.0000
  C   C51       1.0  0.85850  0.73526  0.23032  1.0000
  H   H37       1.0  0.85072  0.72863  0.17022  1.0000
  C   C52       1.0  0.92026  0.82969  0.30859  1.0000
  N   N14       1.0  0.90927  0.80668  0.29813  1.0000
  H   H38       1.0  0.93316  0.83955  0.26520  1.0000
  C   C53       1.0  0.87171  0.77432  0.16698  1.0000
  H   H39       1.0  0.86489  0.78514  0.18903  1.0000
  H   H40       1.0  0.86180  0.76465  0.10893  1.0000
  H   H41       1.0  0.88936  0.78511  0.14532  1.0000
  C   C54       1.0  0.84240  0.69658  0.28848  1.0000
  H   H42       1.0  0.83112  0.69100  0.23857  1.0000
  C   C55       1.0  0.60457  0.13650  0.27207  1.0000
  N   N15       1.0  0.58483  0.13708  0.26834  1.0000
  C   C56       1.0  0.55471  0.14201  0.32467  1.0000
  C   C57       1.0  0.55396  0.15825  0.26627  1.0000
  C   C58       1.0  0.53337  0.15895  0.26220  1.0000
  C   C59       1.0  0.51401  0.14406  0.31376  1.0000
  H   H43       1.0  0.53258  0.17081  0.22201  1.0000
  H   H44       1.0  0.61126  0.13424  0.21421  1.0000
  C   C60       1.0  0.57417  0.17504  0.21397  1.0000
  H   H45       1.0  0.58866  0.18471  0.25863  1.0000
  H   H46       1.0  0.57102  0.18726  0.17802  1.0000
  H   H47       1.0  0.57876  0.16610  0.16476  1.0000
  C   C61       1.0  0.49444  0.14586  0.31524  1.0000
  H   H48       1.0  0.47916  0.13192  0.32095  1.0000
  C   C62       1.0  0.85845  0.46887  0.27001  1.0000
  N   N16       1.0  0.85765  0.44844  0.26737  1.0000
  C   C63       1.0  0.85173  0.41316  0.32483  1.0000
  C   C64       1.0  0.83557  0.39620  0.26616  1.0000
  C   C65       1.0  0.83478  0.37487  0.26262  1.0000
  C   C66       1.0  0.84949  0.37032  0.31508  1.0000
  H   H49       1.0  0.82298  0.36224  0.22218  1.0000
  H   H50       1.0  0.86138  0.47796  0.21208  1.0000
  C   C67       1.0  0.81898  0.39975  0.21298  1.0000
  H   H51       1.0  0.80921  0.40456  0.25710  1.0000
  H   H52       1.0  0.80683  0.38443  0.17657  1.0000
  H   H53       1.0  0.82809  0.41331  0.16410  1.0000
  C   C68       1.0  0.84765  0.34893  0.31672  1.0000
  H   H54       1.0  0.86157  0.34758  0.32368  1.0000
  C   C69       1.0  0.52438  0.39026  0.26944  1.0000
  N   N17       1.0  0.54483  0.40987  0.26697  1.0000
  C   C70       1.0  0.58020  0.43901  0.32446  1.0000
  C   C71       1.0  0.59715  0.43983  0.26566  1.0000
  C   C72       1.0  0.61849  0.46036  0.26228  1.0000
  C   C73       1.0  0.62304  0.47958  0.31494  1.0000
  H   H55       1.0  0.63111  0.46121  0.22171  1.0000
  H   H56       1.0  0.51521  0.38427  0.21160  1.0000
  C   C74       1.0  0.59358  0.41973  0.21219  1.0000
  H   H57       1.0  0.58880  0.40513  0.25616  1.0000
  H   H58       1.0  0.60888  0.42293  0.17555  1.0000
  H   H59       1.0  0.57998  0.41531  0.16350  1.0000
  C   C75       1.0  0.64443  0.49911  0.31679  1.0000
  H   H60       1.0  0.64579  0.51439  0.32299  1.0000
  C   C76       1.0  0.97292  0.94982  0.33621  1.0000
  C   C77       1.0  0.04358  0.02324  0.33618  1.0000
  C   C78       1.0  0.98502  0.93780  0.32608  1.0000
  C   C79       1.0  0.97362  0.91373  0.32706  1.0000
  C   C80       1.0  0.94979  0.90082  0.34009  1.0000
  C   C81       1.0  0.96834  0.05590  0.34877  1.0000
  C   C82       1.0  0.98100  0.04452  0.34699  1.0000
  C   C83       1.0  0.05558  0.04734  0.32592  1.0000
  C   C84       1.0  0.07965  0.06003  0.32689  1.0000
  C   C85       1.0  0.09258  0.04913  0.34009  1.0000
  C   C86       1.0  0.08082  0.02508  0.34906  1.0000
  C   C87       1.0  0.05678  0.01240  0.34726  1.0000
  H   H61       1.0  0.98293  0.90566  0.31921  1.0000
  H   H62       1.0  0.99836  0.05413  0.35415  1.0000
  H   H63       1.0  0.97686  0.07329  0.35576  1.0000
  H   H64       1.0  0.04693  0.05603  0.31677  1.0000
  H   H65       1.0  0.08771  0.07740  0.31894  1.0000
  C   C88       1.0  0.01916  0.01033  0.33531  1.0000
  N   N18       1.0  0.00633  0.02072  0.33536  1.0000
  C   C89       1.0  0.98306  0.00897  0.33528  1.0000
  C   C90       1.0  0.98443  0.97424  0.33534  1.0000
  N   N19       1.0  0.00765  0.98706  0.33542  1.0000
  H   H66       1.0  0.00235  0.94643  0.31706  1.0000
  N   N20       1.0  0.11532  0.06179  0.33922  1.0000
  N   N21       1.0  0.93970  0.87808  0.33923  1.0000
  C   C91       1.0  0.45587  0.19647  0.32847  1.0000
  C   C92       1.0  0.38344  0.19660  0.33692  1.0000
  C   C93       1.0  0.33441  0.17272  0.33666  1.0000
  C   C94       1.0  0.34651  0.16101  0.32038  1.0000
  C   C95       1.0  0.37057  0.17275  0.32056  1.0000
  C   C96       1.0  0.44529  0.17239  0.32000  1.0000
  C   C97       1.0  0.45838  0.16140  0.31610  1.0000
  C   C98       1.0  0.48249  0.17425  0.32079  1.0000
  C   C99       1.0  0.46059  0.30604  0.35103  1.0000
  C   C100      1.0  0.44700  0.28200  0.34941  1.0000
  H   H67       1.0  0.33786  0.14377  0.30896  1.0000
  H   H68       1.0  0.37856  0.16357  0.30776  1.0000
  H   H69       1.0  0.42788  0.16256  0.31575  1.0000
  H   H70       1.0  0.45020  0.14403  0.30911  1.0000
  H   H71       1.0  0.45292  0.31555  0.36305  1.0000
  H   H72       1.0  0.42983  0.27480  0.36067  1.0000
  C   C101      1.0  0.44299  0.20798  0.33122  1.0000
  N   N22       1.0  0.41974  0.19708  0.33281  1.0000
  C   C102      1.0  0.40787  0.20854  0.33576  1.0000
  N   N23       1.0  0.49642  0.16578  0.31644  1.0000
  N   N24       1.0  0.31166  0.16226  0.33899  1.0000
  C   C103      1.0  0.79707  0.25979  0.32826  1.0000
  C   C104      1.0  0.79706  0.18730  0.33695  1.0000
  C   C105      1.0  0.82094  0.16215  0.33699  1.0000
  C   C106      1.0  0.83267  0.18596  0.32090  1.0000
  C   C107      1.0  0.82092  0.19828  0.32095  1.0000
  C   C108      1.0  0.82117  0.27331  0.32054  1.0000
  C   C109      1.0  0.83214  0.29738  0.31695  1.0000
  C   C110      1.0  0.81926  0.30863  0.32123  1.0000
  C   C111      1.0  0.68758  0.15500  0.34917  1.0000
  C   C112      1.0  0.71163  0.16549  0.34872  1.0000
  H   H73       1.0  0.84991  0.19454  0.30964  1.0000
  H   H74       1.0  0.83011  0.21545  0.30820  1.0000
  H   H75       1.0  0.83102  0.26575  0.31654  1.0000
  H   H76       1.0  0.84952  0.30658  0.31040  1.0000
  H   H77       1.0  0.67806  0.13796  0.36349  1.0000
  H   H78       1.0  0.71885  0.15570  0.36364  1.0000
  C   C113      1.0  0.78558  0.23540  0.33057  1.0000
  N   N25       1.0  0.79653  0.22310  0.33285  1.0000
  C   C114      1.0  0.78510  0.19977  0.33534  1.0000
  N   N26       1.0  0.82772  0.33102  0.31693  1.0000
  N   N27       1.0  0.83138  0.14984  0.33928  1.0000
  C   C115      1.0  0.73358  0.53760  0.32876  1.0000
  C   C116      1.0  0.80613  0.61000  0.33685  1.0000
  C   C117      1.0  0.83129  0.65902  0.33653  1.0000
  C   C118      1.0  0.80748  0.64694  0.32035  1.0000
  C   C119      1.0  0.79516  0.62289  0.32055  1.0000
  C   C120      1.0  0.72008  0.54819  0.32038  1.0000
  C   C121      1.0  0.69601  0.53511  0.31667  1.0000
  C   C122      1.0  0.68474  0.51099  0.32149  1.0000
  C   C123      1.0  0.83843  0.53283  0.35058  1.0000
  C   C124      1.0  0.82796  0.54641  0.34917  1.0000
  H   H79       1.0  0.79890  0.65560  0.30898  1.0000
  H   H80       1.0  0.77799  0.61491  0.30781  1.0000
  H   H81       1.0  0.72765  0.56559  0.31596  1.0000
  H   H82       1.0  0.68681  0.54329  0.30966  1.0000
  H   H83       1.0  0.85558  0.54048  0.36285  1.0000
  H   H84       1.0  0.83791  0.56357  0.36097  1.0000
  C   C125      1.0  0.75797  0.55047  0.33129  1.0000
  N   N28       1.0  0.77030  0.57371  0.33291  1.0000
  C   C126      1.0  0.79364  0.58557  0.33567  1.0000
  N   N29       1.0  0.66234  0.49708  0.31729  1.0000
  N   N30       1.0  0.84360  0.68177  0.33887  1.0000
  C   C127      1.0  0.26339  0.13734  0.38195  1.0000
  N   N31       1.0  0.24036  0.12564  0.39204  1.0000
  C   C128      1.0  0.20179  0.10021  0.34987  1.0000
  C   C129      1.0  0.19306  0.08380  0.42006  1.0000
  C   C130      1.0  0.16905  0.07088  0.43130  1.0000
  C   C131      1.0  0.15379  0.07387  0.37563  1.0000
  H   H85       1.0  0.16249  0.05865  0.48028  1.0000
  H   H86       1.0  0.27323  0.14589  0.43594  1.0000
  C   C132      1.0  0.20809  0.07899  0.47797  1.0000
  H   H87       1.0  0.21880  0.07477  0.43674  1.0000
  H   H88       1.0  0.19843  0.06471  0.52353  1.0000
  H   H89       1.0  0.21900  0.09397  0.51848  1.0000
  C   C133      1.0  0.13024  0.05974  0.38578  1.0000
  H   H90       1.0  0.12464  0.04722  0.43082  1.0000
  C   C134      1.0  0.85625  0.12643  0.38216  1.0000
  N   N32       1.0  0.86793  0.11508  0.39220  1.0000
  C   C135      1.0  0.89332  0.10188  0.34996  1.0000
  C   C136      1.0  0.90974  0.10953  0.42013  1.0000
  C   C137      1.0  0.92263  0.09840  0.43129  1.0000
  C   C138      1.0  0.91960  0.08014  0.37561  1.0000
  H   H91       1.0  0.93486  0.10404  0.48030  1.0000
  H   H92       1.0  0.84771  0.12773  0.43615  1.0000
  C   C139      1.0  0.91458  0.12936  0.47809  1.0000
  H   H93       1.0  0.91882  0.14430  0.43688  1.0000
  H   H94       1.0  0.92886  0.13395  0.52362  1.0000
  H   H95       1.0  0.89960  0.12532  0.51861  1.0000
  C   C140      1.0  0.93371  0.07068  0.38570  1.0000
  H   H96       1.0  0.94622  0.07758  0.43074  1.0000
  C   C141      1.0  0.86699  0.73003  0.38192  1.0000
  N   N33       1.0  0.87835  0.75306  0.39201  1.0000
  C   C142      1.0  0.89154  0.79164  0.34986  1.0000
  C   C143      1.0  0.88388  0.80039  0.42007  1.0000
  C   C144      1.0  0.89502  0.82441  0.43131  1.0000
  C   C145      1.0  0.91327  0.83963  0.37563  1.0000
  H   H97       1.0  0.88936  0.83098  0.48031  1.0000
  H   H98       1.0  0.86569  0.72018  0.43589  1.0000
  C   C146      1.0  0.86405  0.78540  0.47799  1.0000
  H   H99       1.0  0.84911  0.77472  0.43676  1.0000
  H   H100      1.0  0.85945  0.79508  0.52356  1.0000
  H   H101      1.0  0.86809  0.77446  0.51848  1.0000
  C   C147      1.0  0.92272  0.86319  0.38578  1.0000
  H   H102      1.0  0.91581  0.86881  0.43080  1.0000
  C   C148      1.0  0.61590  0.13981  0.35443  1.0000
  C   C149      1.0  0.57468  0.14057  0.34041  1.0000
  C   C150      1.0  0.58518  0.14382  0.42579  1.0000
  C   C151      1.0  0.60588  0.14333  0.43109  1.0000
  H   H103      1.0  0.61415  0.14626  0.49122  1.0000
  C   C152      1.0  0.51573  0.12793  0.36804  1.0000
  N   N34       1.0  0.53566  0.12771  0.37205  1.0000
  H   H104      1.0  0.50244  0.11684  0.40766  1.0000
  C   C153      1.0  0.57595  0.14897  0.50726  1.0000
  H   H105      1.0  0.57399  0.16385  0.49541  1.0000
  H   H106      1.0  0.58707  0.15268  0.56523  1.0000
  H   H107      1.0  0.55934  0.13436  0.52412  1.0000
  C   C154      1.0  0.63702  0.14142  0.35942  1.0000
  H   H108      1.0  0.63888  0.12993  0.39421  1.0000
  C   C155      1.0  0.85428  0.47672  0.35110  1.0000
  C   C156      1.0  0.85328  0.43463  0.33957  1.0000
  C   C157      1.0  0.84920  0.44174  0.42380  1.0000
  C   C158      1.0  0.84975  0.46297  0.42783  1.0000
  H   H109      1.0  0.84625  0.46824  0.48696  1.0000
  C   C159      1.0  0.86553  0.38814  0.36971  1.0000
  N   N35       1.0  0.86585  0.40834  0.37317  1.0000
  H   H110      1.0  0.87648  0.38588  0.40996  1.0000
  C   C160      1.0  0.84324  0.42719  0.50511  1.0000
  H   H111      1.0  0.82836  0.41046  0.49179  1.0000
  H   H112      1.0  0.83917  0.43460  0.56213  1.0000
  H   H113      1.0  0.85759  0.42497  0.52421  1.0000
  C   C161      1.0  0.85284  0.49632  0.35397  1.0000
  H   H114      1.0  0.86636  0.51100  0.37208  1.0000
  C   C162      1.0  0.51664  0.37802  0.35011  1.0000
  C   C163      1.0  0.55874  0.41909  0.33905  1.0000
  C   C164      1.0  0.55173  0.40770  0.42293  1.0000
  C   C165      1.0  0.53051  0.38702  0.42669  1.0000
  H   H115      1.0  0.52531  0.37811  0.48554  1.0000
  C   C166      1.0  0.60523  0.47776  0.36981  1.0000
  N   N36       1.0  0.58502  0.45789  0.37313  1.0000
  H   H116      1.0  0.60750  0.49095  0.41023  1.0000
  C   C167      1.0  0.56638  0.41611  0.50403  1.0000
  H   H117      1.0  0.58309  0.41796  0.49007  1.0000
  H   H118      1.0  0.55902  0.40452  0.56078  1.0000
  H   H119      1.0  0.56865  0.43266  0.52387  1.0000
  C   C168      1.0  0.49702  0.35700  0.35250  1.0000
  H   H120      1.0  0.48214  0.35594  0.36627  1.0000
