data_image0
_chemical_formula_structural       C7H4CNCH2CHC7H4CNCH2CHC3H2NC3H2NC3H2NC11H6NCNC2H2C11H6NCNC2H2C3HNH2NC3HNH2NC3HNH2N
_chemical_formula_sum              "C66 H45 N15"
_cell_length_a       37.0557
_cell_length_b       37.0558
_cell_length_c       14.5193
_cell_angle_alpha    90
_cell_angle_beta     90
_cell_angle_gamma    120

_space_group_name_H-M_alt    "P 1"
_space_group_IT_number       1

loop_
  _space_group_symop_operation_xyz
  'x, y, z'

loop_
  _atom_site_type_symbol
  _atom_site_label
  _atom_site_symmetry_multiplicity
  _atom_site_fract_x
  _atom_site_fract_y
  _atom_site_fract_z
  _atom_site_occupancy
  C   C1        1.0  0.40902  0.64673  0.37109  1.0000
  C   C2        1.0  0.39466  0.77056  0.37105  1.0000
  C   C3        1.0  0.46155  0.61011  0.38439  1.0000
  C   C4        1.0  0.47846  0.65382  0.38713  1.0000
  C   C5        1.0  0.45283  0.67168  0.38025  1.0000
  C   C6        1.0  0.43845  0.79754  0.36737  1.0000
  C   C7        1.0  0.45643  0.84120  0.37372  1.0000
  H   H1        1.0  0.46680  0.70345  0.38383  1.0000
  H   H2        1.0  0.50988  0.67332  0.39516  1.0000
  H   H3        1.0  0.45802  0.78565  0.36111  1.0000
  H   H4        1.0  0.48822  0.85932  0.37266  1.0000
  C   C8        1.0  0.37614  0.72615  0.36808  1.0000
  N   N1        1.0  0.39970  0.70739  0.36835  1.0000
  C   C9        1.0  0.38313  0.66525  0.36808  1.0000
  H   H5        1.0  0.25574  0.68065  0.36115  1.0000
  H   H6        1.0  0.18208  0.63721  0.37275  1.0000
  C   C10       1.0  0.48789  0.59373  0.39651  1.0000
  H   H7        1.0  0.51495  0.61142  0.42830  1.0000
  C   C11       1.0  0.64010  0.38578  0.36526  1.0000
  C   C12       1.0  0.65562  0.26260  0.36518  1.0000
  C   C13       1.0  0.58701  0.42187  0.35374  1.0000
  C   C14       1.0  0.57045  0.37824  0.34934  1.0000
  C   C15       1.0  0.59634  0.36062  0.35533  1.0000
  C   C16       1.0  0.61190  0.23537  0.37037  1.0000
  C   C17       1.0  0.59420  0.19172  0.36496  1.0000
  H   H8        1.0  0.58260  0.32890  0.35078  1.0000
  H   H9        1.0  0.53907  0.35859  0.34106  1.0000
  H   H10       1.0  0.59220  0.24706  0.37751  1.0000
  H   H11       1.0  0.56244  0.17343  0.36768  1.0000
  C   C18       1.0  0.67383  0.30698  0.36790  1.0000
  N   N2        1.0  0.65000  0.32546  0.36770  1.0000
  C   C19       1.0  0.66627  0.36756  0.36792  1.0000
  H   H12       1.0  0.79433  0.35341  0.37740  1.0000
  H   H13       1.0  0.86795  0.39726  0.36753  1.0000
  C   C20       1.0  0.56036  0.43805  0.34396  1.0000
  H   H14       1.0  0.53264  0.42007  0.31508  1.0000
  C   C21       1.0  0.51835  0.48781  0.30200  1.0000
  C   C22       1.0  0.49599  0.50927  0.30121  1.0000
  C   C23       1.0  0.50212  0.53841  0.37046  1.0000
  H   H15       1.0  0.51366  0.46765  0.24919  1.0000
  H   H16       1.0  0.47554  0.50393  0.24849  1.0000
  N   N3        1.0  0.48000  0.55793  0.36550  1.0000
  C   C24       1.0  0.55363  0.03883  0.30209  1.0000
  C   C25       1.0  0.53216  0.99499  0.30131  1.0000
  C   C26       1.0  0.50297  0.97199  0.37048  1.0000
  H   H17       1.0  0.57382  0.05428  0.24934  1.0000
  H   H18       1.0  0.53754  0.97989  0.24866  1.0000
  N   N4        1.0  0.48345  0.93035  0.36550  1.0000
  C   C27       1.0  0.00256  0.52297  0.30190  1.0000
  C   C28       1.0  0.04639  0.54535  0.30112  1.0000
  C   C29       1.0  0.06940  0.53925  0.37041  1.0000
  H   H19       1.0  0.98710  0.52766  0.24909  1.0000
  H   H20       1.0  0.06149  0.56578  0.24837  1.0000
  N   N5        1.0  0.11104  0.56136  0.36542  1.0000
  C   C30       1.0  0.27082  0.63237  0.37103  1.0000
  C   C31       1.0  0.24385  0.64920  0.36739  1.0000
  C   C32       1.0  0.20019  0.62352  0.37377  1.0000
  C   C33       1.0  0.18168  0.57984  0.38434  1.0000
  C   C34       1.0  0.20847  0.56293  0.38704  1.0000
  C   C35       1.0  0.25196  0.58856  0.38012  1.0000
  C   C36       1.0  0.39220  0.60293  0.36738  1.0000
  C   C37       1.0  0.41788  0.58495  0.37376  1.0000
  C   C38       1.0  0.43126  0.85971  0.38437  1.0000
  C   C39       1.0  0.38756  0.83291  0.38709  1.0000
  C   C40       1.0  0.36969  0.78941  0.38017  1.0000
  H   H21       1.0  0.19654  0.53150  0.39503  1.0000
  H   H22       1.0  0.26976  0.57458  0.38369  1.0000
  H   H23       1.0  0.36075  0.58337  0.36104  1.0000
  H   H24       1.0  0.40419  0.55315  0.37262  1.0000
  H   H25       1.0  0.36805  0.84482  0.39508  1.0000
  H   H26       1.0  0.33792  0.77161  0.38378  1.0000
  N   N6        1.0  0.34081  0.64169  0.36833  1.0000
  C   C41       1.0  0.31523  0.65825  0.36806  1.0000
  N   N7        1.0  0.33400  0.70058  0.36832  1.0000
  C   C42       1.0  0.44763  0.90243  0.39645  1.0000
  C   C43       1.0  0.13896  0.55351  0.39656  1.0000
  H   H27       1.0  0.12961  0.52650  0.42851  1.0000
  H   H28       1.0  0.42995  0.91179  0.42827  1.0000
  C   C44       1.0  0.77879  0.40129  0.36517  1.0000
  C   C45       1.0  0.80602  0.38479  0.37031  1.0000
  C   C46       1.0  0.84967  0.41074  0.36487  1.0000
  C   C47       1.0  0.86797  0.45438  0.35369  1.0000
  C   C48       1.0  0.84090  0.47093  0.34919  1.0000
  C   C49       1.0  0.79739  0.44504  0.35517  1.0000
  C   C50       1.0  0.65660  0.42950  0.37031  1.0000
  C   C51       1.0  0.63066  0.44721  0.36488  1.0000
  C   C52       1.0  0.61954  0.17342  0.35374  1.0000
  C   C53       1.0  0.66317  0.20050  0.34923  1.0000
  C   C54       1.0  0.68077  0.24400  0.35516  1.0000
  H   H29       1.0  0.85263  0.50232  0.34093  1.0000
  H   H30       1.0  0.77941  0.45879  0.35059  1.0000
  H   H31       1.0  0.68799  0.44920  0.37730  1.0000
  H   H32       1.0  0.64414  0.47897  0.36738  1.0000
  H   H33       1.0  0.68282  0.18877  0.34093  1.0000
  H   H34       1.0  0.71250  0.26199  0.35055  1.0000
  N   N8        1.0  0.70857  0.39139  0.36768  1.0000
  C   C55       1.0  0.73441  0.37513  0.36788  1.0000
  N   N9        1.0  0.71593  0.33282  0.36765  1.0000
  C   C56       1.0  0.60337  0.13057  0.34418  1.0000
  C   C57       1.0  0.91082  0.48104  0.34404  1.0000
  H   H35       1.0  0.92057  0.50877  0.31519  1.0000
  H   H36       1.0  0.62137  0.12082  0.31547  1.0000
  C   C58       1.0  0.53082  0.54479  0.44165  1.0000
  C   C59       1.0  0.55367  0.52345  0.44385  1.0000
  C   C60       1.0  0.54713  0.49417  0.37315  1.0000
  H   H37       1.0  0.53500  0.56521  0.49352  1.0000
  N   N10       1.0  0.58094  0.53143  0.51422  1.0000
  H   H38       1.0  0.58509  0.55149  0.56228  1.0000
  H   H39       1.0  0.59722  0.51755  0.51890  1.0000
  N   N11       1.0  0.56884  0.47410  0.37447  1.0000
  C   C61       1.0  0.49652  0.99430  0.44156  1.0000
  C   C62       1.0  0.51786  0.03850  0.44374  1.0000
  C   C63       1.0  0.54720  0.06123  0.37315  1.0000
  H   H40       1.0  0.47607  0.97807  0.49336  1.0000
  N   N12       1.0  0.50982  0.05779  0.51401  1.0000
  H   H41       1.0  0.48972  0.04189  0.56200  1.0000
  H   H42       1.0  0.52370  0.08795  0.51868  1.0000
  N   N13       1.0  0.56727  0.10301  0.37444  1.0000
  C   C64       1.0  0.04708  0.51056  0.44163  1.0000
  C   C65       1.0  0.00289  0.48771  0.44383  1.0000
  C   C66       1.0  0.98015  0.49423  0.37310  1.0000
  H   H43       1.0  0.06332  0.50640  0.49352  1.0000
  N   N14       1.0  0.98361  0.46047  0.51424  1.0000
  H   H44       1.0  0.99951  0.45632  0.56231  1.0000
  H   H45       1.0  0.95344  0.44418  0.51892  1.0000
  N   N15       1.0  0.93838  0.47252  0.37443  1.0000
