data_image0
_chemical_formula_structural       C4HCOCNHCNHC6H3CNHC3HOC3HOC9NHCNHC2OC2OC5HOC4HC6HO2C4HC6HO2CNCHNHCNCHNHCNCHNHCNCHNHC6H3C6H3C6H3C6H3C6H3CNHCNCHNHCNCHNHCHC4HC6HO2CHC4HC6HO2C4HC6HO2C4HC6HO2
_chemical_formula_sum              "C144 H54 O18 N18"
_cell_length_a       46.1656
_cell_length_b       46.1656
_cell_length_c       14.7792
_cell_angle_alpha    90
_cell_angle_beta     90
_cell_angle_gamma    120

_space_group_name_H-M_alt    "P 1"
_space_group_IT_number       1

loop_
  _space_group_symop_operation_xyz
  'x, y, z'

loop_
  _atom_site_type_symbol
  _atom_site_label
  _atom_site_symmetry_multiplicity
  _atom_site_fract_x
  _atom_site_fract_y
  _atom_site_fract_z
  _atom_site_occupancy
  C   C1        1.0  0.09973  0.55171  0.34611  1.0000
  C   C2        1.0  0.02893  0.51631  0.34350  1.0000
  C   C3        1.0  0.04683  0.52533  0.26025  1.0000
  C   C4        1.0  0.08228  0.54305  0.26301  1.0000
  H   H1        1.0  0.09567  0.54980  0.20397  1.0000
  C   C5        1.0  0.02882  0.51638  0.17784  1.0000
  O   O1        1.0  0.04501  0.52452  0.09729  1.0000
  C   C6        1.0  0.22359  0.55129  0.27038  1.0000
  N   N1        1.0  0.25109  0.54787  0.27490  1.0000
  H   H2        1.0  0.21608  0.55491  0.20838  1.0000
  C   C7        1.0  0.22356  0.67611  0.26997  1.0000
  N   N2        1.0  0.25111  0.70699  0.27464  1.0000
  H   H3        1.0  0.21619  0.66496  0.20797  1.0000
  C   C8        1.0  0.18865  0.56954  0.34751  1.0000
  C   C9        1.0  0.20586  0.60481  0.34715  1.0000
  C   C10       1.0  0.18862  0.62285  0.34726  1.0000
  C   C11       1.0  0.15326  0.60500  0.34784  1.0000
  C   C12       1.0  0.13531  0.56951  0.34816  1.0000
  C   C13       1.0  0.15328  0.55201  0.34814  1.0000
  H   H4        1.0  0.14058  0.61793  0.34805  1.0000
  H   H5        1.0  0.14062  0.52640  0.34855  1.0000
  H   H6        1.0  0.23154  0.61766  0.34780  1.0000
  C   C14       1.0  0.08058  0.54207  0.42635  1.0000
  N   N3        1.0  0.04660  0.52509  0.42231  1.0000
  H   H7        1.0  0.09194  0.54771  0.48831  1.0000
  C   C15       1.0  0.20825  0.55374  0.35042  1.0000
  C   C16       1.0  0.25044  0.54752  0.43711  1.0000
  C   C17       1.0  0.22186  0.55132  0.43384  1.0000
  H   H8        1.0  0.21263  0.55540  0.49251  1.0000
  O   O2        1.0  0.25310  0.54969  0.60000  1.0000
  C   C18       1.0  0.20820  0.65825  0.34989  1.0000
  C   C19       1.0  0.22181  0.67426  0.43338  1.0000
  C   C20       1.0  0.25038  0.70665  0.43681  1.0000
  H   H9        1.0  0.21251  0.66095  0.49201  1.0000
  O   O3        1.0  0.25294  0.70708  0.59972  1.0000
  C   C21       1.0  0.26515  0.54600  0.35399  1.0000
  C   C22       1.0  0.29579  0.54600  0.35391  1.0000
  C   C23       1.0  0.29667  0.54777  0.51948  1.0000
  C   C24       1.0  0.26614  0.54778  0.51957  1.0000
  C   C25       1.0  0.29579  0.75354  0.35381  1.0000
  C   C26       1.0  0.26514  0.72289  0.35377  1.0000
  C   C27       1.0  0.26602  0.72206  0.51934  1.0000
  C   C28       1.0  0.29656  0.75260  0.51940  1.0000
  C   C29       1.0  0.34254  0.55116  0.27001  1.0000
  N   N4        1.0  0.31167  0.54784  0.27475  1.0000
  H   H10       1.0  0.35368  0.55492  0.20801  1.0000
  C   C30       1.0  0.34265  0.79508  0.27017  1.0000
  N   N5        1.0  0.31173  0.76758  0.27472  1.0000
  H   H11       1.0  0.35377  0.80256  0.20818  1.0000
  C   C31       1.0  0.34446  0.55134  0.43348  1.0000
  C   C32       1.0  0.31207  0.54751  0.43694  1.0000
  O   O4        1.0  0.31168  0.54970  0.59984  1.0000
  C   C33       1.0  0.31201  0.76827  0.43692  1.0000
  C   C34       1.0  0.34439  0.79686  0.43363  1.0000
  O   O5        1.0  0.31151  0.76566  0.59982  1.0000
  C   C35       1.0  0.99346  0.49858  0.34349  1.0000
  C   C36       1.0  0.92266  0.46319  0.34609  1.0000
  C   C37       1.0  0.94011  0.47198  0.26299  1.0000
  C   C38       1.0  0.97556  0.48969  0.26024  1.0000
  C   C39       1.0  0.99357  0.49875  0.17784  1.0000
  H   H12       1.0  0.92672  0.46533  0.20395  1.0000
  O   O6        1.0  0.97738  0.49071  0.09728  1.0000
  C   C40       1.0  0.46694  0.55173  0.34616  1.0000
  C   C41       1.0  0.50235  0.51634  0.34353  1.0000
  C   C42       1.0  0.49339  0.52529  0.26028  1.0000
  C   C43       1.0  0.47566  0.54301  0.26306  1.0000
  H   H13       1.0  0.46896  0.54970  0.20401  1.0000
  C   C44       1.0  0.52009  0.49860  0.34351  1.0000
  C   C45       1.0  0.55550  0.46322  0.34609  1.0000
  C   C46       1.0  0.54677  0.47194  0.26300  1.0000
  C   C47       1.0  0.52904  0.48966  0.26025  1.0000
  C   C48       1.0  0.52003  0.49866  0.17786  1.0000
  C   C49       1.0  0.50240  0.51629  0.17788  1.0000
  H   H14       1.0  0.55346  0.46525  0.20394  1.0000
  O   O7        1.0  0.52812  0.49058  0.09729  1.0000
  O   O8        1.0  0.49430  0.52438  0.09732  1.0000
  C   C50       1.0  0.46695  0.91894  0.34611  1.0000
  C   C51       1.0  0.50235  0.98973  0.34350  1.0000
  C   C52       1.0  0.49339  0.97184  0.26025  1.0000
  C   C53       1.0  0.47566  0.93639  0.26300  1.0000
  H   H15       1.0  0.46895  0.92300  0.20396  1.0000
  C   C54       1.0  0.52009  0.02521  0.34351  1.0000
  C   C55       1.0  0.55548  0.09601  0.34611  1.0000
  C   C56       1.0  0.54674  0.07856  0.26301  1.0000
  C   C57       1.0  0.52902  0.04311  0.26025  1.0000
  C   C58       1.0  0.52001  0.02510  0.17785  1.0000
  C   C59       1.0  0.50238  0.98985  0.17785  1.0000
  H   H16       1.0  0.55343  0.09195  0.20396  1.0000
  O   O9        1.0  0.52809  0.04129  0.09729  1.0000
  O   O10       1.0  0.49427  0.97366  0.09728  1.0000
  C   C60       1.0  0.46744  0.67609  0.26996  1.0000
  N   N6        1.0  0.47082  0.70699  0.27466  1.0000
  C   C61       1.0  0.46745  0.79512  0.27030  1.0000
  H   H17       1.0  0.46376  0.66497  0.20796  1.0000
  N   N7        1.0  0.47082  0.76760  0.27485  1.0000
  H   H18       1.0  0.46378  0.80259  0.20832  1.0000
  C   C62       1.0  0.79883  0.46372  0.26986  1.0000
  N   N8        1.0  0.77131  0.46710  0.27455  1.0000
  C   C63       1.0  0.67982  0.46373  0.27004  1.0000
  H   H19       1.0  0.80630  0.46004  0.20788  1.0000
  N   N9        1.0  0.71071  0.46710  0.27465  1.0000
  H   H20       1.0  0.66868  0.46005  0.20805  1.0000
  C   C64       1.0  0.55500  0.33890  0.27007  1.0000
  N   N10       1.0  0.55158  0.30798  0.27467  1.0000
  C   C65       1.0  0.55486  0.21981  0.26996  1.0000
  H   H21       1.0  0.55861  0.35002  0.20806  1.0000
  N   N11       1.0  0.55154  0.24736  0.27463  1.0000
  H   H22       1.0  0.55861  0.21242  0.20795  1.0000
  C   C66       1.0  0.67980  0.21988  0.26992  1.0000
  N   N12       1.0  0.71070  0.24739  0.27465  1.0000
  C   C67       1.0  0.79883  0.33889  0.27030  1.0000
  H   H23       1.0  0.66867  0.21243  0.20793  1.0000
  N   N13       1.0  0.77131  0.30799  0.27484  1.0000
  H   H24       1.0  0.80629  0.35002  0.20830  1.0000
  C   C68       1.0  0.44914  0.62283  0.34730  1.0000
  C   C69       1.0  0.41387  0.60478  0.34701  1.0000
  C   C70       1.0  0.39582  0.56951  0.34734  1.0000
  C   C71       1.0  0.41366  0.55200  0.34801  1.0000
  C   C72       1.0  0.44915  0.56951  0.34821  1.0000
  C   C73       1.0  0.46666  0.60499  0.34798  1.0000
  H   H25       1.0  0.40073  0.52638  0.34833  1.0000
  H   H26       1.0  0.49227  0.61794  0.34827  1.0000
  H   H27       1.0  0.40102  0.61762  0.34753  1.0000
  C   C74       1.0  0.39583  0.83003  0.34729  1.0000
  C   C75       1.0  0.41388  0.81281  0.34716  1.0000
  C   C76       1.0  0.44915  0.83003  0.34742  1.0000
  C   C77       1.0  0.46667  0.86539  0.34801  1.0000
  C   C78       1.0  0.44916  0.88336  0.34813  1.0000
  C   C79       1.0  0.41368  0.86539  0.34793  1.0000
  H   H28       1.0  0.49228  0.87806  0.34838  1.0000
  H   H29       1.0  0.40074  0.87807  0.34825  1.0000
  H   H30       1.0  0.40104  0.78713  0.34789  1.0000
  C   C80       1.0  0.83376  0.44541  0.34718  1.0000
  C   C81       1.0  0.81653  0.41014  0.34705  1.0000
  C   C82       1.0  0.83375  0.39209  0.34741  1.0000
  C   C83       1.0  0.86911  0.40993  0.34807  1.0000
  C   C84       1.0  0.88708  0.44541  0.34812  1.0000
  C   C85       1.0  0.86912  0.46293  0.34780  1.0000
  H   H31       1.0  0.88178  0.39698  0.34850  1.0000
  H   H32       1.0  0.88179  0.48854  0.34803  1.0000
  H   H33       1.0  0.79085  0.39730  0.34771  1.0000
  C   C86       1.0  0.57329  0.39210  0.34723  1.0000
  C   C87       1.0  0.60856  0.41015  0.34700  1.0000
  C   C88       1.0  0.62661  0.44542  0.34722  1.0000
  C   C89       1.0  0.60877  0.46294  0.34791  1.0000
  C   C90       1.0  0.57329  0.44543  0.34810  1.0000
  C   C91       1.0  0.55577  0.40995  0.34792  1.0000
  H   H34       1.0  0.62171  0.48855  0.34825  1.0000
  H   H35       1.0  0.53016  0.39700  0.34828  1.0000
  H   H36       1.0  0.62140  0.39731  0.34766  1.0000
  C   C92       1.0  0.62656  0.18492  0.34718  1.0000
  C   C93       1.0  0.60851  0.20213  0.34689  1.0000
  C   C94       1.0  0.57324  0.18490  0.34718  1.0000
  C   C95       1.0  0.55573  0.14954  0.34791  1.0000
  C   C96       1.0  0.57326  0.13159  0.34814  1.0000
  C   C97       1.0  0.60874  0.14956  0.34792  1.0000
  H   H37       1.0  0.53012  0.13686  0.34824  1.0000
  H   H38       1.0  0.62169  0.13690  0.34826  1.0000
  H   H39       1.0  0.62134  0.22782  0.34745  1.0000
  C   C98       1.0  0.94180  0.47269  0.42633  1.0000
  N   N14       1.0  0.97578  0.48968  0.42230  1.0000
  H   H40       1.0  0.93044  0.46697  0.48829  1.0000
  C   C99       1.0  0.47651  0.54215  0.42639  1.0000
  N   N15       1.0  0.49351  0.52517  0.42235  1.0000
  C   C100      1.0  0.54592  0.47278  0.42634  1.0000
  H   H41       1.0  0.47084  0.54783  0.48835  1.0000
  N   N16       1.0  0.52893  0.48977  0.42231  1.0000
  H   H42       1.0  0.55160  0.46710  0.48829  1.0000
  C   C101      1.0  0.47654  0.93808  0.42635  1.0000
  N   N17       1.0  0.49353  0.97206  0.42231  1.0000
  C   C102      1.0  0.54592  0.07686  0.42635  1.0000
  H   H43       1.0  0.47087  0.92672  0.48830  1.0000
  N   N18       1.0  0.52893  0.04288  0.42231  1.0000
  H   H44       1.0  0.55161  0.08822  0.48831  1.0000
  C   C103      1.0  0.36041  0.55369  0.34993  1.0000
  H   H45       1.0  0.35779  0.55537  0.49209  1.0000
  C   C104      1.0  0.46495  0.65824  0.34987  1.0000
  C   C105      1.0  0.47268  0.72287  0.35383  1.0000
  C   C106      1.0  0.47114  0.70659  0.43687  1.0000
  C   C107      1.0  0.46732  0.67420  0.43342  1.0000
  H   H46       1.0  0.46331  0.66088  0.49203  1.0000
  C   C108      1.0  0.47268  0.75352  0.35393  1.0000
  C   C109      1.0  0.46496  0.81044  0.35035  1.0000
  C   C110      1.0  0.46731  0.79678  0.43376  1.0000
  C   C111      1.0  0.47116  0.76823  0.43705  1.0000
  C   C112      1.0  0.47092  0.75253  0.51950  1.0000
  C   C113      1.0  0.47092  0.72200  0.51942  1.0000
  H   H47       1.0  0.46333  0.80607  0.49245  1.0000
  O   O11       1.0  0.46899  0.76557  0.59994  1.0000
  O   O12       1.0  0.46899  0.70699  0.59977  1.0000
  C   C114      1.0  0.36043  0.81044  0.35019  1.0000
  H   H48       1.0  0.35769  0.80610  0.49230  1.0000
  C   C115      1.0  0.81416  0.46123  0.34983  1.0000
  C   C116      1.0  0.75728  0.46897  0.35370  1.0000
  C   C117      1.0  0.77202  0.46743  0.43677  1.0000
  C   C118      1.0  0.80059  0.46362  0.43338  1.0000
  H   H49       1.0  0.80990  0.45960  0.49200  1.0000
  C   C119      1.0  0.72664  0.46897  0.35376  1.0000
  C   C120      1.0  0.66202  0.46123  0.35008  1.0000
  C   C121      1.0  0.67799  0.46358  0.43355  1.0000
  C   C122      1.0  0.71040  0.46744  0.43687  1.0000
  C   C123      1.0  0.72584  0.46721  0.51934  1.0000
  C   C124      1.0  0.75637  0.46721  0.51930  1.0000
  H   H50       1.0  0.66471  0.45961  0.49222  1.0000
  O   O13       1.0  0.71087  0.46528  0.59976  1.0000
  O   O14       1.0  0.76944  0.46528  0.59967  1.0000
  C   C125      1.0  0.55748  0.35669  0.35009  1.0000
  C   C126      1.0  0.54972  0.29207  0.35379  1.0000
  C   C127      1.0  0.55126  0.30832  0.43690  1.0000
  C   C128      1.0  0.55507  0.34071  0.43359  1.0000
  H   H51       1.0  0.55915  0.35403  0.49223  1.0000
  C   C129      1.0  0.54971  0.26142  0.35377  1.0000
  C   C130      1.0  0.55741  0.20448  0.34987  1.0000
  C   C131      1.0  0.55507  0.21812  0.43338  1.0000
  C   C132      1.0  0.55124  0.24669  0.43681  1.0000
  C   C133      1.0  0.55151  0.26236  0.51933  1.0000
  C   C134      1.0  0.55153  0.29289  0.51937  1.0000
  H   H52       1.0  0.55911  0.20884  0.49199  1.0000
  O   O15       1.0  0.55346  0.24929  0.59971  1.0000
  O   O16       1.0  0.55346  0.30787  0.59978  1.0000
  C   C135      1.0  0.66198  0.20453  0.34987  1.0000
  C   C136      1.0  0.72659  0.26141  0.35383  1.0000
  C   C137      1.0  0.71032  0.24666  0.43687  1.0000
  C   C138      1.0  0.67793  0.21809  0.43344  1.0000
  H   H53       1.0  0.66460  0.20877  0.49204  1.0000
  C   C139      1.0  0.75724  0.29205  0.35391  1.0000
  C   C140      1.0  0.81415  0.35668  0.35033  1.0000
  C   C141      1.0  0.80050  0.34068  0.43375  1.0000
  C   C142      1.0  0.77195  0.30827  0.43704  1.0000
  C   C143      1.0  0.75627  0.29281  0.51950  1.0000
  C   C144      1.0  0.72573  0.26228  0.51942  1.0000
  H   H54       1.0  0.80980  0.35394  0.49244  1.0000
  O   O17       1.0  0.76931  0.30777  0.59993  1.0000
  O   O18       1.0  0.71073  0.24920  0.59977  1.0000
