data_image0
_chemical_formula_structural       N2C3HNO2CHC3HNO2CHC8HC7HCH4N2C3HNO2CHC3HNO2CHN2C3HNO2CHC3HNO2CHC8HC7HCH4N2C3HNO2CHC3HNO2CHN2C3HNO2CHC3HNO2CHC8HC7HCH4N2C3HNO2CHC3HNO2CHN2C3HNO2CHC3HNO2CHC8HC7HCH4N2C3HNO2CHC3HNO2CH
_chemical_formula_sum              "N32 C128 H56 O32"
_cell_length_a       31.6674
_cell_length_b       31.6674
_cell_length_c       14.8441
_cell_angle_alpha    90
_cell_angle_beta     90
_cell_angle_gamma    90

_space_group_name_H-M_alt    "P 1"
_space_group_IT_number       1

loop_
  _space_group_symop_operation_xyz
  'x, y, z'

loop_
  _atom_site_type_symbol
  _atom_site_label
  _atom_site_symmetry_multiplicity
  _atom_site_fract_x
  _atom_site_fract_y
  _atom_site_fract_z
  _atom_site_occupancy
  N   N1        1.0  0.03538  0.13950  0.34357  1.0000
  N   N2        1.0  0.47489  0.37123  0.34237  1.0000
  C   C1        1.0  0.00351  0.21004  0.33378  1.0000
  C   C2        1.0  0.96785  0.23540  0.31178  1.0000
  C   C3        1.0  0.97001  0.27990  0.32113  1.0000
  H   H1        1.0  0.94387  0.29724  0.30442  1.0000
  N   N3        1.0  0.93012  0.21620  0.28056  1.0000
  O   O1        1.0  0.89953  0.22339  0.33230  1.0000
  O   O2        1.0  0.92068  0.22828  0.20247  1.0000
  C   C4        1.0  0.00220  0.16542  0.32668  1.0000
  H   H2        1.0  0.97541  0.15179  0.30213  1.0000
  C   C5        1.0  0.30046  0.00699  0.33372  1.0000
  C   C6        1.0  0.27511  0.04264  0.31167  1.0000
  C   C7        1.0  0.23061  0.04050  0.32104  1.0000
  H   H3        1.0  0.21327  0.06662  0.30429  1.0000
  N   N4        1.0  0.29431  0.08035  0.28036  1.0000
  O   O3        1.0  0.28223  0.08976  0.20225  1.0000
  O   O4        1.0  0.28713  0.11096  0.33203  1.0000
  C   C8        1.0  0.34509  0.00829  0.32661  1.0000
  H   H4        1.0  0.35872  0.03508  0.30208  1.0000
  C   C9        1.0  0.02118  0.02141  0.34297  1.0000
  C   C10       1.0  0.06454  0.51028  0.33119  1.0000
  C   C11       1.0  0.09665  0.04170  0.33775  1.0000
  C   C12       1.0  0.08416  0.08440  0.34293  1.0000
  C   C13       1.0  0.04146  0.09688  0.34810  1.0000
  C   C14       1.0  0.01004  0.06477  0.35474  1.0000
  C   C15       1.0  0.07349  0.46827  0.30597  1.0000
  C   C16       1.0  0.46802  0.07372  0.37993  1.0000
  H   H5        1.0  0.10709  0.10733  0.34293  1.0000
  C   C17       1.0  0.48910  0.48932  0.34298  1.0000
  C   C18       1.0  0.50024  0.44596  0.33123  1.0000
  C   C19       1.0  0.46882  0.41385  0.33779  1.0000
  C   C20       1.0  0.42612  0.42634  0.34295  1.0000
  C   C21       1.0  0.41363  0.46903  0.34812  1.0000
  C   C22       1.0  0.44574  0.00045  0.35474  1.0000
  C   C23       1.0  0.04227  0.43699  0.30615  1.0000
  H   H6        1.0  0.40319  0.40341  0.34294  1.0000
  C   C24       1.0  0.43678  0.04247  0.37992  1.0000
  H   H7        1.0  0.05050  0.40810  0.28157  1.0000
  H   H8        1.0  0.10242  0.46001  0.28158  1.0000
  H   H9        1.0  0.40786  0.05072  0.40432  1.0000
  H   H10       1.0  0.45977  0.10264  0.40434  1.0000
  N   N5        1.0  0.13927  0.03563  0.34233  1.0000
  N   N6        1.0  0.37101  0.47510  0.34355  1.0000
  C   C25       1.0  0.00677  0.30069  0.35220  1.0000
  C   C26       1.0  0.04242  0.27533  0.37418  1.0000
  C   C27       1.0  0.04027  0.23083  0.36485  1.0000
  H   H11       1.0  0.06640  0.21348  0.38155  1.0000
  N   N7        1.0  0.08016  0.29453  0.40540  1.0000
  O   O5        1.0  0.11074  0.28734  0.35367  1.0000
  O   O6        1.0  0.08960  0.28245  0.48350  1.0000
  C   C28       1.0  0.00807  0.34531  0.35929  1.0000
  H   H12       1.0  0.03487  0.35893  0.38379  1.0000
  C   C29       1.0  0.20982  0.00375  0.35217  1.0000
  C   C30       1.0  0.23517  0.96810  0.37421  1.0000
  C   C31       1.0  0.27968  0.97024  0.36485  1.0000
  H   H13       1.0  0.29702  0.94411  0.38160  1.0000
  N   N8        1.0  0.21597  0.93038  0.40552  1.0000
  O   O7        1.0  0.22805  0.92097  0.48364  1.0000
  O   O8        1.0  0.22316  0.89977  0.35386  1.0000
  C   C32       1.0  0.16519  0.00246  0.35930  1.0000
  H   H14       1.0  0.15156  0.97566  0.38379  1.0000
  N   N9        1.0  0.03538  0.63950  0.34357  1.0000
  N   N10       1.0  0.47489  0.87123  0.34237  1.0000
  C   C33       1.0  0.00351  0.71004  0.33378  1.0000
  C   C34       1.0  0.96785  0.73539  0.31178  1.0000
  C   C35       1.0  0.97001  0.77990  0.32113  1.0000
  H   H15       1.0  0.94387  0.79724  0.30442  1.0000
  N   N11       1.0  0.93012  0.71620  0.28056  1.0000
  O   O9        1.0  0.89953  0.72339  0.33230  1.0000
  O   O10       1.0  0.92068  0.72828  0.20247  1.0000
  C   C36       1.0  0.00220  0.66542  0.32668  1.0000
  H   H16       1.0  0.97541  0.65179  0.30213  1.0000
  C   C37       1.0  0.30046  0.50699  0.33372  1.0000
  C   C38       1.0  0.27511  0.54264  0.31167  1.0000
  C   C39       1.0  0.23061  0.54049  0.32104  1.0000
  H   H17       1.0  0.21327  0.56662  0.30429  1.0000
  N   N12       1.0  0.29431  0.58035  0.28036  1.0000
  O   O11       1.0  0.28223  0.58976  0.20225  1.0000
  O   O12       1.0  0.28713  0.61096  0.33203  1.0000
  C   C40       1.0  0.34509  0.50829  0.32661  1.0000
  H   H18       1.0  0.35872  0.53508  0.30208  1.0000
  C   C41       1.0  0.02118  0.52141  0.34297  1.0000
  C   C42       1.0  0.06454  0.01028  0.33119  1.0000
  C   C43       1.0  0.09665  0.54170  0.33775  1.0000
  C   C44       1.0  0.08416  0.58440  0.34293  1.0000
  C   C45       1.0  0.04146  0.59687  0.34810  1.0000
  C   C46       1.0  0.01004  0.56476  0.35474  1.0000
  C   C47       1.0  0.07349  0.96827  0.30597  1.0000
  C   C48       1.0  0.46802  0.57372  0.37993  1.0000
  H   H19       1.0  0.10709  0.60733  0.34293  1.0000
  C   C49       1.0  0.48910  0.98932  0.34298  1.0000
  C   C50       1.0  0.50024  0.94596  0.33123  1.0000
  C   C51       1.0  0.46882  0.91386  0.33779  1.0000
  C   C52       1.0  0.42612  0.92634  0.34295  1.0000
  C   C53       1.0  0.41363  0.96904  0.34812  1.0000
  C   C54       1.0  0.44574  0.50045  0.35474  1.0000
  C   C55       1.0  0.04227  0.93699  0.30615  1.0000
  H   H20       1.0  0.40319  0.90341  0.34294  1.0000
  C   C56       1.0  0.43678  0.54247  0.37992  1.0000
  H   H21       1.0  0.05050  0.90810  0.28157  1.0000
  H   H22       1.0  0.10242  0.96001  0.28158  1.0000
  H   H23       1.0  0.40786  0.55071  0.40432  1.0000
  H   H24       1.0  0.45977  0.60264  0.40434  1.0000
  N   N13       1.0  0.13927  0.53563  0.34233  1.0000
  N   N14       1.0  0.37101  0.97510  0.34355  1.0000
  C   C57       1.0  0.00677  0.80069  0.35220  1.0000
  C   C58       1.0  0.04242  0.77533  0.37418  1.0000
  C   C59       1.0  0.04027  0.73082  0.36485  1.0000
  H   H25       1.0  0.06640  0.71348  0.38155  1.0000
  N   N15       1.0  0.08016  0.79453  0.40540  1.0000
  O   O13       1.0  0.11074  0.78733  0.35367  1.0000
  O   O14       1.0  0.08960  0.78245  0.48350  1.0000
  C   C60       1.0  0.00807  0.84531  0.35929  1.0000
  H   H26       1.0  0.03487  0.85894  0.38379  1.0000
  C   C61       1.0  0.20982  0.50375  0.35217  1.0000
  C   C62       1.0  0.23517  0.46809  0.37421  1.0000
  C   C63       1.0  0.27968  0.47024  0.36485  1.0000
  H   H27       1.0  0.29702  0.44411  0.38160  1.0000
  N   N16       1.0  0.21597  0.43038  0.40552  1.0000
  O   O15       1.0  0.22805  0.42098  0.48364  1.0000
  O   O16       1.0  0.22316  0.39977  0.35386  1.0000
  C   C64       1.0  0.16519  0.50245  0.35930  1.0000
  H   H28       1.0  0.15156  0.47566  0.38379  1.0000
  N   N17       1.0  0.53538  0.13950  0.34357  1.0000
  N   N18       1.0  0.97489  0.37123  0.34237  1.0000
  C   C65       1.0  0.50351  0.21004  0.33378  1.0000
  C   C66       1.0  0.46785  0.23540  0.31178  1.0000
  C   C67       1.0  0.47000  0.27990  0.32113  1.0000
  H   H29       1.0  0.44388  0.29724  0.30442  1.0000
  N   N19       1.0  0.43012  0.21620  0.28056  1.0000
  O   O17       1.0  0.39953  0.22339  0.33230  1.0000
  O   O18       1.0  0.42068  0.22828  0.20247  1.0000
  C   C68       1.0  0.50219  0.16542  0.32668  1.0000
  H   H30       1.0  0.47541  0.15179  0.30213  1.0000
  C   C69       1.0  0.80046  0.00699  0.33372  1.0000
  C   C70       1.0  0.77511  0.04264  0.31167  1.0000
  C   C71       1.0  0.73060  0.04050  0.32104  1.0000
  H   H31       1.0  0.71326  0.06662  0.30429  1.0000
  N   N20       1.0  0.79431  0.08035  0.28036  1.0000
  O   O19       1.0  0.78222  0.08976  0.20225  1.0000
  O   O20       1.0  0.78713  0.11096  0.33203  1.0000
  C   C72       1.0  0.84509  0.00829  0.32661  1.0000
  H   H32       1.0  0.85871  0.03508  0.30208  1.0000
  C   C73       1.0  0.52118  0.02141  0.34297  1.0000
  C   C74       1.0  0.56454  0.51028  0.33119  1.0000
  C   C75       1.0  0.59665  0.04170  0.33775  1.0000
  C   C76       1.0  0.58416  0.08440  0.34293  1.0000
  C   C77       1.0  0.54146  0.09688  0.34810  1.0000
  C   C78       1.0  0.51004  0.06477  0.35474  1.0000
  C   C79       1.0  0.57349  0.46827  0.30597  1.0000
  C   C80       1.0  0.96803  0.07372  0.37993  1.0000
  H   H33       1.0  0.60709  0.10733  0.34293  1.0000
  C   C81       1.0  0.98909  0.48932  0.34298  1.0000
  C   C82       1.0  0.00024  0.44596  0.33123  1.0000
  C   C83       1.0  0.96882  0.41385  0.33779  1.0000
  C   C84       1.0  0.92612  0.42634  0.34295  1.0000
  C   C85       1.0  0.91363  0.46903  0.34812  1.0000
  C   C86       1.0  0.94574  0.00045  0.35474  1.0000
  C   C87       1.0  0.54227  0.43699  0.30615  1.0000
  H   H34       1.0  0.90319  0.40341  0.34294  1.0000
  C   C88       1.0  0.93678  0.04247  0.37992  1.0000
  H   H35       1.0  0.55050  0.40810  0.28157  1.0000
  H   H36       1.0  0.60242  0.46001  0.28158  1.0000
  H   H37       1.0  0.90786  0.05072  0.40432  1.0000
  H   H38       1.0  0.95977  0.10264  0.40434  1.0000
  N   N21       1.0  0.63927  0.03563  0.34233  1.0000
  N   N22       1.0  0.87101  0.47510  0.34355  1.0000
  C   C89       1.0  0.50677  0.30069  0.35220  1.0000
  C   C90       1.0  0.54242  0.27533  0.37418  1.0000
  C   C91       1.0  0.54027  0.23083  0.36485  1.0000
  H   H39       1.0  0.56640  0.21348  0.38155  1.0000
  N   N23       1.0  0.58016  0.29453  0.40540  1.0000
  O   O21       1.0  0.61074  0.28734  0.35367  1.0000
  O   O22       1.0  0.58960  0.28245  0.48350  1.0000
  C   C92       1.0  0.50807  0.34531  0.35929  1.0000
  H   H40       1.0  0.53487  0.35893  0.38379  1.0000
  C   C93       1.0  0.70982  0.00375  0.35217  1.0000
  C   C94       1.0  0.73517  0.96810  0.37421  1.0000
  C   C95       1.0  0.77967  0.97024  0.36485  1.0000
  H   H41       1.0  0.79702  0.94411  0.38160  1.0000
  N   N24       1.0  0.71597  0.93038  0.40552  1.0000
  O   O23       1.0  0.72805  0.92097  0.48364  1.0000
  O   O24       1.0  0.72315  0.89977  0.35386  1.0000
  C   C96       1.0  0.66519  0.00246  0.35930  1.0000
  H   H42       1.0  0.65156  0.97566  0.38379  1.0000
  N   N25       1.0  0.53538  0.63950  0.34357  1.0000
  N   N26       1.0  0.97489  0.87123  0.34237  1.0000
  C   C97       1.0  0.50351  0.71004  0.33378  1.0000
  C   C98       1.0  0.46785  0.73539  0.31178  1.0000
  C   C99       1.0  0.47000  0.77990  0.32113  1.0000
  H   H43       1.0  0.44388  0.79724  0.30442  1.0000
  N   N27       1.0  0.43012  0.71620  0.28056  1.0000
  O   O25       1.0  0.39953  0.72339  0.33230  1.0000
  O   O26       1.0  0.42068  0.72828  0.20247  1.0000
  C   C100      1.0  0.50219  0.66542  0.32668  1.0000
  H   H44       1.0  0.47541  0.65179  0.30213  1.0000
  C   C101      1.0  0.80046  0.50699  0.33372  1.0000
  C   C102      1.0  0.77511  0.54264  0.31167  1.0000
  C   C103      1.0  0.73060  0.54049  0.32104  1.0000
  H   H45       1.0  0.71326  0.56662  0.30429  1.0000
  N   N28       1.0  0.79431  0.58035  0.28036  1.0000
  O   O27       1.0  0.78222  0.58976  0.20225  1.0000
  O   O28       1.0  0.78713  0.61096  0.33203  1.0000
  C   C104      1.0  0.84509  0.50829  0.32661  1.0000
  H   H46       1.0  0.85871  0.53508  0.30208  1.0000
  C   C105      1.0  0.52118  0.52141  0.34297  1.0000
  C   C106      1.0  0.56454  0.01028  0.33119  1.0000
  C   C107      1.0  0.59665  0.54170  0.33775  1.0000
  C   C108      1.0  0.58416  0.58440  0.34293  1.0000
  C   C109      1.0  0.54146  0.59687  0.34810  1.0000
  C   C110      1.0  0.51004  0.56476  0.35474  1.0000
  C   C111      1.0  0.57349  0.96827  0.30597  1.0000
  C   C112      1.0  0.96803  0.57372  0.37993  1.0000
  H   H47       1.0  0.60709  0.60733  0.34293  1.0000
  C   C113      1.0  0.98909  0.98932  0.34298  1.0000
  C   C114      1.0  0.00024  0.94596  0.33123  1.0000
  C   C115      1.0  0.96882  0.91386  0.33779  1.0000
  C   C116      1.0  0.92612  0.92634  0.34295  1.0000
  C   C117      1.0  0.91363  0.96904  0.34812  1.0000
  C   C118      1.0  0.94574  0.50045  0.35474  1.0000
  C   C119      1.0  0.54227  0.93699  0.30615  1.0000
  H   H48       1.0  0.90319  0.90341  0.34294  1.0000
  C   C120      1.0  0.93678  0.54247  0.37992  1.0000
  H   H49       1.0  0.55050  0.90810  0.28157  1.0000
  H   H50       1.0  0.60242  0.96001  0.28158  1.0000
  H   H51       1.0  0.90786  0.55071  0.40432  1.0000
  H   H52       1.0  0.95977  0.60264  0.40434  1.0000
  N   N29       1.0  0.63927  0.53563  0.34233  1.0000
  N   N30       1.0  0.87101  0.97510  0.34355  1.0000
  C   C121      1.0  0.50677  0.80069  0.35220  1.0000
  C   C122      1.0  0.54242  0.77533  0.37418  1.0000
  C   C123      1.0  0.54027  0.73082  0.36485  1.0000
  H   H53       1.0  0.56640  0.71348  0.38155  1.0000
  N   N31       1.0  0.58016  0.79453  0.40540  1.0000
  O   O29       1.0  0.61074  0.78733  0.35367  1.0000
  O   O30       1.0  0.58960  0.78245  0.48350  1.0000
  C   C124      1.0  0.50807  0.84531  0.35929  1.0000
  H   H54       1.0  0.53487  0.85894  0.38379  1.0000
  C   C125      1.0  0.70982  0.50375  0.35217  1.0000
  C   C126      1.0  0.73517  0.46809  0.37421  1.0000
  C   C127      1.0  0.77967  0.47024  0.36485  1.0000
  H   H55       1.0  0.79702  0.44411  0.38160  1.0000
  N   N32       1.0  0.71597  0.43038  0.40552  1.0000
  O   O31       1.0  0.72805  0.42098  0.48364  1.0000
  O   O32       1.0  0.72315  0.39977  0.35386  1.0000
  C   C128      1.0  0.66519  0.50245  0.35930  1.0000
  H   H56       1.0  0.65156  0.47566  0.38379  1.0000
