data_image0
_chemical_formula_structural       NC2HNC2HNC2HNC2HCNCHCNCHNC2HNC2HCNCHCNCHNC2HNC2HNC2HNC2HCNCHCNCHCNCHCNCHCNCNCNCNCNCNCNCNCNCNCNCNCNCNCNCNCNCNCNCNCNCNCNCNCNCNCNCNCNCNCNCNCNCNCNCNCNCHCNCHCNCHCNCHNC2HNC2HCNCHCNCHNC2HNC2HCNCHCNCHCNCHCNCHNC2HNC2HNC2HNC2HNC2HNC2HNC2HNC2HCNCHCNCHNC2HNC2HCNCHCNCHNC2HNC2HNC2HNC2HCNCHCNCHCNCHCNCHCNCNCNCNCNCNCNCNCNCNCNCNCNCNCNCNCNCNCNCNCNCNCNCNCNCNCNCNCNCNCNCNCNCNCNCNCNCHCNCHCNCHCNCHNC2HNC2HCNCHCNCHNC2HNC2HCNCHCNCHCNCHCNCHNC2HNC2HNC2HNC2H
_chemical_formula_sum              "N144 C216 H72"
_cell_length_a       42.2178
_cell_length_b       54.7338
_cell_length_c       14.9161
_cell_angle_alpha    90
_cell_angle_beta     90
_cell_angle_gamma    90

_space_group_name_H-M_alt    "P 1"
_space_group_IT_number       1

loop_
  _space_group_symop_operation_xyz
  'x, y, z'

loop_
  _atom_site_type_symbol
  _atom_site_label
  _atom_site_symmetry_multiplicity
  _atom_site_fract_x
  _atom_site_fract_y
  _atom_site_fract_z
  _atom_site_occupancy
  N   N1        1.0  0.27081  0.19135  0.34404  1.0000
  C   C1        1.0  0.23922  0.19275  0.34506  1.0000
  C   C2        1.0  0.22034  0.17136  0.34351  1.0000
  H   H1        1.0  0.23001  0.20999  0.34652  1.0000
  N   N2        1.0  0.23513  0.81442  0.32227  1.0000
  C   C3        1.0  0.26673  0.81309  0.32127  1.0000
  C   C4        1.0  0.28556  0.83444  0.32787  1.0000
  H   H2        1.0  0.27599  0.79591  0.31670  1.0000
  N   N3        1.0  0.02053  0.69168  0.35095  1.0000
  C   C5        1.0  0.48892  0.69300  0.35252  1.0000
  C   C6        1.0  0.47010  0.67160  0.34835  1.0000
  H   H3        1.0  0.47963  0.71020  0.35575  1.0000
  N   N4        1.0  0.48480  0.31412  0.32496  1.0000
  C   C7        1.0  0.01641  0.31276  0.32430  1.0000
  C   C8        1.0  0.03524  0.33413  0.32990  1.0000
  H   H4        1.0  0.02569  0.29556  0.32053  1.0000
  C   C9        1.0  0.11454  0.11649  0.34080  1.0000
  N   N5        1.0  0.08995  0.10019  0.34045  1.0000
  C   C10       1.0  0.05913  0.10758  0.33910  1.0000
  H   H5        1.0  0.13711  0.10979  0.34195  1.0000
  C   C11       1.0  0.39141  0.88921  0.34080  1.0000
  N   N6        1.0  0.41603  0.90548  0.34211  1.0000
  C   C12       1.0  0.44682  0.89807  0.34499  1.0000
  H   H6        1.0  0.36886  0.89593  0.33817  1.0000
  N   N7        1.0  0.45400  0.13227  0.33572  1.0000
  C   C13       1.0  0.43083  0.14916  0.33529  1.0000
  C   C14       1.0  0.39860  0.14209  0.33666  1.0000
  H   H7        1.0  0.43769  0.16705  0.33432  1.0000
  N   N8        1.0  0.05201  0.87337  0.34594  1.0000
  C   C15       1.0  0.07519  0.85649  0.34459  1.0000
  C   C16       1.0  0.10740  0.86356  0.34141  1.0000
  H   H8        1.0  0.06833  0.83860  0.34542  1.0000
  C   C17       1.0  0.36427  0.61645  0.33991  1.0000
  N   N9        1.0  0.33964  0.60017  0.33928  1.0000
  C   C18       1.0  0.30883  0.60757  0.33658  1.0000
  H   H9        1.0  0.38682  0.60975  0.34237  1.0000
  C   C19       1.0  0.14101  0.38923  0.34040  1.0000
  N   N10       1.0  0.16561  0.40552  0.34154  1.0000
  C   C20       1.0  0.19643  0.39813  0.34405  1.0000
  H   H10       1.0  0.11844  0.39593  0.33816  1.0000
  N   N11       1.0  0.20363  0.63230  0.33308  1.0000
  C   C21       1.0  0.18047  0.64919  0.33303  1.0000
  C   C22       1.0  0.14823  0.64217  0.33586  1.0000
  H   H11       1.0  0.18738  0.66707  0.33144  1.0000
  N   N12       1.0  0.30166  0.37342  0.34522  1.0000
  C   C23       1.0  0.32482  0.35652  0.34404  1.0000
  C   C24       1.0  0.35706  0.36356  0.34127  1.0000
  H   H12       1.0  0.31792  0.33864  0.34475  1.0000
  N   N13       1.0  0.09707  0.26013  0.33492  1.0000
  C   C25       1.0  0.10422  0.23598  0.33613  1.0000
  C   C26       1.0  0.13608  0.22825  0.34063  1.0000
  H   H13       1.0  0.08605  0.22366  0.33350  1.0000
  N   N14       1.0  0.35517  0.73476  0.33076  1.0000
  C   C27       1.0  0.34669  0.75864  0.32844  1.0000
  C   C28       1.0  0.36961  0.77748  0.33649  1.0000
  H   H14       1.0  0.32320  0.76250  0.32063  1.0000
  C   C29       1.0  0.40161  0.23620  0.33232  1.0000
  N   N15       1.0  0.40831  0.26045  0.33156  1.0000
  C   C30       1.0  0.38545  0.27797  0.33482  1.0000
  H   H15       1.0  0.42001  0.22410  0.32964  1.0000
  C   C31       1.0  0.15906  0.75887  0.33068  1.0000
  N   N16       1.0  0.15073  0.73494  0.33221  1.0000
  C   C32       1.0  0.12004  0.72777  0.33746  1.0000
  H   H16       1.0  0.18265  0.76288  0.32679  1.0000
  C   C33       1.0  0.97482  0.01469  0.34084  1.0000
  N   N17       1.0  0.97527  0.98987  0.34162  1.0000
  C   C34       1.0  0.00266  0.97679  0.34253  1.0000
  H   H17       1.0  0.95325  0.02314  0.34013  1.0000
  C   C35       1.0  0.22444  0.51474  0.34026  1.0000
  N   N18       1.0  0.22490  0.48991  0.34112  1.0000
  C   C36       1.0  0.25228  0.47684  0.34214  1.0000
  H   H18       1.0  0.20287  0.52318  0.33941  1.0000
  C   C37       1.0  0.18689  0.17368  0.34294  1.0000
  N   N19       1.0  0.16492  0.15530  0.34187  1.0000
  C   C38       1.0  0.13304  0.16020  0.34070  1.0000
  N   N20       1.0  0.12402  0.18421  0.34037  1.0000
  C   C39       1.0  0.14467  0.20310  0.34141  1.0000
  N   N21       1.0  0.17540  0.19682  0.34265  1.0000
  C   C40       1.0  0.31900  0.83212  0.33092  1.0000
  N   N22       1.0  0.34097  0.85047  0.33518  1.0000
  C   C41       1.0  0.37282  0.84552  0.33912  1.0000
  N   N23       1.0  0.38179  0.82151  0.33936  1.0000
  C   C42       1.0  0.36112  0.80265  0.33541  1.0000
  N   N24       1.0  0.33044  0.80898  0.33127  1.0000
  C   C43       1.0  0.32046  0.17276  0.34026  1.0000
  N   N25       1.0  0.34268  0.15465  0.33899  1.0000
  C   C44       1.0  0.37439  0.16005  0.33719  1.0000
  N   N26       1.0  0.38290  0.18417  0.33644  1.0000
  C   C45       1.0  0.36179  0.20281  0.33755  1.0000
  N   N27       1.0  0.33115  0.19616  0.33952  1.0000
  C   C46       1.0  0.18546  0.83288  0.33098  1.0000
  N   N28       1.0  0.16329  0.85100  0.33517  1.0000
  C   C47       1.0  0.13159  0.84562  0.33836  1.0000
  N   N29       1.0  0.12307  0.82150  0.33792  1.0000
  C   C48       1.0  0.14412  0.80286  0.33405  1.0000
  N   N30       1.0  0.17477  0.80948  0.33056  1.0000
  C   C49       1.0  0.43663  0.67385  0.34636  1.0000
  N   N31       1.0  0.41474  0.65539  0.34328  1.0000
  C   C50       1.0  0.38282  0.66018  0.33999  1.0000
  N   N32       1.0  0.37367  0.68415  0.33924  1.0000
  C   C51       1.0  0.39435  0.70295  0.34225  1.0000
  N   N33       1.0  0.42513  0.69699  0.34577  1.0000
  C   C52       1.0  0.06869  0.33183  0.33263  1.0000
  N   N34       1.0  0.09058  0.35029  0.33593  1.0000
  C   C53       1.0  0.12249  0.34549  0.33925  1.0000
  N   N35       1.0  0.13164  0.32153  0.33975  1.0000
  C   C54       1.0  0.11097  0.30273  0.33686  1.0000
  N   N36       1.0  0.08018  0.30868  0.33330  1.0000
  C   C55       1.0  0.07022  0.67316  0.34345  1.0000
  N   N37       1.0  0.09232  0.65494  0.34066  1.0000
  C   C56       1.0  0.12407  0.66017  0.33739  1.0000
  N   N38       1.0  0.13277  0.68425  0.33639  1.0000
  C   C57       1.0  0.11169  0.70284  0.33883  1.0000
  N   N39       1.0  0.08095  0.69656  0.34249  1.0000
  C   C58       1.0  0.43511  0.33266  0.33211  1.0000
  N   N40       1.0  0.41298  0.35085  0.33579  1.0000
  C   C59       1.0  0.38122  0.34557  0.33853  1.0000
  N   N41       1.0  0.37256  0.32149  0.33802  1.0000
  C   C60       1.0  0.39367  0.30294  0.33456  1.0000
  N   N42       1.0  0.42439  0.30925  0.33160  1.0000
  C   C61       1.0  0.03226  0.09226  0.33894  1.0000
  N   N43       1.0  0.03158  0.06738  0.34001  1.0000
  C   C62       1.0  0.00360  0.05457  0.34006  1.0000
  N   N44       1.0  0.47581  0.06758  0.33912  1.0000
  C   C63       1.0  0.47542  0.09243  0.33795  1.0000
  N   N45       1.0  0.00389  0.10367  0.33790  1.0000
  C   C64       1.0  0.47370  0.91338  0.34526  1.0000
  N   N46       1.0  0.47430  0.93826  0.34390  1.0000
  C   C65       1.0  0.50237  0.95090  0.34349  1.0000
  N   N47       1.0  0.03026  0.93807  0.34393  1.0000
  C   C66       1.0  0.03058  0.91321  0.34522  1.0000
  N   N48       1.0  0.50209  0.90197  0.34593  1.0000
  C   C67       1.0  0.28192  0.59229  0.33666  1.0000
  N   N49       1.0  0.28121  0.56742  0.33854  1.0000
  C   C68       1.0  0.25323  0.55462  0.33902  1.0000
  N   N50       1.0  0.22544  0.56763  0.33792  1.0000
  C   C69       1.0  0.22506  0.59248  0.33602  1.0000
  N   N51       1.0  0.25354  0.60371  0.33539  1.0000
  C   C70       1.0  0.22332  0.41344  0.34437  1.0000
  N   N52       1.0  0.22394  0.43831  0.34325  1.0000
  C   C71       1.0  0.25200  0.45095  0.34302  1.0000
  N   N53       1.0  0.27990  0.43812  0.34347  1.0000
  C   C72       1.0  0.28023  0.41326  0.34455  1.0000
  N   N54       1.0  0.25173  0.40202  0.34504  1.0000
  C   C73       1.0  0.23759  0.14911  0.34197  1.0000
  N   N55       1.0  0.27007  0.14903  0.34111  1.0000
  C   C74       1.0  0.28727  0.17013  0.34192  1.0000
  H   H19       1.0  0.22593  0.13277  0.34083  1.0000
  C   C75       1.0  0.26826  0.85664  0.33241  1.0000
  N   N56       1.0  0.23578  0.85666  0.33297  1.0000
  C   C76       1.0  0.21864  0.83556  0.32839  1.0000
  H   H20       1.0  0.27989  0.87295  0.33718  1.0000
  C   C77       1.0  0.48742  0.64940  0.34502  1.0000
  N   N57       1.0  0.01990  0.64939  0.34384  1.0000
  C   C78       1.0  0.03703  0.67052  0.34636  1.0000
  H   H21       1.0  0.47581  0.63305  0.34198  1.0000
  C   C79       1.0  0.01795  0.35634  0.33354  1.0000
  N   N58       1.0  0.48547  0.35638  0.33390  1.0000
  C   C80       1.0  0.46831  0.33529  0.32999  1.0000
  H   H22       1.0  0.02958  0.37266  0.33758  1.0000
  N   N59       1.0  0.05370  0.13203  0.33811  1.0000
  C   C81       1.0  0.07674  0.14899  0.33842  1.0000
  C   C82       1.0  0.10903  0.14207  0.33993  1.0000
  H   H23       1.0  0.06970  0.16684  0.33765  1.0000
  N   N60       1.0  0.45220  0.87361  0.34680  1.0000
  C   C83       1.0  0.42912  0.85667  0.34575  1.0000
  C   C84       1.0  0.39686  0.86362  0.34212  1.0000
  H   H24       1.0  0.43612  0.83882  0.34703  1.0000
  C   C85       1.0  0.39323  0.11650  0.33794  1.0000
  N   N61       1.0  0.41788  0.10029  0.33820  1.0000
  C   C86       1.0  0.44863  0.10781  0.33718  1.0000
  H   H25       1.0  0.37070  0.10971  0.33897  1.0000
  C   C87       1.0  0.11276  0.88916  0.34070  1.0000
  N   N62       1.0  0.08810  0.90536  0.34219  1.0000
  C   C88       1.0  0.05737  0.89784  0.34476  1.0000
  H   H26       1.0  0.13528  0.89596  0.33840  1.0000
  N   N63       1.0  0.30345  0.63202  0.33432  1.0000
  C   C89       1.0  0.32653  0.64895  0.33473  1.0000
  C   C90       1.0  0.35881  0.64204  0.33801  1.0000
  H   H27       1.0  0.31949  0.66680  0.33308  1.0000
  N   N64       1.0  0.20184  0.37368  0.34559  1.0000
  C   C91       1.0  0.17877  0.35674  0.34468  1.0000
  C   C92       1.0  0.14649  0.36365  0.34159  1.0000
  H   H28       1.0  0.18583  0.33889  0.34582  1.0000
  C   C93       1.0  0.14284  0.61658  0.33781  1.0000
  N   N65       1.0  0.16749  0.60036  0.33762  1.0000
  C   C94       1.0  0.19825  0.60784  0.33537  1.0000
  H   H29       1.0  0.12031  0.60981  0.33994  1.0000
  C   C95       1.0  0.36244  0.38916  0.34072  1.0000
  N   N66       1.0  0.33779  0.40537  0.34203  1.0000
  C   C96       1.0  0.30702  0.39788  0.34421  1.0000
  H   H30       1.0  0.38497  0.39593  0.33872  1.0000
  C   C97       1.0  0.15906  0.24715  0.34379  1.0000
  N   N67       1.0  0.15043  0.27101  0.34242  1.0000
  C   C98       1.0  0.11963  0.27789  0.33794  1.0000
  H   H31       1.0  0.18270  0.24336  0.34721  1.0000
  C   C99       1.0  0.40127  0.76967  0.34672  1.0000
  N   N68       1.0  0.40828  0.74550  0.34847  1.0000
  C   C100      1.0  0.38578  0.72780  0.34081  1.0000
  H   H32       1.0  0.41937  0.78193  0.35325  1.0000
  N   N69       1.0  0.35478  0.27070  0.33909  1.0000
  C   C101      1.0  0.34659  0.24674  0.34000  1.0000
  C   C102      1.0  0.36990  0.22808  0.33670  1.0000
  H   H33       1.0  0.32301  0.24266  0.34335  1.0000
  N   N70       1.0  0.09729  0.74538  0.34112  1.0000
  C   C103      1.0  0.10412  0.76959  0.33987  1.0000
  C   C104      1.0  0.13587  0.77761  0.33458  1.0000
  H   H34       1.0  0.08580  0.78175  0.34306  1.0000
  N   N71       1.0  0.03036  0.98949  0.34273  1.0000
  C   C105      1.0  0.03144  0.01430  0.34200  1.0000
  C   C106      1.0  0.00330  0.02839  0.34099  1.0000
  H   H35       1.0  0.05320  0.02245  0.34219  1.0000
  N   N72       1.0  0.27998  0.48954  0.34236  1.0000
  C   C107      1.0  0.28106  0.51435  0.34154  1.0000
  C   C108      1.0  0.25292  0.52844  0.34038  1.0000
  H   H36       1.0  0.30283  0.52250  0.34170  1.0000
  N   N73       1.0  0.77081  0.19135  0.34404  1.0000
  C   C109      1.0  0.73922  0.19275  0.34506  1.0000
  C   C110      1.0  0.72035  0.17136  0.34351  1.0000
  H   H37       1.0  0.73001  0.20999  0.34652  1.0000
  N   N74       1.0  0.73513  0.81442  0.32227  1.0000
  C   C111      1.0  0.76673  0.81309  0.32127  1.0000
  C   C112      1.0  0.78556  0.83444  0.32787  1.0000
  H   H38       1.0  0.77599  0.79591  0.31670  1.0000
  N   N75       1.0  0.52053  0.69168  0.35095  1.0000
  C   C113      1.0  0.98892  0.69300  0.35252  1.0000
  C   C114      1.0  0.97010  0.67160  0.34835  1.0000
  H   H39       1.0  0.97963  0.71020  0.35575  1.0000
  N   N76       1.0  0.98480  0.31412  0.32496  1.0000
  C   C115      1.0  0.51641  0.31276  0.32430  1.0000
  C   C116      1.0  0.53524  0.33413  0.32990  1.0000
  H   H40       1.0  0.52569  0.29556  0.32053  1.0000
  C   C117      1.0  0.61454  0.11649  0.34080  1.0000
  N   N77       1.0  0.58995  0.10019  0.34045  1.0000
  C   C118      1.0  0.55913  0.10758  0.33910  1.0000
  H   H41       1.0  0.63711  0.10979  0.34195  1.0000
  C   C119      1.0  0.89141  0.88921  0.34080  1.0000
  N   N78       1.0  0.91603  0.90548  0.34211  1.0000
  C   C120      1.0  0.94682  0.89807  0.34499  1.0000
  H   H42       1.0  0.86886  0.89593  0.33817  1.0000
  N   N79       1.0  0.95400  0.13227  0.33572  1.0000
  C   C121      1.0  0.93083  0.14916  0.33529  1.0000
  C   C122      1.0  0.89860  0.14209  0.33666  1.0000
  H   H43       1.0  0.93769  0.16705  0.33432  1.0000
  N   N80       1.0  0.55202  0.87337  0.34594  1.0000
  C   C123      1.0  0.57519  0.85649  0.34459  1.0000
  C   C124      1.0  0.60740  0.86356  0.34141  1.0000
  H   H44       1.0  0.56833  0.83860  0.34542  1.0000
  C   C125      1.0  0.86427  0.61645  0.33991  1.0000
  N   N81       1.0  0.83964  0.60017  0.33928  1.0000
  C   C126      1.0  0.80883  0.60757  0.33658  1.0000
  H   H45       1.0  0.88682  0.60975  0.34237  1.0000
  C   C127      1.0  0.64101  0.38923  0.34040  1.0000
  N   N82       1.0  0.66561  0.40552  0.34154  1.0000
  C   C128      1.0  0.69643  0.39813  0.34405  1.0000
  H   H46       1.0  0.61844  0.39593  0.33816  1.0000
  N   N83       1.0  0.70363  0.63230  0.33308  1.0000
  C   C129      1.0  0.68047  0.64919  0.33303  1.0000
  C   C130      1.0  0.64823  0.64217  0.33586  1.0000
  H   H47       1.0  0.68738  0.66707  0.33144  1.0000
  N   N84       1.0  0.80166  0.37342  0.34522  1.0000
  C   C131      1.0  0.82482  0.35652  0.34404  1.0000
  C   C132      1.0  0.85706  0.36356  0.34127  1.0000
  H   H48       1.0  0.81792  0.33864  0.34475  1.0000
  N   N85       1.0  0.59707  0.26013  0.33492  1.0000
  C   C133      1.0  0.60422  0.23598  0.33613  1.0000
  C   C134      1.0  0.63608  0.22825  0.34063  1.0000
  H   H49       1.0  0.58605  0.22366  0.33350  1.0000
  N   N86       1.0  0.85518  0.73476  0.33076  1.0000
  C   C135      1.0  0.84669  0.75864  0.32844  1.0000
  C   C136      1.0  0.86961  0.77748  0.33649  1.0000
  H   H50       1.0  0.82320  0.76250  0.32063  1.0000
  C   C137      1.0  0.90161  0.23620  0.33232  1.0000
  N   N87       1.0  0.90831  0.26045  0.33156  1.0000
  C   C138      1.0  0.88545  0.27797  0.33482  1.0000
  H   H51       1.0  0.92001  0.22410  0.32964  1.0000
  C   C139      1.0  0.65906  0.75887  0.33068  1.0000
  N   N88       1.0  0.65073  0.73494  0.33221  1.0000
  C   C140      1.0  0.62004  0.72777  0.33746  1.0000
  H   H52       1.0  0.68265  0.76288  0.32679  1.0000
  C   C141      1.0  0.47482  0.01469  0.34084  1.0000
  N   N89       1.0  0.47527  0.98987  0.34162  1.0000
  C   C142      1.0  0.50266  0.97679  0.34253  1.0000
  H   H53       1.0  0.45325  0.02314  0.34013  1.0000
  C   C143      1.0  0.72444  0.51474  0.34026  1.0000
  N   N90       1.0  0.72490  0.48991  0.34112  1.0000
  C   C144      1.0  0.75228  0.47684  0.34214  1.0000
  H   H54       1.0  0.70287  0.52318  0.33941  1.0000
  C   C145      1.0  0.68689  0.17368  0.34294  1.0000
  N   N91       1.0  0.66493  0.15530  0.34187  1.0000
  C   C146      1.0  0.63304  0.16020  0.34070  1.0000
  N   N92       1.0  0.62402  0.18421  0.34037  1.0000
  C   C147      1.0  0.64467  0.20310  0.34141  1.0000
  N   N93       1.0  0.67540  0.19682  0.34265  1.0000
  C   C148      1.0  0.81900  0.83212  0.33092  1.0000
  N   N94       1.0  0.84097  0.85047  0.33518  1.0000
  C   C149      1.0  0.87282  0.84552  0.33912  1.0000
  N   N95       1.0  0.88179  0.82151  0.33936  1.0000
  C   C150      1.0  0.86112  0.80265  0.33541  1.0000
  N   N96       1.0  0.83044  0.80898  0.33127  1.0000
  C   C151      1.0  0.82046  0.17276  0.34026  1.0000
  N   N97       1.0  0.84267  0.15465  0.33899  1.0000
  C   C152      1.0  0.87439  0.16005  0.33719  1.0000
  N   N98       1.0  0.88290  0.18417  0.33644  1.0000
  C   C153      1.0  0.86179  0.20281  0.33755  1.0000
  N   N99       1.0  0.83115  0.19616  0.33952  1.0000
  C   C154      1.0  0.68546  0.83288  0.33098  1.0000
  N   N100      1.0  0.66329  0.85100  0.33517  1.0000
  C   C155      1.0  0.63159  0.84562  0.33836  1.0000
  N   N101      1.0  0.62307  0.82150  0.33792  1.0000
  C   C156      1.0  0.64412  0.80286  0.33405  1.0000
  N   N102      1.0  0.67476  0.80948  0.33056  1.0000
  C   C157      1.0  0.93664  0.67385  0.34636  1.0000
  N   N103      1.0  0.91474  0.65539  0.34328  1.0000
  C   C158      1.0  0.88282  0.66018  0.33999  1.0000
  N   N104      1.0  0.87367  0.68415  0.33924  1.0000
  C   C159      1.0  0.89435  0.70295  0.34225  1.0000
  N   N105      1.0  0.92513  0.69699  0.34577  1.0000
  C   C160      1.0  0.56869  0.33183  0.33263  1.0000
  N   N106      1.0  0.59057  0.35029  0.33593  1.0000
  C   C161      1.0  0.62249  0.34549  0.33925  1.0000
  N   N107      1.0  0.63164  0.32153  0.33975  1.0000
  C   C162      1.0  0.61097  0.30273  0.33686  1.0000
  N   N108      1.0  0.58018  0.30868  0.33330  1.0000
  C   C163      1.0  0.57022  0.67316  0.34345  1.0000
  N   N109      1.0  0.59232  0.65494  0.34066  1.0000
  C   C164      1.0  0.62408  0.66017  0.33739  1.0000
  N   N110      1.0  0.63277  0.68425  0.33639  1.0000
  C   C165      1.0  0.61169  0.70284  0.33883  1.0000
  N   N111      1.0  0.58095  0.69656  0.34249  1.0000
  C   C166      1.0  0.93511  0.33266  0.33211  1.0000
  N   N112      1.0  0.91298  0.35085  0.33579  1.0000
  C   C167      1.0  0.88122  0.34557  0.33853  1.0000
  N   N113      1.0  0.87256  0.32149  0.33802  1.0000
  C   C168      1.0  0.89367  0.30294  0.33456  1.0000
  N   N114      1.0  0.92439  0.30925  0.33160  1.0000
  C   C169      1.0  0.53226  0.09226  0.33894  1.0000
  N   N115      1.0  0.53158  0.06738  0.34001  1.0000
  C   C170      1.0  0.50360  0.05457  0.34006  1.0000
  N   N116      1.0  0.97581  0.06758  0.33912  1.0000
  C   C171      1.0  0.97542  0.09243  0.33795  1.0000
  N   N117      1.0  0.50389  0.10367  0.33790  1.0000
  C   C172      1.0  0.97370  0.91338  0.34526  1.0000
  N   N118      1.0  0.97430  0.93826  0.34390  1.0000
  C   C173      1.0  0.00237  0.95090  0.34349  1.0000
  N   N119      1.0  0.53026  0.93807  0.34393  1.0000
  C   C174      1.0  0.53058  0.91321  0.34522  1.0000
  N   N120      1.0  0.00209  0.90197  0.34593  1.0000
  C   C175      1.0  0.78192  0.59229  0.33666  1.0000
  N   N121      1.0  0.78121  0.56742  0.33854  1.0000
  C   C176      1.0  0.75323  0.55462  0.33902  1.0000
  N   N122      1.0  0.72544  0.56763  0.33792  1.0000
  C   C177      1.0  0.72506  0.59248  0.33602  1.0000
  N   N123      1.0  0.75354  0.60371  0.33539  1.0000
  C   C178      1.0  0.72332  0.41344  0.34437  1.0000
  N   N124      1.0  0.72394  0.43831  0.34325  1.0000
  C   C179      1.0  0.75200  0.45095  0.34302  1.0000
  N   N125      1.0  0.77990  0.43812  0.34347  1.0000
  C   C180      1.0  0.78023  0.41326  0.34455  1.0000
  N   N126      1.0  0.75173  0.40202  0.34504  1.0000
  C   C181      1.0  0.73759  0.14911  0.34197  1.0000
  N   N127      1.0  0.77007  0.14903  0.34111  1.0000
  C   C182      1.0  0.78727  0.17013  0.34192  1.0000
  H   H55       1.0  0.72593  0.13277  0.34083  1.0000
  C   C183      1.0  0.76826  0.85664  0.33241  1.0000
  N   N128      1.0  0.73578  0.85666  0.33297  1.0000
  C   C184      1.0  0.71863  0.83556  0.32839  1.0000
  H   H56       1.0  0.77989  0.87295  0.33718  1.0000
  C   C185      1.0  0.98742  0.64940  0.34502  1.0000
  N   N129      1.0  0.51990  0.64939  0.34384  1.0000
  C   C186      1.0  0.53703  0.67052  0.34636  1.0000
  H   H57       1.0  0.97581  0.63305  0.34198  1.0000
  C   C187      1.0  0.51795  0.35634  0.33354  1.0000
  N   N130      1.0  0.98547  0.35638  0.33390  1.0000
  C   C188      1.0  0.96831  0.33529  0.32999  1.0000
  H   H58       1.0  0.52958  0.37266  0.33758  1.0000
  N   N131      1.0  0.55370  0.13203  0.33811  1.0000
  C   C189      1.0  0.57674  0.14899  0.33842  1.0000
  C   C190      1.0  0.60903  0.14207  0.33993  1.0000
  H   H59       1.0  0.56970  0.16684  0.33765  1.0000
  N   N132      1.0  0.95220  0.87361  0.34680  1.0000
  C   C191      1.0  0.92912  0.85667  0.34575  1.0000
  C   C192      1.0  0.89686  0.86362  0.34212  1.0000
  H   H60       1.0  0.93612  0.83882  0.34703  1.0000
  C   C193      1.0  0.89323  0.11650  0.33794  1.0000
  N   N133      1.0  0.91788  0.10029  0.33820  1.0000
  C   C194      1.0  0.94863  0.10781  0.33718  1.0000
  H   H61       1.0  0.87070  0.10971  0.33897  1.0000
  C   C195      1.0  0.61276  0.88916  0.34070  1.0000
  N   N134      1.0  0.58810  0.90536  0.34219  1.0000
  C   C196      1.0  0.55737  0.89784  0.34476  1.0000
  H   H62       1.0  0.63528  0.89596  0.33840  1.0000
  N   N135      1.0  0.80345  0.63202  0.33432  1.0000
  C   C197      1.0  0.82653  0.64895  0.33473  1.0000
  C   C198      1.0  0.85881  0.64204  0.33801  1.0000
  H   H63       1.0  0.81949  0.66680  0.33308  1.0000
  N   N136      1.0  0.70184  0.37368  0.34559  1.0000
  C   C199      1.0  0.67877  0.35674  0.34468  1.0000
  C   C200      1.0  0.64648  0.36365  0.34159  1.0000
  H   H64       1.0  0.68583  0.33889  0.34582  1.0000
  C   C201      1.0  0.64284  0.61658  0.33781  1.0000
  N   N137      1.0  0.66749  0.60036  0.33762  1.0000
  C   C202      1.0  0.69825  0.60784  0.33537  1.0000
  H   H65       1.0  0.62031  0.60981  0.33994  1.0000
  C   C203      1.0  0.86244  0.38916  0.34072  1.0000
  N   N138      1.0  0.83779  0.40537  0.34203  1.0000
  C   C204      1.0  0.80702  0.39788  0.34421  1.0000
  H   H66       1.0  0.88497  0.39593  0.33872  1.0000
  C   C205      1.0  0.65906  0.24715  0.34379  1.0000
  N   N139      1.0  0.65043  0.27101  0.34242  1.0000
  C   C206      1.0  0.61963  0.27789  0.33794  1.0000
  H   H67       1.0  0.68270  0.24336  0.34721  1.0000
  C   C207      1.0  0.90127  0.76967  0.34672  1.0000
  N   N140      1.0  0.90828  0.74550  0.34847  1.0000
  C   C208      1.0  0.88578  0.72780  0.34081  1.0000
  H   H68       1.0  0.91937  0.78193  0.35325  1.0000
  N   N141      1.0  0.85478  0.27070  0.33909  1.0000
  C   C209      1.0  0.84659  0.24674  0.34000  1.0000
  C   C210      1.0  0.86990  0.22808  0.33670  1.0000
  H   H69       1.0  0.82301  0.24266  0.34335  1.0000
  N   N142      1.0  0.59729  0.74538  0.34112  1.0000
  C   C211      1.0  0.60412  0.76959  0.33987  1.0000
  C   C212      1.0  0.63587  0.77761  0.33458  1.0000
  H   H70       1.0  0.58580  0.78175  0.34306  1.0000
  N   N143      1.0  0.53036  0.98949  0.34273  1.0000
  C   C213      1.0  0.53144  0.01430  0.34200  1.0000
  C   C214      1.0  0.50330  0.02839  0.34099  1.0000
  H   H71       1.0  0.55320  0.02245  0.34219  1.0000
  N   N144      1.0  0.77998  0.48954  0.34236  1.0000
  C   C215      1.0  0.78106  0.51435  0.34154  1.0000
  C   C216      1.0  0.75292  0.52844  0.34038  1.0000
  H   H72       1.0  0.80282  0.52250  0.34170  1.0000
