data_image0
_chemical_formula_structural       C15H12CNCOCH3CNCOCH3C2NC2NC5NC3NC17H14NC2OCH3NC2OCH3C15H12CNCOCH3CNCOCH3C2NC2NC5NC3NC17H14NC2OCH3NC2OCH3C15H12CNCOCH3CNCOCH3C2NC2NC5NC3NC17H14NC2OCH3NC2OCH3C15H12CNCOCH3CNCOCH3C2NC2NC5NC3NC17H14NC2OCH3NC2OCH3
_chemical_formula_sum              "C224 H152 N32 O16"
_cell_length_a       42.7434
_cell_length_b       42.7434
_cell_length_c       14.9457
_cell_angle_alpha    90
_cell_angle_beta     90
_cell_angle_gamma    90

_space_group_name_H-M_alt    "P 1"
_space_group_IT_number       1

loop_
  _space_group_symop_operation_xyz
  'x, y, z'

loop_
  _atom_site_type_symbol
  _atom_site_label
  _atom_site_symmetry_multiplicity
  _atom_site_fract_x
  _atom_site_fract_y
  _atom_site_fract_z
  _atom_site_occupancy
  C   C1        1.0  0.43218  0.46975  0.33727  1.0000
  C   C2        1.0  0.02847  0.43149  0.33419  1.0000
  C   C3        1.0  0.49820  0.08098  0.33798  1.0000
  C   C4        1.0  0.46859  0.06578  0.33939  1.0000
  C   C5        1.0  0.41662  0.05778  0.34010  1.0000
  C   C6        1.0  0.43944  0.08056  0.34179  1.0000
  C   C7        1.0  0.33372  0.48783  0.25631  1.0000
  C   C8        1.0  0.36662  0.48878  0.25822  1.0000
  C   C9        1.0  0.49837  0.11450  0.33555  1.0000
  C   C10       1.0  0.48679  0.16363  0.25758  1.0000
  C   C11       1.0  0.48764  0.13073  0.25918  1.0000
  C   C12       1.0  0.13207  0.00847  0.26328  1.0000
  C   C13       1.0  0.16500  0.00860  0.26637  1.0000
  C   C14       1.0  0.00764  0.36508  0.26243  1.0000
  C   C15       1.0  0.00763  0.33217  0.26566  1.0000
  H   H1        1.0  0.01517  0.32046  0.20998  1.0000
  H   H2        1.0  0.01479  0.37604  0.20505  1.0000
  H   H3        1.0  0.43572  0.39426  0.33443  1.0000
  H   H4        1.0  0.12106  0.01619  0.20660  1.0000
  H   H5        1.0  0.17666  0.01680  0.21137  1.0000
  H   H6        1.0  0.06138  0.10308  0.33557  1.0000
  H   H7        1.0  0.39314  0.06226  0.34007  1.0000
  H   H8        1.0  0.43498  0.10404  0.34345  1.0000
  H   H9        1.0  0.47952  0.11861  0.20483  1.0000
  H   H10       1.0  0.47706  0.17391  0.20270  1.0000
  H   H11       1.0  0.37883  0.48143  0.20314  1.0000
  H   H12       1.0  0.32352  0.47874  0.20044  1.0000
  C   C16       1.0  0.99783  0.21548  0.32970  1.0000
  N   N1        1.0  0.99774  0.26649  0.26415  1.0000
  C   C17       1.0  0.99818  0.23497  0.25279  1.0000
  O   O1        1.0  0.99918  0.22443  0.16655  1.0000
  C   C18       1.0  0.03040  0.22213  0.13141  1.0000
  H   H13       1.0  0.04191  0.24496  0.12976  1.0000
  H   H14       1.0  0.52888  0.21341  0.06301  1.0000
  H   H15       1.0  0.04460  0.20574  0.17019  1.0000
  C   C19       1.0  0.28177  0.99794  0.32912  1.0000
  N   N2        1.0  0.23075  0.99855  0.26355  1.0000
  C   C20       1.0  0.26228  0.99904  0.25225  1.0000
  O   O2        1.0  0.27283  0.00077  0.16611  1.0000
  C   C21       1.0  0.27548  0.03230  0.13349  1.0000
  H   H16       1.0  0.25278  0.04408  0.13285  1.0000
  H   H17       1.0  0.28416  0.53135  0.06497  1.0000
  H   H18       1.0  0.29204  0.04593  0.17335  1.0000
  C   C22       1.0  0.44033  0.41771  0.33574  1.0000
  C   C23       1.0  0.41754  0.44052  0.33779  1.0000
  N   N3        1.0  0.46331  0.46346  0.33675  1.0000
  C   C24       1.0  0.46958  0.43233  0.33620  1.0000
  C   C25       1.0  0.49884  0.41635  0.33543  1.0000
  N   N4        1.0  0.03457  0.46256  0.33470  1.0000
  C   C26       1.0  0.06563  0.46864  0.33405  1.0000
  C   C27       1.0  0.08039  0.43948  0.33171  1.0000
  C   C28       1.0  0.05759  0.41668  0.33336  1.0000
  C   C29       1.0  0.08086  0.49824  0.33533  1.0000
  C   C30       1.0  0.06494  0.02756  0.33613  1.0000
  N   N5        1.0  0.03381  0.03389  0.33664  1.0000
  C   C31       1.0  0.02751  0.06503  0.33715  1.0000
  C   C32       1.0  0.05677  0.07963  0.33603  1.0000
  C   C33       1.0  0.07957  0.05680  0.33717  1.0000
  N   N6        1.0  0.46248  0.03471  0.33876  1.0000
  C   C34       1.0  0.43141  0.02864  0.33933  1.0000
  C   C35       1.0  0.41623  0.49904  0.33801  1.0000
  C   C36       1.0  0.38273  0.49874  0.33565  1.0000
  C   C37       1.0  0.36493  0.00788  0.41078  1.0000
  C   C38       1.0  0.33202  0.00787  0.40744  1.0000
  C   C39       1.0  0.31543  0.49803  0.32999  1.0000
  C   C40       1.0  0.00850  0.13222  0.40984  1.0000
  C   C41       1.0  0.00862  0.16514  0.40667  1.0000
  C   C42       1.0  0.49791  0.18182  0.33035  1.0000
  C   C43       1.0  0.11438  0.49839  0.33766  1.0000
  C   C44       1.0  0.18170  0.49795  0.34271  1.0000
  C   C45       1.0  0.16354  0.48684  0.41555  1.0000
  C   C46       1.0  0.13063  0.48767  0.41402  1.0000
  C   C47       1.0  0.49852  0.38284  0.33767  1.0000
  C   C48       1.0  0.48861  0.36671  0.41509  1.0000
  C   C49       1.0  0.48766  0.33380  0.41687  1.0000
  C   C50       1.0  0.49784  0.31555  0.34311  1.0000
  H   H19       1.0  0.47862  0.32357  0.47277  1.0000
  H   H20       1.0  0.48127  0.37889  0.47023  1.0000
  H   H21       1.0  0.39409  0.43592  0.33914  1.0000
  H   H22       1.0  0.47920  0.47934  0.33674  1.0000
  H   H23       1.0  0.01792  0.01801  0.33666  1.0000
  H   H24       1.0  0.06205  0.39320  0.33336  1.0000
  H   H25       1.0  0.10386  0.43500  0.32991  1.0000
  H   H26       1.0  0.11854  0.47959  0.46845  1.0000
  H   H27       1.0  0.17385  0.47716  0.47046  1.0000
  H   H28       1.0  0.10302  0.06139  0.33784  1.0000
  H   H29       1.0  0.01622  0.12122  0.46655  1.0000
  H   H30       1.0  0.01683  0.17681  0.46163  1.0000
  H   H31       1.0  0.32029  0.01542  0.46307  1.0000
  H   H32       1.0  0.37586  0.01507  0.46819  1.0000
  N   N7        1.0  0.99864  0.23088  0.40945  1.0000
  C   C51       1.0  0.99911  0.26241  0.42075  1.0000
  C   C52       1.0  0.99781  0.28190  0.34391  1.0000
  O   O3        1.0  0.00105  0.27298  0.50685  1.0000
  C   C53       1.0  0.03266  0.27574  0.53872  1.0000
  H   H33       1.0  0.04453  0.25309  0.53908  1.0000
  H   H34       1.0  0.53187  0.28442  0.60727  1.0000
  H   H35       1.0  0.04610  0.29236  0.49856  1.0000
  N   N8        1.0  0.26635  0.99804  0.40886  1.0000
  C   C54       1.0  0.23484  0.99847  0.42021  1.0000
  C   C55       1.0  0.21536  0.99790  0.34331  1.0000
  O   O4        1.0  0.22427  0.99966  0.50642  1.0000
  C   C56       1.0  0.22188  0.03097  0.54087  1.0000
  H   H36       1.0  0.24467  0.04255  0.54229  1.0000
  H   H37       1.0  0.21315  0.52960  0.60930  1.0000
  H   H38       1.0  0.20545  0.04501  0.50177  1.0000
  C   C57       1.0  0.43218  0.96975  0.33727  1.0000
  C   C58       1.0  0.02847  0.93149  0.33419  1.0000
  C   C59       1.0  0.49820  0.58098  0.33798  1.0000
  C   C60       1.0  0.46859  0.56578  0.33939  1.0000
  C   C61       1.0  0.41662  0.55778  0.34010  1.0000
  C   C62       1.0  0.43944  0.58056  0.34179  1.0000
  C   C63       1.0  0.33372  0.98783  0.25631  1.0000
  C   C64       1.0  0.36662  0.98878  0.25822  1.0000
  C   C65       1.0  0.49837  0.61450  0.33555  1.0000
  C   C66       1.0  0.48679  0.66363  0.25758  1.0000
  C   C67       1.0  0.48764  0.63073  0.25918  1.0000
  C   C68       1.0  0.13207  0.50847  0.26328  1.0000
  C   C69       1.0  0.16500  0.50860  0.26637  1.0000
  C   C70       1.0  0.00764  0.86508  0.26243  1.0000
  C   C71       1.0  0.00763  0.83217  0.26566  1.0000
  H   H39       1.0  0.01517  0.82046  0.20998  1.0000
  H   H40       1.0  0.01479  0.87604  0.20505  1.0000
  H   H41       1.0  0.43572  0.89426  0.33443  1.0000
  H   H42       1.0  0.12106  0.51619  0.20660  1.0000
  H   H43       1.0  0.17666  0.51680  0.21137  1.0000
  H   H44       1.0  0.06138  0.60308  0.33557  1.0000
  H   H45       1.0  0.39314  0.56226  0.34007  1.0000
  H   H46       1.0  0.43498  0.60404  0.34345  1.0000
  H   H47       1.0  0.47952  0.61861  0.20483  1.0000
  H   H48       1.0  0.47706  0.67391  0.20270  1.0000
  H   H49       1.0  0.37883  0.98143  0.20314  1.0000
  H   H50       1.0  0.32352  0.97874  0.20044  1.0000
  C   C72       1.0  0.99783  0.71549  0.32970  1.0000
  N   N9        1.0  0.99774  0.76649  0.26415  1.0000
  C   C73       1.0  0.99818  0.73497  0.25279  1.0000
  O   O5        1.0  0.99918  0.72443  0.16655  1.0000
  C   C74       1.0  0.03040  0.72213  0.13141  1.0000
  H   H51       1.0  0.04191  0.74496  0.12976  1.0000
  H   H52       1.0  0.52888  0.71341  0.06301  1.0000
  H   H53       1.0  0.04460  0.70574  0.17019  1.0000
  C   C75       1.0  0.28177  0.49795  0.32912  1.0000
  N   N10       1.0  0.23075  0.49855  0.26355  1.0000
  C   C76       1.0  0.26228  0.49904  0.25225  1.0000
  O   O6        1.0  0.27283  0.50077  0.16611  1.0000
  C   C77       1.0  0.27548  0.53230  0.13349  1.0000
  H   H54       1.0  0.25278  0.54408  0.13285  1.0000
  H   H55       1.0  0.28416  0.03135  0.06497  1.0000
  H   H56       1.0  0.29204  0.54593  0.17335  1.0000
  C   C78       1.0  0.44033  0.91771  0.33574  1.0000
  C   C79       1.0  0.41754  0.94052  0.33779  1.0000
  N   N11       1.0  0.46331  0.96346  0.33675  1.0000
  C   C80       1.0  0.46958  0.93233  0.33620  1.0000
  C   C81       1.0  0.49884  0.91635  0.33543  1.0000
  N   N12       1.0  0.03457  0.96256  0.33470  1.0000
  C   C82       1.0  0.06563  0.96864  0.33405  1.0000
  C   C83       1.0  0.08039  0.93948  0.33171  1.0000
  C   C84       1.0  0.05759  0.91668  0.33336  1.0000
  C   C85       1.0  0.08086  0.99824  0.33533  1.0000
  C   C86       1.0  0.06494  0.52756  0.33613  1.0000
  N   N13       1.0  0.03381  0.53389  0.33664  1.0000
  C   C87       1.0  0.02751  0.56503  0.33715  1.0000
  C   C88       1.0  0.05677  0.57963  0.33603  1.0000
  C   C89       1.0  0.07957  0.55680  0.33717  1.0000
  N   N14       1.0  0.46248  0.53471  0.33876  1.0000
  C   C90       1.0  0.43141  0.52865  0.33933  1.0000
  C   C91       1.0  0.41623  0.99904  0.33801  1.0000
  C   C92       1.0  0.38273  0.99874  0.33565  1.0000
  C   C93       1.0  0.36493  0.50788  0.41078  1.0000
  C   C94       1.0  0.33202  0.50787  0.40744  1.0000
  C   C95       1.0  0.31543  0.99803  0.32999  1.0000
  C   C96       1.0  0.00850  0.63222  0.40984  1.0000
  C   C97       1.0  0.00862  0.66514  0.40667  1.0000
  C   C98       1.0  0.49791  0.68182  0.33035  1.0000
  C   C99       1.0  0.11438  0.99839  0.33766  1.0000
  C   C100      1.0  0.18170  0.99795  0.34271  1.0000
  C   C101      1.0  0.16354  0.98684  0.41555  1.0000
  C   C102      1.0  0.13063  0.98767  0.41402  1.0000
  C   C103      1.0  0.49852  0.88284  0.33767  1.0000
  C   C104      1.0  0.48861  0.86671  0.41509  1.0000
  C   C105      1.0  0.48766  0.83380  0.41687  1.0000
  C   C106      1.0  0.49784  0.81556  0.34311  1.0000
  H   H57       1.0  0.47862  0.82357  0.47277  1.0000
  H   H58       1.0  0.48127  0.87889  0.47023  1.0000
  H   H59       1.0  0.39409  0.93593  0.33914  1.0000
  H   H60       1.0  0.47920  0.97934  0.33674  1.0000
  H   H61       1.0  0.01792  0.51801  0.33666  1.0000
  H   H62       1.0  0.06205  0.89320  0.33336  1.0000
  H   H63       1.0  0.10386  0.93500  0.32991  1.0000
  H   H64       1.0  0.11854  0.97959  0.46845  1.0000
  H   H65       1.0  0.17385  0.97716  0.47046  1.0000
  H   H66       1.0  0.10302  0.56139  0.33784  1.0000
  H   H67       1.0  0.01622  0.62122  0.46655  1.0000
  H   H68       1.0  0.01683  0.67681  0.46163  1.0000
  H   H69       1.0  0.32029  0.51542  0.46307  1.0000
  H   H70       1.0  0.37586  0.51507  0.46819  1.0000
  N   N15       1.0  0.99864  0.73088  0.40945  1.0000
  C   C107      1.0  0.99911  0.76241  0.42075  1.0000
  C   C108      1.0  0.99781  0.78190  0.34391  1.0000
  O   O7        1.0  0.00105  0.77298  0.50685  1.0000
  C   C109      1.0  0.03266  0.77574  0.53872  1.0000
  H   H71       1.0  0.04453  0.75309  0.53908  1.0000
  H   H72       1.0  0.53187  0.78442  0.60727  1.0000
  H   H73       1.0  0.04610  0.79236  0.49856  1.0000
  N   N16       1.0  0.26635  0.49804  0.40886  1.0000
  C   C110      1.0  0.23484  0.49847  0.42021  1.0000
  C   C111      1.0  0.21536  0.49790  0.34331  1.0000
  O   O8        1.0  0.22427  0.49966  0.50642  1.0000
  C   C112      1.0  0.22188  0.53097  0.54087  1.0000
  H   H74       1.0  0.24467  0.54255  0.54229  1.0000
  H   H75       1.0  0.21315  0.02960  0.60930  1.0000
  H   H76       1.0  0.20545  0.54501  0.50177  1.0000
  C   C113      1.0  0.93219  0.46975  0.33727  1.0000
  C   C114      1.0  0.52847  0.43149  0.33419  1.0000
  C   C115      1.0  0.99820  0.08098  0.33798  1.0000
  C   C116      1.0  0.96859  0.06578  0.33939  1.0000
  C   C117      1.0  0.91662  0.05778  0.34010  1.0000
  C   C118      1.0  0.93944  0.08056  0.34179  1.0000
  C   C119      1.0  0.83372  0.48783  0.25631  1.0000
  C   C120      1.0  0.86662  0.48878  0.25822  1.0000
  C   C121      1.0  0.99838  0.11450  0.33555  1.0000
  C   C122      1.0  0.98679  0.16363  0.25758  1.0000
  C   C123      1.0  0.98764  0.13073  0.25918  1.0000
  C   C124      1.0  0.63207  0.00847  0.26328  1.0000
  C   C125      1.0  0.66500  0.00860  0.26637  1.0000
  C   C126      1.0  0.50764  0.36508  0.26243  1.0000
  C   C127      1.0  0.50763  0.33217  0.26566  1.0000
  H   H77       1.0  0.51517  0.32046  0.20998  1.0000
  H   H78       1.0  0.51479  0.37604  0.20505  1.0000
  H   H79       1.0  0.93572  0.39426  0.33443  1.0000
  H   H80       1.0  0.62106  0.01619  0.20660  1.0000
  H   H81       1.0  0.67665  0.01680  0.21137  1.0000
  H   H82       1.0  0.56138  0.10308  0.33557  1.0000
  H   H83       1.0  0.89315  0.06226  0.34007  1.0000
  H   H84       1.0  0.93498  0.10404  0.34345  1.0000
  H   H85       1.0  0.97952  0.11861  0.20483  1.0000
  H   H86       1.0  0.97707  0.17391  0.20270  1.0000
  H   H87       1.0  0.87882  0.48143  0.20314  1.0000
  H   H88       1.0  0.82352  0.47874  0.20044  1.0000
  C   C128      1.0  0.49783  0.21548  0.32970  1.0000
  N   N17       1.0  0.49774  0.26649  0.26415  1.0000
  C   C129      1.0  0.49818  0.23497  0.25279  1.0000
  O   O9        1.0  0.49918  0.22443  0.16655  1.0000
  C   C130      1.0  0.53040  0.22213  0.13141  1.0000
  H   H89       1.0  0.54191  0.24496  0.12976  1.0000
  H   H90       1.0  0.02888  0.21341  0.06301  1.0000
  H   H91       1.0  0.54460  0.20574  0.17019  1.0000
  C   C131      1.0  0.78177  0.99794  0.32912  1.0000
  N   N18       1.0  0.73075  0.99855  0.26355  1.0000
  C   C132      1.0  0.76228  0.99904  0.25225  1.0000
  O   O10       1.0  0.77284  0.00077  0.16611  1.0000
  C   C133      1.0  0.77548  0.03230  0.13349  1.0000
  H   H92       1.0  0.75278  0.04408  0.13285  1.0000
  H   H93       1.0  0.78416  0.53135  0.06497  1.0000
  H   H94       1.0  0.79204  0.04593  0.17335  1.0000
  C   C134      1.0  0.94033  0.41771  0.33574  1.0000
  C   C135      1.0  0.91754  0.44052  0.33779  1.0000
  N   N19       1.0  0.96331  0.46346  0.33675  1.0000
  C   C136      1.0  0.96958  0.43233  0.33620  1.0000
  C   C137      1.0  0.99884  0.41635  0.33543  1.0000
  N   N20       1.0  0.53457  0.46256  0.33470  1.0000
  C   C138      1.0  0.56563  0.46864  0.33405  1.0000
  C   C139      1.0  0.58039  0.43948  0.33171  1.0000
  C   C140      1.0  0.55759  0.41668  0.33336  1.0000
  C   C141      1.0  0.58086  0.49824  0.33533  1.0000
  C   C142      1.0  0.56495  0.02756  0.33613  1.0000
  N   N21       1.0  0.53381  0.03389  0.33664  1.0000
  C   C143      1.0  0.52751  0.06503  0.33715  1.0000
  C   C144      1.0  0.55677  0.07963  0.33603  1.0000
  C   C145      1.0  0.57957  0.05680  0.33717  1.0000
  N   N22       1.0  0.96248  0.03471  0.33876  1.0000
  C   C146      1.0  0.93141  0.02864  0.33933  1.0000
  C   C147      1.0  0.91623  0.49904  0.33801  1.0000
  C   C148      1.0  0.88273  0.49874  0.33565  1.0000
  C   C149      1.0  0.86493  0.00788  0.41078  1.0000
  C   C150      1.0  0.83202  0.00787  0.40744  1.0000
  C   C151      1.0  0.81543  0.49803  0.32999  1.0000
  C   C152      1.0  0.50850  0.13222  0.40984  1.0000
  C   C153      1.0  0.50862  0.16514  0.40667  1.0000
  C   C154      1.0  0.99791  0.18182  0.33035  1.0000
  C   C155      1.0  0.61438  0.49839  0.33766  1.0000
  C   C156      1.0  0.68170  0.49795  0.34271  1.0000
  C   C157      1.0  0.66354  0.48684  0.41555  1.0000
  C   C158      1.0  0.63063  0.48767  0.41402  1.0000
  C   C159      1.0  0.99852  0.38284  0.33767  1.0000
  C   C160      1.0  0.98861  0.36671  0.41509  1.0000
  C   C161      1.0  0.98766  0.33380  0.41687  1.0000
  C   C162      1.0  0.99784  0.31555  0.34311  1.0000
  H   H95       1.0  0.97862  0.32357  0.47277  1.0000
  H   H96       1.0  0.98127  0.37889  0.47023  1.0000
  H   H97       1.0  0.89409  0.43592  0.33914  1.0000
  H   H98       1.0  0.97920  0.47934  0.33674  1.0000
  H   H99       1.0  0.51792  0.01801  0.33666  1.0000
  H   H100      1.0  0.56205  0.39320  0.33336  1.0000
  H   H101      1.0  0.60386  0.43500  0.32991  1.0000
  H   H102      1.0  0.61853  0.47959  0.46845  1.0000
  H   H103      1.0  0.67385  0.47716  0.47046  1.0000
  H   H104      1.0  0.60302  0.06139  0.33784  1.0000
  H   H105      1.0  0.51622  0.12122  0.46655  1.0000
  H   H106      1.0  0.51683  0.17681  0.46163  1.0000
  H   H107      1.0  0.82029  0.01542  0.46307  1.0000
  H   H108      1.0  0.87586  0.01507  0.46819  1.0000
  N   N23       1.0  0.49864  0.23088  0.40945  1.0000
  C   C163      1.0  0.49912  0.26241  0.42075  1.0000
  C   C164      1.0  0.49781  0.28190  0.34391  1.0000
  O   O11       1.0  0.50105  0.27298  0.50685  1.0000
  C   C165      1.0  0.53266  0.27574  0.53872  1.0000
  H   H109      1.0  0.54453  0.25309  0.53908  1.0000
  H   H110      1.0  0.03187  0.28442  0.60727  1.0000
  H   H111      1.0  0.54610  0.29236  0.49856  1.0000
  N   N24       1.0  0.76635  0.99804  0.40886  1.0000
  C   C166      1.0  0.73484  0.99847  0.42021  1.0000
  C   C167      1.0  0.71536  0.99790  0.34331  1.0000
  O   O12       1.0  0.72427  0.99966  0.50642  1.0000
  C   C168      1.0  0.72188  0.03097  0.54087  1.0000
  H   H112      1.0  0.74467  0.04255  0.54229  1.0000
  H   H113      1.0  0.71315  0.52960  0.60930  1.0000
  H   H114      1.0  0.70545  0.04501  0.50177  1.0000
  C   C169      1.0  0.93219  0.96975  0.33727  1.0000
  C   C170      1.0  0.52847  0.93149  0.33419  1.0000
  C   C171      1.0  0.99820  0.58098  0.33798  1.0000
  C   C172      1.0  0.96859  0.56578  0.33939  1.0000
  C   C173      1.0  0.91662  0.55778  0.34010  1.0000
  C   C174      1.0  0.93944  0.58056  0.34179  1.0000
  C   C175      1.0  0.83372  0.98783  0.25631  1.0000
  C   C176      1.0  0.86662  0.98878  0.25822  1.0000
  C   C177      1.0  0.99838  0.61450  0.33555  1.0000
  C   C178      1.0  0.98679  0.66363  0.25758  1.0000
  C   C179      1.0  0.98764  0.63073  0.25918  1.0000
  C   C180      1.0  0.63207  0.50847  0.26328  1.0000
  C   C181      1.0  0.66500  0.50860  0.26637  1.0000
  C   C182      1.0  0.50764  0.86508  0.26243  1.0000
  C   C183      1.0  0.50763  0.83217  0.26566  1.0000
  H   H115      1.0  0.51517  0.82046  0.20998  1.0000
  H   H116      1.0  0.51479  0.87604  0.20505  1.0000
  H   H117      1.0  0.93572  0.89426  0.33443  1.0000
  H   H118      1.0  0.62106  0.51619  0.20660  1.0000
  H   H119      1.0  0.67665  0.51680  0.21137  1.0000
  H   H120      1.0  0.56138  0.60308  0.33557  1.0000
  H   H121      1.0  0.89315  0.56226  0.34007  1.0000
  H   H122      1.0  0.93498  0.60404  0.34345  1.0000
  H   H123      1.0  0.97952  0.61861  0.20483  1.0000
  H   H124      1.0  0.97707  0.67391  0.20270  1.0000
  H   H125      1.0  0.87882  0.98143  0.20314  1.0000
  H   H126      1.0  0.82352  0.97874  0.20044  1.0000
  C   C184      1.0  0.49783  0.71549  0.32970  1.0000
  N   N25       1.0  0.49774  0.76649  0.26415  1.0000
  C   C185      1.0  0.49818  0.73497  0.25279  1.0000
  O   O13       1.0  0.49918  0.72443  0.16655  1.0000
  C   C186      1.0  0.53040  0.72213  0.13141  1.0000
  H   H127      1.0  0.54191  0.74496  0.12976  1.0000
  H   H128      1.0  0.02888  0.71341  0.06301  1.0000
  H   H129      1.0  0.54460  0.70574  0.17019  1.0000
  C   C187      1.0  0.78177  0.49795  0.32912  1.0000
  N   N26       1.0  0.73075  0.49855  0.26355  1.0000
  C   C188      1.0  0.76228  0.49904  0.25225  1.0000
  O   O14       1.0  0.77284  0.50077  0.16611  1.0000
  C   C189      1.0  0.77548  0.53230  0.13349  1.0000
  H   H130      1.0  0.75278  0.54408  0.13285  1.0000
  H   H131      1.0  0.78416  0.03135  0.06497  1.0000
  H   H132      1.0  0.79204  0.54593  0.17335  1.0000
  C   C190      1.0  0.94033  0.91771  0.33574  1.0000
  C   C191      1.0  0.91754  0.94052  0.33779  1.0000
  N   N27       1.0  0.96331  0.96346  0.33675  1.0000
  C   C192      1.0  0.96958  0.93233  0.33620  1.0000
  C   C193      1.0  0.99884  0.91635  0.33543  1.0000
  N   N28       1.0  0.53457  0.96256  0.33470  1.0000
  C   C194      1.0  0.56563  0.96864  0.33405  1.0000
  C   C195      1.0  0.58039  0.93948  0.33171  1.0000
  C   C196      1.0  0.55759  0.91668  0.33336  1.0000
  C   C197      1.0  0.58086  0.99824  0.33533  1.0000
  C   C198      1.0  0.56495  0.52756  0.33613  1.0000
  N   N29       1.0  0.53381  0.53389  0.33664  1.0000
  C   C199      1.0  0.52751  0.56503  0.33715  1.0000
  C   C200      1.0  0.55677  0.57963  0.33603  1.0000
  C   C201      1.0  0.57957  0.55680  0.33717  1.0000
  N   N30       1.0  0.96248  0.53471  0.33876  1.0000
  C   C202      1.0  0.93141  0.52865  0.33933  1.0000
  C   C203      1.0  0.91623  0.99904  0.33801  1.0000
  C   C204      1.0  0.88273  0.99874  0.33565  1.0000
  C   C205      1.0  0.86493  0.50788  0.41078  1.0000
  C   C206      1.0  0.83202  0.50787  0.40744  1.0000
  C   C207      1.0  0.81543  0.99803  0.32999  1.0000
  C   C208      1.0  0.50850  0.63222  0.40984  1.0000
  C   C209      1.0  0.50862  0.66514  0.40667  1.0000
  C   C210      1.0  0.99791  0.68182  0.33035  1.0000
  C   C211      1.0  0.61438  0.99839  0.33766  1.0000
  C   C212      1.0  0.68170  0.99795  0.34271  1.0000
  C   C213      1.0  0.66354  0.98684  0.41555  1.0000
  C   C214      1.0  0.63063  0.98767  0.41402  1.0000
  C   C215      1.0  0.99852  0.88284  0.33767  1.0000
  C   C216      1.0  0.98861  0.86671  0.41509  1.0000
  C   C217      1.0  0.98766  0.83380  0.41687  1.0000
  C   C218      1.0  0.99784  0.81556  0.34311  1.0000
  H   H133      1.0  0.97862  0.82357  0.47277  1.0000
  H   H134      1.0  0.98127  0.87889  0.47023  1.0000
  H   H135      1.0  0.89409  0.93593  0.33914  1.0000
  H   H136      1.0  0.97920  0.97934  0.33674  1.0000
  H   H137      1.0  0.51792  0.51801  0.33666  1.0000
  H   H138      1.0  0.56205  0.89320  0.33336  1.0000
  H   H139      1.0  0.60386  0.93500  0.32991  1.0000
  H   H140      1.0  0.61853  0.97959  0.46845  1.0000
  H   H141      1.0  0.67385  0.97716  0.47046  1.0000
  H   H142      1.0  0.60302  0.56139  0.33784  1.0000
  H   H143      1.0  0.51622  0.62122  0.46655  1.0000
  H   H144      1.0  0.51683  0.67681  0.46163  1.0000
  H   H145      1.0  0.82029  0.51542  0.46307  1.0000
  H   H146      1.0  0.87586  0.51507  0.46819  1.0000
  N   N31       1.0  0.49864  0.73088  0.40945  1.0000
  C   C219      1.0  0.49912  0.76241  0.42075  1.0000
  C   C220      1.0  0.49781  0.78190  0.34391  1.0000
  O   O15       1.0  0.50105  0.77298  0.50685  1.0000
  C   C221      1.0  0.53266  0.77574  0.53872  1.0000
  H   H147      1.0  0.54453  0.75309  0.53908  1.0000
  H   H148      1.0  0.03187  0.78442  0.60727  1.0000
  H   H149      1.0  0.54610  0.79236  0.49856  1.0000
  N   N32       1.0  0.76635  0.49804  0.40886  1.0000
  C   C222      1.0  0.73484  0.49847  0.42021  1.0000
  C   C223      1.0  0.71536  0.49790  0.34331  1.0000
  O   O16       1.0  0.72427  0.49966  0.50642  1.0000
  C   C224      1.0  0.72188  0.53097  0.54087  1.0000
  H   H150      1.0  0.74467  0.54255  0.54229  1.0000
  H   H151      1.0  0.71315  0.02960  0.60930  1.0000
  H   H152      1.0  0.70545  0.54501  0.50177  1.0000
