data_image0
_chemical_formula_structural       NCHC3NCNC2HC2HNCHC2NC2NC2NC2NC2NC2NC2NC2NC2NC2NC2NC2N2CHNCHNCHNCHNCHCNC2NC2NC2NC2NC3NC2NC2NC2NC2NC4H2C6H3C6H3C6H3C6H3C6H3C6H3C6H3C6H3C6H3C6H3C4H2NCHNCHNCHNCHNCHNCHC2NC2NC2NC2NC2NC2NC2NC2NC2NC2NC2NC2NCHNCHNCHN2CHNCH
_chemical_formula_sum              "N54 C162 H54"
_cell_length_a       39.5177
_cell_length_b       39.5177
_cell_length_c       14.8488
_cell_angle_alpha    90
_cell_angle_beta     90
_cell_angle_gamma    120

_space_group_name_H-M_alt    "P 1"
_space_group_IT_number       1

loop_
  _space_group_symop_operation_xyz
  'x, y, z'

loop_
  _atom_site_type_symbol
  _atom_site_label
  _atom_site_symmetry_multiplicity
  _atom_site_fract_x
  _atom_site_fract_y
  _atom_site_fract_z
  _atom_site_occupancy
  N   N1        1.0  0.11824  0.55159  0.28255  1.0000
  C   C1        1.0  0.11569  0.58434  0.27412  1.0000
  H   H1        1.0  0.09633  0.58460  0.22894  1.0000
  C   C2        1.0  0.05764  0.40599  0.33705  1.0000
  C   C3        1.0  0.03594  0.39609  0.25554  1.0000
  C   C4        1.0  0.05148  0.40883  0.17664  1.0000
  N   N2        1.0  0.06527  0.42025  0.10717  1.0000
  C   C5        1.0  0.05223  0.67127  0.33853  1.0000
  N   N3        1.0  0.03156  0.65843  0.26059  1.0000
  C   C6        1.0  0.10160  0.47592  0.34252  1.0000
  C   C7        1.0  0.09652  0.43793  0.34286  1.0000
  H   H2        1.0  0.07735  0.47902  0.33985  1.0000
  C   C8        1.0  0.09672  0.64604  0.33204  1.0000
  C   C9        1.0  0.09119  0.67858  0.33851  1.0000
  H   H3        1.0  0.07266  0.61858  0.32942  1.0000
  N   N4        1.0  0.03676  0.39446  0.41505  1.0000
  C   C10       1.0  0.03063  0.66219  0.41939  1.0000
  H   H4        1.0  0.04410  0.66694  0.48059  1.0000
  C   C11       1.0  0.27153  0.45860  0.35031  1.0000
  C   C12       1.0  0.20217  0.46289  0.35668  1.0000
  N   N5        1.0  0.20494  0.43540  0.30698  1.0000
  C   C13       1.0  0.23736  0.43164  0.30237  1.0000
  C   C14       1.0  0.23570  0.40544  0.24684  1.0000
  N   N6        1.0  0.23411  0.38224  0.19770  1.0000
  C   C15       1.0  0.57285  0.83419  0.35039  1.0000
  C   C16       1.0  0.56853  0.76052  0.35672  1.0000
  N   N7        1.0  0.59601  0.79077  0.30699  1.0000
  C   C17       1.0  0.59977  0.82695  0.30237  1.0000
  C   C18       1.0  0.62596  0.85148  0.24680  1.0000
  N   N8        1.0  0.64914  0.87307  0.19761  1.0000
  C   C19       1.0  0.19727  0.75993  0.35029  1.0000
  C   C20       1.0  0.27093  0.82930  0.35661  1.0000
  N   N9        1.0  0.24066  0.82653  0.30694  1.0000
  C   C21       1.0  0.20448  0.79410  0.30234  1.0000
  C   C22       1.0  0.17993  0.79576  0.24683  1.0000
  N   N10       1.0  0.15832  0.79735  0.19771  1.0000
  C   C23       1.0  0.75627  0.57654  0.35012  1.0000
  C   C24       1.0  0.82565  0.57228  0.35669  1.0000
  N   N11       1.0  0.82290  0.59979  0.30700  1.0000
  C   C25       1.0  0.79047  0.60354  0.30236  1.0000
  C   C26       1.0  0.79216  0.62973  0.24672  1.0000
  N   N12       1.0  0.79377  0.65290  0.19749  1.0000
  C   C27       1.0  0.45498  0.20101  0.34999  1.0000
  C   C28       1.0  0.45927  0.27466  0.35647  1.0000
  N   N13       1.0  0.43173  0.24438  0.30690  1.0000
  C   C29       1.0  0.42794  0.20818  0.30234  1.0000
  C   C30       1.0  0.40176  0.18369  0.24669  1.0000
  N   N14       1.0  0.37859  0.16213  0.19746  1.0000
  C   C31       1.0  0.83044  0.27523  0.35012  1.0000
  C   C32       1.0  0.75681  0.20585  0.35660  1.0000
  N   N15       1.0  0.78709  0.20862  0.30694  1.0000
  C   C33       1.0  0.82327  0.24104  0.30238  1.0000
  C   C34       1.0  0.84776  0.23938  0.24664  1.0000
  N   N16       1.0  0.86931  0.23780  0.19733  1.0000
  N   N17       1.0  0.47986  0.58789  0.28276  1.0000
  C   C35       1.0  0.44712  0.55259  0.27436  1.0000
  H   H5        1.0  0.44684  0.53298  0.22913  1.0000
  N   N18       1.0  0.44357  0.91327  0.28270  1.0000
  C   C36       1.0  0.47886  0.91582  0.27431  1.0000
  H   H6        1.0  0.49847  0.93514  0.22904  1.0000
  N   N19       1.0  0.90962  0.48362  0.28267  1.0000
  C   C37       1.0  0.91217  0.45087  0.27424  1.0000
  H   H7        1.0  0.93150  0.45060  0.22900  1.0000
  N   N20       1.0  0.54785  0.44733  0.28266  1.0000
  C   C38       1.0  0.58059  0.48263  0.27421  1.0000
  H   H8        1.0  0.58085  0.50222  0.22895  1.0000
  N   N21       1.0  0.58413  0.12175  0.28273  1.0000
  C   C39       1.0  0.54883  0.11918  0.27433  1.0000
  H   H9        1.0  0.52923  0.09985  0.22908  1.0000
  C   C40       1.0  0.97548  0.36381  0.33817  1.0000
  N   N22       1.0  0.99630  0.37701  0.26048  1.0000
  C   C41       1.0  0.62549  0.67294  0.33661  1.0000
  C   C42       1.0  0.66772  0.63302  0.33787  1.0000
  N   N23       1.0  0.65416  0.64026  0.26022  1.0000
  C   C43       1.0  0.63507  0.66080  0.25518  1.0000
  C   C44       1.0  0.62200  0.66323  0.17639  1.0000
  N   N24       1.0  0.61028  0.66525  0.10704  1.0000
  C   C45       1.0  0.35845  0.97384  0.33667  1.0000
  C   C46       1.0  0.39845  0.05596  0.33832  1.0000
  N   N25       1.0  0.39090  0.03522  0.26048  1.0000
  C   C47       1.0  0.37031  0.99558  0.25531  1.0000
  C   C48       1.0  0.36757  0.98009  0.17639  1.0000
  N   N26       1.0  0.36527  0.96634  0.10690  1.0000
  C   C49       1.0  0.97019  0.62927  0.33711  1.0000
  C   C50       1.0  0.99191  0.63936  0.25567  1.0000
  C   C51       1.0  0.97630  0.62700  0.17668  1.0000
  N   N27       1.0  0.96245  0.61591  0.10711  1.0000
  C   C52       1.0  0.40222  0.36216  0.33735  1.0000
  C   C53       1.0  0.36018  0.40221  0.33872  1.0000
  N   N28       1.0  0.37286  0.39416  0.26080  1.0000
  C   C54       1.0  0.39193  0.37358  0.25589  1.0000
  C   C55       1.0  0.40412  0.37015  0.17682  1.0000
  N   N29       1.0  0.41505  0.36723  0.10720  1.0000
  C   C56       1.0  0.66933  0.06133  0.33659  1.0000
  C   C57       1.0  0.62926  0.97921  0.33834  1.0000
  N   N30       1.0  0.63673  0.99983  0.26041  1.0000
  C   C58       1.0  0.65727  0.03947  0.25535  1.0000
  C   C59       1.0  0.66015  0.05500  0.17640  1.0000
  N   N31       1.0  0.66258  0.06878  0.10689  1.0000
  C   C60       1.0  0.13902  0.50967  0.34559  1.0000
  C   C61       1.0  0.12992  0.43361  0.34715  1.0000
  C   C62       1.0  0.16805  0.46672  0.35243  1.0000
  C   C63       1.0  0.17180  0.50437  0.35020  1.0000
  H   H10       1.0  0.12632  0.40610  0.34762  1.0000
  H   H11       1.0  0.19906  0.52857  0.34767  1.0000
  C   C64       1.0  0.52179  0.65059  0.34576  1.0000
  C   C65       1.0  0.55555  0.64694  0.34253  1.0000
  C   C66       1.0  0.59354  0.67985  0.34271  1.0000
  C   C67       1.0  0.59784  0.71757  0.34704  1.0000
  C   C68       1.0  0.56473  0.72258  0.35249  1.0000
  C   C69       1.0  0.52708  0.68866  0.35038  1.0000
  H   H12       1.0  0.62535  0.74149  0.34742  1.0000
  H   H13       1.0  0.50288  0.69172  0.34792  1.0000
  H   H14       1.0  0.55246  0.61959  0.33984  1.0000
  C   C70       1.0  0.38086  0.89251  0.34567  1.0000
  C   C71       1.0  0.38450  0.92992  0.34247  1.0000
  C   C72       1.0  0.35158  0.93498  0.34274  1.0000
  C   C73       1.0  0.31387  0.90155  0.34698  1.0000
  C   C74       1.0  0.30886  0.86343  0.35237  1.0000
  C   C75       1.0  0.34279  0.85972  0.35026  1.0000
  H   H15       1.0  0.28995  0.90514  0.34739  1.0000
  H   H16       1.0  0.33974  0.83246  0.34778  1.0000
  H   H17       1.0  0.41184  0.95418  0.33977  1.0000
  C   C76       1.0  0.88884  0.52555  0.34569  1.0000
  C   C77       1.0  0.92626  0.55931  0.34263  1.0000
  C   C78       1.0  0.93133  0.59729  0.34301  1.0000
  C   C79       1.0  0.89791  0.60159  0.34719  1.0000
  C   C80       1.0  0.85978  0.56847  0.35243  1.0000
  C   C81       1.0  0.85606  0.53082  0.35021  1.0000
  H   H18       1.0  0.90150  0.62909  0.34767  1.0000
  H   H19       1.0  0.82880  0.50662  0.34770  1.0000
  H   H20       1.0  0.95051  0.55622  0.33995  1.0000
  C   C82       1.0  0.50597  0.38460  0.34560  1.0000
  C   C83       1.0  0.47219  0.38822  0.34266  1.0000
  C   C84       1.0  0.43421  0.35530  0.34308  1.0000
  C   C85       1.0  0.42994  0.31759  0.34711  1.0000
  C   C86       1.0  0.46308  0.31260  0.35224  1.0000
  C   C87       1.0  0.50071  0.34653  0.35002  1.0000
  H   H21       1.0  0.40244  0.29366  0.34763  1.0000
  H   H22       1.0  0.52492  0.34350  0.34744  1.0000
  H   H23       1.0  0.47526  0.41557  0.34007  1.0000
  C   C88       1.0  0.64688  0.14261  0.34562  1.0000
  C   C89       1.0  0.64326  0.10521  0.34242  1.0000
  C   C90       1.0  0.67619  0.10017  0.34271  1.0000
  C   C91       1.0  0.71389  0.13360  0.34698  1.0000
  C   C92       1.0  0.71888  0.17171  0.35231  1.0000
  C   C93       1.0  0.68494  0.17541  0.35015  1.0000
  H   H24       1.0  0.73782  0.13002  0.34736  1.0000
  H   H25       1.0  0.68798  0.20266  0.34769  1.0000
  H   H26       1.0  0.61592  0.08094  0.33973  1.0000
  C   C94       1.0  0.50167  0.13796  0.33349  1.0000
  C   C95       1.0  0.46818  0.10036  0.33197  1.0000
  C   C96       1.0  0.43012  0.09488  0.33828  1.0000
  C   C97       1.0  0.42555  0.12807  0.34517  1.0000
  C   C98       1.0  0.45840  0.16651  0.34530  1.0000
  C   C99       1.0  0.49618  0.17053  0.34136  1.0000
  H   H27       1.0  0.39800  0.12401  0.35150  1.0000
  H   H28       1.0  0.52039  0.19788  0.34072  1.0000
  H   H29       1.0  0.47154  0.07628  0.32937  1.0000
  C   C100      1.0  0.64653  0.52980  0.33335  1.0000
  C   C101      1.0  0.64243  0.56329  0.33170  1.0000
  C   C102      1.0  0.67499  0.60136  0.33802  1.0000
  C   C103      1.0  0.71275  0.60594  0.34513  1.0000
  C   C104      1.0  0.71835  0.57310  0.34536  1.0000
  C   C105      1.0  0.68460  0.53531  0.34133  1.0000
  H   H30       1.0  0.73623  0.63350  0.35148  1.0000
  H   H31       1.0  0.68775  0.51111  0.34084  1.0000
  H   H32       1.0  0.61498  0.55993  0.32900  1.0000
  C   C106      1.0  0.89344  0.38497  0.33354  1.0000
  C   C107      1.0  0.93105  0.38909  0.33199  1.0000
  C   C108      1.0  0.93654  0.35652  0.33828  1.0000
  C   C109      1.0  0.90336  0.31875  0.34522  1.0000
  C   C110      1.0  0.86493  0.31316  0.34542  1.0000
  C   C111      1.0  0.86088  0.34691  0.34152  1.0000
  H   H33       1.0  0.90744  0.29527  0.35151  1.0000
  H   H34       1.0  0.83353  0.34375  0.34088  1.0000
  H   H35       1.0  0.95512  0.41653  0.32925  1.0000
  C   C112      1.0  0.52605  0.89714  0.33368  1.0000
  C   C113      1.0  0.55953  0.93475  0.33214  1.0000
  C   C114      1.0  0.59760  0.94026  0.33841  1.0000
  C   C115      1.0  0.60220  0.90709  0.34536  1.0000
  C   C116      1.0  0.56937  0.86865  0.34561  1.0000
  C   C117      1.0  0.53157  0.86459  0.34170  1.0000
  H   H36       1.0  0.62976  0.91118  0.35171  1.0000
  H   H37       1.0  0.50738  0.83722  0.34110  1.0000
  H   H38       1.0  0.55615  0.95882  0.32942  1.0000
  C   C118      1.0  0.38127  0.50538  0.33379  1.0000
  C   C119      1.0  0.38542  0.47191  0.33226  1.0000
  C   C120      1.0  0.35287  0.43385  0.33868  1.0000
  C   C121      1.0  0.31508  0.42923  0.34542  1.0000
  C   C122      1.0  0.30947  0.46206  0.34561  1.0000
  C   C123      1.0  0.34320  0.49986  0.34171  1.0000
  H   H39       1.0  0.29161  0.40167  0.35180  1.0000
  H   H40       1.0  0.34003  0.52405  0.34106  1.0000
  H   H41       1.0  0.41288  0.47530  0.32968  1.0000
  C   C124      1.0  0.13434  0.65020  0.33358  1.0000
  C   C125      1.0  0.12435  0.71637  0.34540  1.0000
  C   C126      1.0  0.16280  0.72200  0.34555  1.0000
  C   C127      1.0  0.16688  0.68827  0.34154  1.0000
  H   H42       1.0  0.12025  0.73983  0.35180  1.0000
  H   H43       1.0  0.19425  0.69145  0.34090  1.0000
  N   N32       1.0  0.26826  0.48565  0.40063  1.0000
  C   C128      1.0  0.23567  0.48866  0.40682  1.0000
  H   H44       1.0  0.23634  0.51010  0.44648  1.0000
  N   N33       1.0  0.54578  0.80386  0.40071  1.0000
  C   C129      1.0  0.54278  0.76826  0.40690  1.0000
  H   H45       1.0  0.52135  0.74749  0.44658  1.0000
  N   N34       1.0  0.22760  0.76320  0.40059  1.0000
  C   C130      1.0  0.26321  0.79580  0.40673  1.0000
  H   H46       1.0  0.28397  0.79515  0.44644  1.0000
  N   N35       1.0  0.75952  0.54947  0.40043  1.0000
  C   C131      1.0  0.79212  0.54647  0.40668  1.0000
  H   H47       1.0  0.79145  0.52504  0.44636  1.0000
  N   N36       1.0  0.48209  0.23134  0.40020  1.0000
  C   C132      1.0  0.48511  0.26695  0.40640  1.0000
  H   H48       1.0  0.50656  0.28773  0.44602  1.0000
  N   N37       1.0  0.80012  0.27197  0.40042  1.0000
  C   C133      1.0  0.76453  0.23936  0.40666  1.0000
  H   H49       1.0  0.74374  0.24003  0.44627  1.0000
  C   C134      1.0  0.14249  0.54743  0.34090  1.0000
  C   C135      1.0  0.13878  0.61661  0.33029  1.0000
  N   N38       1.0  0.16343  0.61290  0.38825  1.0000
  C   C136      1.0  0.16692  0.58042  0.39512  1.0000
  C   C137      1.0  0.18985  0.58060  0.45815  1.0000
  N   N39       1.0  0.21008  0.58074  0.51385  1.0000
  C   C138      1.0  0.48405  0.61630  0.34115  1.0000
  C   C139      1.0  0.41487  0.54340  0.33061  1.0000
  N   N40       1.0  0.41858  0.57176  0.38859  1.0000
  C   C140      1.0  0.45108  0.60770  0.39552  1.0000
  C   C141      1.0  0.45088  0.63052  0.45836  1.0000
  N   N41       1.0  0.45072  0.65066  0.51392  1.0000
  C   C142      1.0  0.41515  0.88906  0.34108  1.0000
  C   C143      1.0  0.48804  0.89273  0.33051  1.0000
  N   N42       1.0  0.45967  0.86809  0.38848  1.0000
  C   C144      1.0  0.42373  0.86466  0.39542  1.0000
  C   C145      1.0  0.40091  0.84164  0.45824  1.0000
  N   N43       1.0  0.38076  0.82134  0.51377  1.0000
  C   C146      1.0  0.88538  0.48779  0.34103  1.0000
  C   C147      1.0  0.88906  0.41859  0.33035  1.0000
  N   N44       1.0  0.86440  0.42230  0.38832  1.0000
  C   C148      1.0  0.86097  0.45480  0.39531  1.0000
  C   C149      1.0  0.83794  0.45459  0.45810  1.0000
  N   N45       1.0  0.81761  0.45441  0.51361  1.0000
  C   C150      1.0  0.54370  0.41892  0.34099  1.0000
  C   C151      1.0  0.61292  0.49179  0.33018  1.0000
  N   N46       1.0  0.60923  0.46341  0.38806  1.0000
  C   C152      1.0  0.57673  0.42747  0.39508  1.0000
  C   C153      1.0  0.57699  0.40464  0.45779  1.0000
  N   N47       1.0  0.57720  0.38448  0.51322  1.0000
  C   C154      1.0  0.61256  0.14602  0.34104  1.0000
  C   C155      1.0  0.53968  0.14233  0.33035  1.0000
  N   N48       1.0  0.56807  0.16706  0.38816  1.0000
  C   C156      1.0  0.60402  0.17052  0.39510  1.0000
  C   C157      1.0  0.62683  0.19359  0.45786  1.0000
  N   N49       1.0  0.64697  0.21394  0.51334  1.0000
  C   C158      1.0  0.99713  0.37274  0.41892  1.0000
  H   H50       1.0  0.98364  0.36748  0.48020  1.0000
  N   N50       1.0  0.63737  0.66395  0.41459  1.0000
  C   C159      1.0  0.65926  0.64622  0.41852  1.0000
  H   H51       1.0  0.66452  0.63801  0.47982  1.0000
  N   N51       1.0  0.36781  0.99461  0.41484  1.0000
  C   C160      1.0  0.38561  0.03424  0.41896  1.0000
  H   H52       1.0  0.39410  0.04766  0.48026  1.0000
  N   N52       1.0  0.99101  0.64041  0.41527  1.0000
  N   N53       1.0  0.39127  0.37204  0.41550  1.0000
  C   C161      1.0  0.36956  0.38995  0.41956  1.0000
  H   H53       1.0  0.36487  0.39868  0.48082  1.0000
  N   N54       1.0  0.65996  0.04050  0.41474  1.0000
  C   C162      1.0  0.64209  0.00088  0.41899  1.0000
  H   H54       1.0  0.63375  0.98751  0.48038  1.0000
