data_image0
_chemical_formula_structural       C2H2C2H2C2H2C2H2C2H2C2H2C4N2O4C4N2O4C4N2O4C4N2O4C4N2O4C4N2O4C4N2O4C4N2O4C4N2O4C4N2O4C4N2O4C4N2O4C6H3C6H3C6H3C6H3C6H3C6H3C6H3C6H3C6H3C6H3C6H3C6H3C4N2O4C4N2O4C4N2O4C4N2O4C4N2O4C4N2O4C2H2C2H2C2H2C2H2C2H2C2H2C2H2C2H2C2H2C2H2C2H2C2H2
_chemical_formula_sum              "C180 H72 N36 O72"
_cell_length_a       37.5503
_cell_length_b       37.5502
_cell_length_c       14.8169
_cell_angle_alpha    90
_cell_angle_beta     90
_cell_angle_gamma    120

_space_group_name_H-M_alt    "P 1"
_space_group_IT_number       1

loop_
  _space_group_symop_operation_xyz
  'x, y, z'

loop_
  _atom_site_type_symbol
  _atom_site_label
  _atom_site_symmetry_multiplicity
  _atom_site_fract_x
  _atom_site_fract_y
  _atom_site_fract_z
  _atom_site_occupancy
  C   C1        1.0  0.21468  0.41694  0.26072  1.0000
  C   C2        1.0  0.19303  0.37366  0.26155  1.0000
  H   H1        1.0  0.18535  0.35831  0.20123  1.0000
  H   H2        1.0  0.22213  0.43185  0.19987  1.0000
  C   C3        1.0  0.58971  0.79203  0.26072  1.0000
  C   C4        1.0  0.63299  0.81368  0.26151  1.0000
  H   H3        1.0  0.64833  0.82134  0.20118  1.0000
  H   H4        1.0  0.57479  0.78457  0.19988  1.0000
  C   C5        1.0  0.21467  0.79208  0.26069  1.0000
  C   C6        1.0  0.19301  0.81371  0.26152  1.0000
  H   H5        1.0  0.18535  0.82140  0.20120  1.0000
  H   H6        1.0  0.22214  0.78465  0.19983  1.0000
  C   C7        1.0  0.79807  0.58375  0.26059  1.0000
  C   C8        1.0  0.81969  0.62703  0.26145  1.0000
  H   H7        1.0  0.82737  0.64239  0.20114  1.0000
  H   H8        1.0  0.79062  0.56886  0.19973  1.0000
  C   C9        1.0  0.42299  0.20866  0.26066  1.0000
  C   C10       1.0  0.37971  0.18702  0.26150  1.0000
  H   H9        1.0  0.36436  0.17934  0.20118  1.0000
  H   H10       1.0  0.43789  0.21610  0.19981  1.0000
  C   C11       1.0  0.79804  0.20867  0.26066  1.0000
  C   C12       1.0  0.81968  0.18703  0.26150  1.0000
  H   H11       1.0  0.82734  0.17933  0.20119  1.0000
  H   H12       1.0  0.79057  0.21610  0.19981  1.0000
  C   C13       1.0  0.18207  0.22008  0.33451  1.0000
  C   C14       1.0  0.22612  0.17605  0.33452  1.0000
  C   C15       1.0  0.21709  0.18916  0.25158  1.0000
  C   C16       1.0  0.19520  0.21107  0.25158  1.0000
  N   N1        1.0  0.22871  0.18107  0.16624  1.0000
  N   N2        1.0  0.18712  0.22269  0.16622  1.0000
  O   O1        1.0  0.21219  0.14328  0.15003  1.0000
  O   O2        1.0  0.20378  0.26097  0.15715  1.0000
  O   O3        1.0  0.26699  0.19774  0.15714  1.0000
  O   O4        1.0  0.14934  0.20616  0.14996  1.0000
  C   C17       1.0  0.78658  0.95633  0.33443  1.0000
  C   C18       1.0  0.83062  0.04441  0.33446  1.0000
  C   C19       1.0  0.81720  0.02228  0.25156  1.0000
  C   C20       1.0  0.79530  0.97848  0.25155  1.0000
  N   N3        1.0  0.82501  0.04199  0.16626  1.0000
  N   N4        1.0  0.78340  0.95877  0.16624  1.0000
  O   O5        1.0  0.86274  0.06331  0.14951  1.0000
  O   O6        1.0  0.74509  0.93723  0.15764  1.0000
  O   O7        1.0  0.80825  0.06354  0.15769  1.0000
  O   O8        1.0  0.79981  0.93745  0.14949  1.0000
  C   C21       1.0  0.05037  0.82465  0.33448  1.0000
  C   C22       1.0  0.96229  0.78061  0.33446  1.0000
  C   C23       1.0  0.98443  0.78932  0.25158  1.0000
  C   C24       1.0  0.02824  0.81122  0.25159  1.0000
  N   N5        1.0  0.96473  0.77740  0.16627  1.0000
  N   N6        1.0  0.04795  0.81903  0.16629  1.0000
  O   O9        1.0  0.94339  0.79378  0.14949  1.0000
  O   O10       1.0  0.06948  0.80224  0.15773  1.0000
  O   O11       1.0  0.94320  0.73908  0.15771  1.0000
  O   O12       1.0  0.06930  0.85676  0.14955  1.0000
  C   C25       1.0  0.83061  0.78060  0.33446  1.0000
  C   C26       1.0  0.78659  0.82465  0.33444  1.0000
  C   C27       1.0  0.79547  0.81140  0.25153  1.0000
  C   C28       1.0  0.81737  0.78949  0.25154  1.0000
  N   N7        1.0  0.78373  0.81935  0.16620  1.0000
  N   N8        1.0  0.82532  0.77773  0.16622  1.0000
  O   O13       1.0  0.80019  0.85711  0.14973  1.0000
  O   O14       1.0  0.80860  0.73944  0.15736  1.0000
  O   O15       1.0  0.74543  0.80264  0.15733  1.0000
  O   O16       1.0  0.86308  0.79419  0.14977  1.0000
  C   C29       1.0  0.22614  0.04439  0.33445  1.0000
  C   C30       1.0  0.18206  0.95631  0.33447  1.0000
  C   C31       1.0  0.19562  0.97845  0.25160  1.0000
  C   C32       1.0  0.21755  0.02225  0.25159  1.0000
  N   N9        1.0  0.18793  0.95873  0.16632  1.0000
  N   N10       1.0  0.22959  0.04195  0.16630  1.0000
  O   O17       1.0  0.15023  0.93737  0.14936  1.0000
  O   O18       1.0  0.26792  0.06344  0.15797  1.0000
  O   O19       1.0  0.20475  0.93722  0.15797  1.0000
  O   O20       1.0  0.21327  0.06332  0.14930  1.0000
  C   C33       1.0  0.96231  0.17607  0.33452  1.0000
  C   C34       1.0  0.05040  0.22010  0.33451  1.0000
  C   C35       1.0  0.02825  0.21113  0.25158  1.0000
  C   C36       1.0  0.98445  0.18923  0.25158  1.0000
  N   N11       1.0  0.04795  0.22279  0.16624  1.0000
  N   N12       1.0  0.96474  0.18118  0.16625  1.0000
  O   O21       1.0  0.06920  0.20626  0.14990  1.0000
  O   O22       1.0  0.94314  0.19786  0.15722  1.0000
  O   O23       1.0  0.06958  0.26107  0.15723  1.0000
  O   O24       1.0  0.94347  0.14340  0.14995  1.0000
  C   C37       1.0  0.22852  0.57312  0.35216  1.0000
  C   C38       1.0  0.22852  0.64975  0.35226  1.0000
  C   C39       1.0  0.21970  0.62604  0.27149  1.0000
  C   C40       1.0  0.21973  0.58806  0.27143  1.0000
  N   N13       1.0  0.21478  0.64056  0.18650  1.0000
  N   N14       1.0  0.21479  0.56863  0.18642  1.0000
  O   O25       1.0  0.24686  0.67181  0.15910  1.0000
  O   O26       1.0  0.18534  0.53228  0.18636  1.0000
  O   O27       1.0  0.18532  0.64744  0.18643  1.0000
  O   O28       1.0  0.24686  0.56946  0.15895  1.0000
  C   C41       1.0  0.43355  0.64968  0.35251  1.0000
  C   C42       1.0  0.35710  0.57306  0.35215  1.0000
  C   C43       1.0  0.38068  0.58810  0.27129  1.0000
  C   C44       1.0  0.41867  0.62610  0.27152  1.0000
  N   N15       1.0  0.36615  0.56876  0.18621  1.0000
  N   N16       1.0  0.43804  0.64075  0.18652  1.0000
  O   O29       1.0  0.33488  0.56961  0.15898  1.0000
  O   O30       1.0  0.47440  0.64768  0.18621  1.0000
  O   O31       1.0  0.35927  0.53243  0.18588  1.0000
  O   O32       1.0  0.43715  0.67200  0.15941  1.0000
  C   C45       1.0  0.35708  0.77841  0.35262  1.0000
  C   C46       1.0  0.43354  0.77822  0.35288  1.0000
  C   C47       1.0  0.41868  0.78701  0.27197  1.0000
  C   C48       1.0  0.38072  0.78709  0.27182  1.0000
  N   N17       1.0  0.43817  0.79195  0.18703  1.0000
  N   N18       1.0  0.36624  0.79198  0.18675  1.0000
  O   O33       1.0  0.43736  0.75989  0.15959  1.0000
  O   O34       1.0  0.35937  0.82144  0.18656  1.0000
  O   O35       1.0  0.47450  0.82142  0.18703  1.0000
  O   O36       1.0  0.33498  0.75990  0.15937  1.0000
  C   C49       1.0  0.78419  0.42753  0.35241  1.0000
  C   C50       1.0  0.78422  0.35105  0.35236  1.0000
  C   C51       1.0  0.79287  0.37462  0.27141  1.0000
  C   C52       1.0  0.79284  0.41260  0.27144  1.0000
  N   N19       1.0  0.79769  0.36006  0.18637  1.0000
  N   N20       1.0  0.79771  0.43201  0.18643  1.0000
  O   O37       1.0  0.76558  0.32881  0.15909  1.0000
  O   O38       1.0  0.82718  0.46834  0.18625  1.0000
  O   O39       1.0  0.82714  0.35317  0.18613  1.0000
  O   O40       1.0  0.76563  0.43118  0.15908  1.0000
  C   C53       1.0  0.57909  0.35108  0.35209  1.0000
  C   C54       1.0  0.65566  0.42764  0.35198  1.0000
  C   C55       1.0  0.63202  0.41267  0.27116  1.0000
  C   C56       1.0  0.59403  0.37468  0.27120  1.0000
  N   N21       1.0  0.64659  0.43202  0.18610  1.0000
  N   N22       1.0  0.57464  0.36007  0.18621  1.0000
  O   O41       1.0  0.67784  0.43114  0.15891  1.0000
  O   O42       1.0  0.53830  0.35318  0.18597  1.0000
  O   O43       1.0  0.65351  0.46837  0.18581  1.0000
  O   O44       1.0  0.57548  0.32879  0.15906  1.0000
  C   C57       1.0  0.65565  0.22239  0.35245  1.0000
  C   C58       1.0  0.57920  0.22256  0.35265  1.0000
  C   C59       1.0  0.59404  0.21371  0.27178  1.0000
  C   C60       1.0  0.63199  0.21363  0.27166  1.0000
  N   N23       1.0  0.57454  0.20874  0.18684  1.0000
  N   N24       1.0  0.64648  0.20872  0.18660  1.0000
  O   O45       1.0  0.57536  0.24080  0.15933  1.0000
  O   O46       1.0  0.65336  0.17927  0.18648  1.0000
  O   O47       1.0  0.53821  0.17928  0.18688  1.0000
  O   O48       1.0  0.67772  0.24080  0.15917  1.0000
  C   C61       1.0  0.09431  0.24198  0.33811  1.0000
  C   C62       1.0  0.11650  0.22062  0.33808  1.0000
  C   C63       1.0  0.16004  0.24197  0.33811  1.0000
  C   C64       1.0  0.18137  0.28549  0.33982  1.0000
  C   C65       1.0  0.16003  0.30767  0.34094  1.0000
  C   C66       1.0  0.11651  0.28550  0.33984  1.0000
  H   H13       1.0  0.21288  0.30125  0.34006  1.0000
  H   H14       1.0  0.10078  0.30127  0.34007  1.0000
  H   H15       1.0  0.10075  0.18913  0.33600  1.0000
  C   C67       1.0  0.76470  0.84668  0.33805  1.0000
  C   C68       1.0  0.78605  0.89022  0.33802  1.0000
  C   C69       1.0  0.76470  0.91242  0.33803  1.0000
  C   C70       1.0  0.72117  0.89021  0.33975  1.0000
  C   C71       1.0  0.69899  0.84669  0.34085  1.0000
  C   C72       1.0  0.72118  0.82535  0.33975  1.0000
  H   H16       1.0  0.70540  0.90595  0.34001  1.0000
  H   H17       1.0  0.70541  0.79385  0.34000  1.0000
  H   H18       1.0  0.81754  0.90597  0.33592  1.0000
  C   C73       1.0  0.16002  0.91240  0.33810  1.0000
  C   C74       1.0  0.11648  0.89021  0.33814  1.0000
  C   C75       1.0  0.09428  0.84667  0.33811  1.0000
  C   C76       1.0  0.11647  0.82534  0.33982  1.0000
  C   C77       1.0  0.15999  0.84667  0.34093  1.0000
  C   C78       1.0  0.18134  0.89020  0.33982  1.0000
  H   H19       1.0  0.10073  0.79383  0.34006  1.0000
  H   H20       1.0  0.21285  0.90593  0.34007  1.0000
  H   H21       1.0  0.10074  0.90596  0.33595  1.0000
  C   C79       1.0  0.91838  0.75872  0.33807  1.0000
  C   C80       1.0  0.89618  0.78007  0.33811  1.0000
  C   C81       1.0  0.85264  0.75872  0.33809  1.0000
  C   C82       1.0  0.83132  0.71519  0.33978  1.0000
  C   C83       1.0  0.85266  0.69301  0.34088  1.0000
  C   C84       1.0  0.89618  0.71519  0.33977  1.0000
  H   H22       1.0  0.79981  0.69942  0.34000  1.0000
  H   H23       1.0  0.91192  0.69943  0.34002  1.0000
  H   H24       1.0  0.91193  0.81155  0.33595  1.0000
  C   C85       1.0  0.24801  0.15403  0.33814  1.0000
  C   C86       1.0  0.22666  0.11049  0.33815  1.0000
  C   C87       1.0  0.24802  0.08830  0.33807  1.0000
  C   C88       1.0  0.29155  0.11051  0.33978  1.0000
  C   C89       1.0  0.31372  0.15403  0.34090  1.0000
  C   C90       1.0  0.29153  0.17537  0.33982  1.0000
  H   H25       1.0  0.30732  0.09477  0.34002  1.0000
  H   H26       1.0  0.30729  0.20687  0.34005  1.0000
  H   H27       1.0  0.19518  0.09474  0.33598  1.0000
  C   C91       1.0  0.85266  0.08833  0.33809  1.0000
  C   C92       1.0  0.89620  0.11051  0.33812  1.0000
  C   C93       1.0  0.91840  0.15405  0.33813  1.0000
  C   C94       1.0  0.89621  0.17539  0.33983  1.0000
  C   C95       1.0  0.85269  0.15405  0.34092  1.0000
  C   C96       1.0  0.83134  0.11053  0.33979  1.0000
  H   H28       1.0  0.91196  0.20689  0.34006  1.0000
  H   H29       1.0  0.79984  0.09480  0.34003  1.0000
  H   H30       1.0  0.91194  0.09476  0.33599  1.0000
  C   C97       1.0  0.31365  0.54890  0.34818  1.0000
  C   C98       1.0  0.29112  0.56973  0.35315  1.0000
  C   C99       1.0  0.24776  0.54892  0.34819  1.0000
  C   C100      1.0  0.22644  0.50560  0.33971  1.0000
  C   C101      1.0  0.24798  0.48349  0.33811  1.0000
  C   C102      1.0  0.29162  0.50558  0.33969  1.0000
  H   H31       1.0  0.19496  0.48995  0.33932  1.0000
  H   H32       1.0  0.30744  0.48992  0.33937  1.0000
  H   H33       1.0  0.30690  0.60126  0.35727  1.0000
  C   C103      1.0  0.45776  0.75901  0.34883  1.0000
  C   C104      1.0  0.43696  0.71566  0.35401  1.0000
  C   C105      1.0  0.45777  0.69311  0.34864  1.0000
  C   C106      1.0  0.50107  0.71513  0.33983  1.0000
  C   C107      1.0  0.52317  0.75877  0.33820  1.0000
  C   C108      1.0  0.50107  0.78031  0.34001  1.0000
  H   H34       1.0  0.51673  0.69930  0.33924  1.0000
  H   H35       1.0  0.51672  0.81179  0.33956  1.0000
  H   H36       1.0  0.40544  0.69989  0.35833  1.0000
  C   C109      1.0  0.24774  0.69319  0.34838  1.0000
  C   C110      1.0  0.29110  0.71575  0.35350  1.0000
  C   C111      1.0  0.31363  0.75912  0.34856  1.0000
  C   C112      1.0  0.29160  0.78039  0.33992  1.0000
  C   C113      1.0  0.24795  0.75882  0.33809  1.0000
  C   C114      1.0  0.22643  0.71518  0.33955  1.0000
  H   H37       1.0  0.30740  0.81187  0.33957  1.0000
  H   H38       1.0  0.19495  0.69934  0.33921  1.0000
  H   H39       1.0  0.30688  0.70001  0.35776  1.0000
  C   C115      1.0  0.69911  0.45180  0.34820  1.0000
  C   C116      1.0  0.72164  0.43097  0.35328  1.0000
  C   C117      1.0  0.76499  0.45176  0.34821  1.0000
  C   C118      1.0  0.78631  0.49507  0.33959  1.0000
  C   C119      1.0  0.76479  0.51719  0.33794  1.0000
  C   C120      1.0  0.72114  0.49511  0.33941  1.0000
  H   H40       1.0  0.81780  0.51072  0.33943  1.0000
  H   H41       1.0  0.70534  0.51078  0.33909  1.0000
  H   H42       1.0  0.70586  0.39944  0.35757  1.0000
  C   C121      1.0  0.55497  0.24175  0.34854  1.0000
  C   C122      1.0  0.57575  0.28511  0.35368  1.0000
  C   C123      1.0  0.55492  0.30763  0.34843  1.0000
  C   C124      1.0  0.51162  0.28560  0.33954  1.0000
  C   C125      1.0  0.48954  0.24195  0.33807  1.0000
  C   C126      1.0  0.51166  0.22043  0.33974  1.0000
  H   H43       1.0  0.49594  0.30140  0.33915  1.0000
  H   H44       1.0  0.49601  0.18895  0.33955  1.0000
  H   H45       1.0  0.60728  0.30089  0.35791  1.0000
  C   C127      1.0  0.76499  0.30760  0.34823  1.0000
  C   C128      1.0  0.72163  0.28504  0.35342  1.0000
  C   C129      1.0  0.69910  0.24168  0.34837  1.0000
  C   C130      1.0  0.72113  0.22040  0.33969  1.0000
  C   C131      1.0  0.76478  0.24196  0.33804  1.0000
  C   C132      1.0  0.78630  0.28560  0.33963  1.0000
  H   H46       1.0  0.70532  0.18892  0.33938  1.0000
  H   H47       1.0  0.81779  0.30144  0.33930  1.0000
  H   H48       1.0  0.70586  0.30079  0.35762  1.0000
  C   C133      1.0  0.22602  0.43961  0.34197  1.0000
  C   C134      1.0  0.18199  0.35158  0.34364  1.0000
  C   C135      1.0  0.19321  0.37399  0.42635  1.0000
  C   C136      1.0  0.21512  0.41778  0.42553  1.0000
  N   N25       1.0  0.18348  0.35451  0.51211  1.0000
  N   N26       1.0  0.22512  0.43776  0.51075  1.0000
  O   O49       1.0  0.14541  0.33307  0.52502  1.0000
  O   O50       1.0  0.20850  0.45923  0.52333  1.0000
  O   O51       1.0  0.20010  0.33306  0.52499  1.0000
  O   O52       1.0  0.26321  0.45921  0.52330  1.0000
  C   C137      1.0  0.56706  0.78072  0.34200  1.0000
  C   C138      1.0  0.65509  0.82474  0.34357  1.0000
  C   C139      1.0  0.63270  0.81355  0.42631  1.0000
  C   C140      1.0  0.58891  0.79165  0.42553  1.0000
  N   N27       1.0  0.65219  0.82330  0.51206  1.0000
  N   N28       1.0  0.56894  0.78167  0.51077  1.0000
  O   O53       1.0  0.67364  0.80669  0.52495  1.0000
  O   O54       1.0  0.54749  0.74358  0.52336  1.0000
  O   O55       1.0  0.67363  0.86138  0.52492  1.0000
  O   O56       1.0  0.54750  0.79831  0.52338  1.0000
  C   C141      1.0  0.22598  0.78074  0.34195  1.0000
  C   C142      1.0  0.18194  0.82472  0.34361  1.0000
  C   C143      1.0  0.19313  0.81350  0.42632  1.0000
  C   C144      1.0  0.21504  0.79162  0.42551  1.0000
  N   N29       1.0  0.18337  0.82322  0.51208  1.0000
  N   N30       1.0  0.22501  0.78161  0.51072  1.0000
  O   O57       1.0  0.19998  0.86128  0.52502  1.0000
  O   O58       1.0  0.26310  0.79827  0.52336  1.0000
  O   O59       1.0  0.14529  0.80658  0.52494  1.0000
  O   O60       1.0  0.20841  0.74353  0.52323  1.0000
  C   C145      1.0  0.78674  0.56108  0.34183  1.0000
  C   C146      1.0  0.83071  0.64911  0.34355  1.0000
  C   C147      1.0  0.81951  0.62669  0.42624  1.0000
  C   C148      1.0  0.79763  0.58289  0.42540  1.0000
  N   N31       1.0  0.82923  0.64616  0.51202  1.0000
  N   N32       1.0  0.78763  0.56290  0.51060  1.0000
  O   O61       1.0  0.86729  0.66761  0.52493  1.0000
  O   O62       1.0  0.80427  0.54146  0.52317  1.0000
  O   O63       1.0  0.81259  0.66758  0.52491  1.0000
  O   O64       1.0  0.74954  0.54143  0.52313  1.0000
  C   C149      1.0  0.44565  0.22000  0.34192  1.0000
  C   C150      1.0  0.35762  0.17599  0.34359  1.0000
  C   C151      1.0  0.38003  0.18720  0.42630  1.0000
  C   C152      1.0  0.42383  0.20909  0.42548  1.0000
  N   N33       1.0  0.36056  0.17747  0.51206  1.0000
  N   N34       1.0  0.44381  0.21910  0.51069  1.0000
  O   O65       1.0  0.33911  0.19409  0.52495  1.0000
  O   O66       1.0  0.46527  0.25719  0.52323  1.0000
  O   O67       1.0  0.33911  0.13939  0.52497  1.0000
  O   O68       1.0  0.46526  0.20247  0.52329  1.0000
  C   C153      1.0  0.78673  0.22003  0.34191  1.0000
  C   C154      1.0  0.83075  0.17602  0.34359  1.0000
  C   C155      1.0  0.81956  0.18724  0.42630  1.0000
  C   C156      1.0  0.79766  0.20914  0.42547  1.0000
  N   N35       1.0  0.82932  0.17752  0.51207  1.0000
  N   N36       1.0  0.78769  0.21915  0.51068  1.0000
  O   O69       1.0  0.81270  0.13946  0.52500  1.0000
  O   O70       1.0  0.74960  0.20252  0.52329  1.0000
  O   O71       1.0  0.86739  0.19416  0.52493  1.0000
  O   O72       1.0  0.80432  0.25724  0.52321  1.0000
  C   C157      1.0  0.19122  0.20683  0.41600  1.0000
  C   C158      1.0  0.21286  0.18520  0.41601  1.0000
  H   H49       1.0  0.21895  0.17618  0.47651  1.0000
  H   H50       1.0  0.18219  0.21291  0.47650  1.0000
  C   C159      1.0  0.80015  0.97872  0.41586  1.0000
  C   C160      1.0  0.82180  0.02200  0.41587  1.0000
  H   H51       1.0  0.83105  0.03711  0.47634  1.0000
  H   H52       1.0  0.79430  0.96361  0.47632  1.0000
  C   C161      1.0  0.02796  0.81584  0.41590  1.0000
  C   C162      1.0  0.98469  0.79420  0.41589  1.0000
  H   H53       1.0  0.96957  0.78836  0.47635  1.0000
  H   H54       1.0  0.04307  0.82511  0.47637  1.0000
  C   C163      1.0  0.82162  0.79401  0.41592  1.0000
  C   C164      1.0  0.79998  0.81565  0.41590  1.0000
  H   H55       1.0  0.79400  0.82479  0.47639  1.0000
  H   H56       1.0  0.83074  0.78803  0.47640  1.0000
  C   C165      1.0  0.21239  0.02200  0.41585  1.0000
  C   C166      1.0  0.19073  0.97872  0.41586  1.0000
  H   H57       1.0  0.18137  0.96361  0.47631  1.0000
  H   H58       1.0  0.21813  0.03710  0.47629  1.0000
  C   C167      1.0  0.98472  0.18518  0.41599  1.0000
  C   C168      1.0  0.02800  0.20681  0.41598  1.0000
  H   H59       1.0  0.04311  0.21285  0.47648  1.0000
  H   H60       1.0  0.96961  0.17612  0.47649  1.0000
  C   C169      1.0  0.23473  0.59586  0.43242  1.0000
  C   C170      1.0  0.23480  0.63320  0.43242  1.0000
  H   H61       1.0  0.24420  0.65055  0.49012  1.0000
  H   H62       1.0  0.24419  0.58791  0.49004  1.0000
  C   C171      1.0  0.41084  0.63297  0.43272  1.0000
  C   C172      1.0  0.37356  0.59563  0.43260  1.0000
  H   H63       1.0  0.35615  0.58752  0.49022  1.0000
  H   H64       1.0  0.41877  0.65029  0.49045  1.0000
  C   C173      1.0  0.37348  0.77212  0.43297  1.0000
  C   C174      1.0  0.41073  0.77202  0.43301  1.0000
  H   H65       1.0  0.41879  0.76278  0.49079  1.0000
  H   H66       1.0  0.35613  0.76290  0.49068  1.0000
  C   C175      1.0  0.77812  0.40488  0.43271  1.0000
  C   C176      1.0  0.77807  0.36755  0.43268  1.0000
  H   H67       1.0  0.76890  0.35023  0.49043  1.0000
  H   H68       1.0  0.76889  0.41299  0.49043  1.0000
  C   C177      1.0  0.60181  0.36764  0.43238  1.0000
  C   C178      1.0  0.63915  0.40491  0.43227  1.0000
  H   H69       1.0  0.65651  0.41293  0.48998  1.0000
  H   H70       1.0  0.59384  0.35029  0.49008  1.0000
  C   C179      1.0  0.63923  0.22862  0.43282  1.0000
  C   C180      1.0  0.60197  0.22872  0.43283  1.0000
  H   H71       1.0  0.59403  0.23819  0.49045  1.0000
  H   H72       1.0  0.65667  0.23808  0.49039  1.0000
