data_image0
_chemical_formula_structural       C3H2C2HC2O2C3HNO2NHC3HNO2NHC3HC4H2C2O2C3HNO2NHC3HNO2NHC3H2C2HC2O2C3HNO2NHC3HNO2NHC3HC4H2C2O2C3HNO2NHC3HNO2NHC3H2C2HC2O2C3HNO2NHC3HNO2NHC3HC4H2C2O2C3HNO2NHC3HNO2NHC3H2C2HC2O2C3HNO2NHC3HNO2NHC3HC4H2C2O2C3HNO2NHC3HNO2NH
_chemical_formula_sum              "C112 H56 O48 N32"
_cell_length_a       30.6072
_cell_length_b       30.6072
_cell_length_c       15.0517
_cell_angle_alpha    90
_cell_angle_beta     90
_cell_angle_gamma    90

_space_group_name_H-M_alt    "P 1"
_space_group_IT_number       1

loop_
  _space_group_symop_operation_xyz
  'x, y, z'

loop_
  _atom_site_type_symbol
  _atom_site_label
  _atom_site_symmetry_multiplicity
  _atom_site_fract_x
  _atom_site_fract_y
  _atom_site_fract_z
  _atom_site_occupancy
  C   C1        1.0  0.49643  0.43921  0.28583  1.0000
  C   C2        1.0  0.46359  0.40751  0.27287  1.0000
  C   C3        1.0  0.42168  0.41533  0.30758  1.0000
  H   H1        1.0  0.02632  0.43272  0.25860  1.0000
  H   H2        1.0  0.39856  0.39127  0.30153  1.0000
  C   C4        1.0  0.03845  0.09423  0.32527  1.0000
  C   C5        1.0  0.00772  0.05974  0.32825  1.0000
  H   H3        1.0  0.47552  0.06808  0.33046  1.0000
  C   C6        1.0  0.02731  0.13913  0.33219  1.0000
  C   C7        1.0  0.47247  0.36589  0.23681  1.0000
  O   O1        1.0  0.06085  0.16781  0.34447  1.0000
  O   O2        1.0  0.44067  0.34998  0.18298  1.0000
  C   C8        1.0  0.98105  0.20038  0.31473  1.0000
  C   C9        1.0  0.97191  0.22061  0.23191  1.0000
  C   C10       1.0  0.97650  0.26642  0.22369  1.0000
  H   H4        1.0  0.97351  0.27956  0.16168  1.0000
  N   N1        1.0  0.96251  0.19438  0.15668  1.0000
  O   O3        1.0  0.99147  0.19770  0.09784  1.0000
  O   O4        1.0  0.92618  0.20411  0.12316  1.0000
  N   N2        1.0  0.98651  0.15612  0.31873  1.0000
  H   H5        1.0  0.96675  0.13842  0.28299  1.0000
  C   C11       1.0  0.30222  0.00041  0.37865  1.0000
  C   C12       1.0  0.28342  0.01181  0.29558  1.0000
  C   C13       1.0  0.23777  0.00860  0.28422  1.0000
  H   H6        1.0  0.22517  0.01504  0.22265  1.0000
  N   N3        1.0  0.31081  0.02350  0.22338  1.0000
  O   O5        1.0  0.30814  0.99652  0.16063  1.0000
  O   O6        1.0  0.30193  0.06094  0.19424  1.0000
  N   N4        1.0  0.34667  0.99950  0.38637  1.0000
  H   H7        1.0  0.36226  0.02339  0.35742  1.0000
  C   C14       1.0  0.48730  0.48095  0.32332  1.0000
  C   C15       1.0  0.41088  0.45481  0.35041  1.0000
  C   C16       1.0  0.44369  0.48747  0.35448  1.0000
  H   H8        1.0  0.43645  0.01515  0.38932  1.0000
  C   C17       1.0  0.01981  0.01477  0.32586  1.0000
  C   C18       1.0  0.06559  0.00581  0.32223  1.0000
  C   C19       1.0  0.09752  0.03904  0.31416  1.0000
  C   C20       1.0  0.08274  0.08263  0.31548  1.0000
  H   H9        1.0  0.07637  0.47425  0.32311  1.0000
  H   H10       1.0  0.10549  0.10706  0.31209  1.0000
  C   C21       1.0  0.14309  0.03134  0.30541  1.0000
  C   C22       1.0  0.36774  0.46012  0.38358  1.0000
  O   O7        1.0  0.34369  0.42324  0.39665  1.0000
  O   O8        1.0  0.16705  0.06459  0.27040  1.0000
  C   C23       1.0  0.98961  0.29314  0.29571  1.0000
  C   C24       1.0  0.99711  0.27221  0.37808  1.0000
  C   C25       1.0  0.99224  0.22671  0.38908  1.0000
  H   H11       1.0  0.00515  0.29051  0.43267  1.0000
  N   N5        1.0  0.99743  0.20689  0.47365  1.0000
  O   O9        1.0  0.96911  0.22043  0.52750  1.0000
  O   O10       1.0  0.03451  0.21419  0.50643  1.0000
  N   N6        1.0  0.99402  0.33766  0.29206  1.0000
  H   H12       1.0  0.00934  0.35109  0.34235  1.0000
  C   C26       1.0  0.20945  0.99576  0.35381  1.0000
  C   C27       1.0  0.22907  0.98223  0.43429  1.0000
  C   C28       1.0  0.27477  0.98505  0.44811  1.0000
  H   H13       1.0  0.20960  0.97322  0.48650  1.0000
  N   N7        1.0  0.29352  0.97556  0.53201  1.0000
  O   O11       1.0  0.28547  0.93708  0.55614  1.0000
  O   O12       1.0  0.27961  0.00117  0.59087  1.0000
  N   N8        1.0  0.16478  0.99813  0.34737  1.0000
  H   H14       1.0  0.14791  0.98169  0.39106  1.0000
  C   C29       1.0  0.49643  0.93921  0.28583  1.0000
  C   C30       1.0  0.46359  0.90751  0.27287  1.0000
  C   C31       1.0  0.42168  0.91533  0.30758  1.0000
  H   H15       1.0  0.02632  0.93272  0.25860  1.0000
  H   H16       1.0  0.39856  0.89127  0.30153  1.0000
  C   C32       1.0  0.03845  0.59423  0.32527  1.0000
  C   C33       1.0  0.00772  0.55974  0.32825  1.0000
  H   H17       1.0  0.47552  0.56808  0.33046  1.0000
  C   C34       1.0  0.02731  0.63913  0.33219  1.0000
  C   C35       1.0  0.47247  0.86589  0.23681  1.0000
  O   O13       1.0  0.06085  0.66781  0.34447  1.0000
  O   O14       1.0  0.44067  0.84998  0.18298  1.0000
  C   C36       1.0  0.98105  0.70037  0.31473  1.0000
  C   C37       1.0  0.97191  0.72061  0.23191  1.0000
  C   C38       1.0  0.97650  0.76642  0.22369  1.0000
  H   H18       1.0  0.97351  0.77956  0.16168  1.0000
  N   N9        1.0  0.96251  0.69438  0.15668  1.0000
  O   O15       1.0  0.99147  0.69770  0.09784  1.0000
  O   O16       1.0  0.92618  0.70412  0.12316  1.0000
  N   N10       1.0  0.98651  0.65611  0.31873  1.0000
  H   H19       1.0  0.96675  0.63842  0.28299  1.0000
  C   C39       1.0  0.30222  0.50042  0.37865  1.0000
  C   C40       1.0  0.28342  0.51181  0.29558  1.0000
  C   C41       1.0  0.23777  0.50861  0.28422  1.0000
  H   H20       1.0  0.22517  0.51505  0.22265  1.0000
  N   N11       1.0  0.31081  0.52350  0.22338  1.0000
  O   O17       1.0  0.30814  0.49652  0.16063  1.0000
  O   O18       1.0  0.30193  0.56094  0.19424  1.0000
  N   N12       1.0  0.34667  0.49950  0.38637  1.0000
  H   H21       1.0  0.36226  0.52339  0.35742  1.0000
  C   C42       1.0  0.48730  0.98094  0.32332  1.0000
  C   C43       1.0  0.41088  0.95481  0.35041  1.0000
  C   C44       1.0  0.44369  0.98747  0.35448  1.0000
  H   H22       1.0  0.43645  0.51515  0.38932  1.0000
  C   C45       1.0  0.01981  0.51477  0.32586  1.0000
  C   C46       1.0  0.06559  0.50581  0.32223  1.0000
  C   C47       1.0  0.09752  0.53904  0.31416  1.0000
  C   C48       1.0  0.08274  0.58263  0.31548  1.0000
  H   H23       1.0  0.07637  0.97425  0.32311  1.0000
  H   H24       1.0  0.10549  0.60706  0.31209  1.0000
  C   C49       1.0  0.14309  0.53134  0.30541  1.0000
  C   C50       1.0  0.36774  0.96012  0.38358  1.0000
  O   O19       1.0  0.34369  0.92324  0.39665  1.0000
  O   O20       1.0  0.16705  0.56459  0.27040  1.0000
  C   C51       1.0  0.98961  0.79314  0.29571  1.0000
  C   C52       1.0  0.99711  0.77221  0.37808  1.0000
  C   C53       1.0  0.99224  0.72671  0.38908  1.0000
  H   H25       1.0  0.00515  0.79051  0.43267  1.0000
  N   N13       1.0  0.99743  0.70689  0.47365  1.0000
  O   O21       1.0  0.96911  0.72043  0.52750  1.0000
  O   O22       1.0  0.03451  0.71419  0.50643  1.0000
  N   N14       1.0  0.99402  0.83766  0.29206  1.0000
  H   H26       1.0  0.00934  0.85109  0.34235  1.0000
  C   C54       1.0  0.20945  0.49576  0.35381  1.0000
  C   C55       1.0  0.22907  0.48223  0.43429  1.0000
  C   C56       1.0  0.27477  0.48505  0.44811  1.0000
  H   H27       1.0  0.20960  0.47322  0.48650  1.0000
  N   N15       1.0  0.29352  0.47556  0.53201  1.0000
  O   O23       1.0  0.28547  0.43708  0.55614  1.0000
  O   O24       1.0  0.27961  0.50117  0.59087  1.0000
  N   N16       1.0  0.16478  0.49813  0.34737  1.0000
  H   H28       1.0  0.14791  0.48169  0.39106  1.0000
  C   C57       1.0  0.99643  0.43921  0.28583  1.0000
  C   C58       1.0  0.96359  0.40751  0.27287  1.0000
  C   C59       1.0  0.92168  0.41533  0.30758  1.0000
  H   H29       1.0  0.52632  0.43272  0.25860  1.0000
  H   H30       1.0  0.89856  0.39127  0.30153  1.0000
  C   C60       1.0  0.53845  0.09423  0.32527  1.0000
  C   C61       1.0  0.50772  0.05974  0.32825  1.0000
  H   H31       1.0  0.97552  0.06808  0.33046  1.0000
  C   C62       1.0  0.52731  0.13913  0.33219  1.0000
  C   C63       1.0  0.97247  0.36589  0.23681  1.0000
  O   O25       1.0  0.56085  0.16781  0.34447  1.0000
  O   O26       1.0  0.94067  0.34998  0.18298  1.0000
  C   C64       1.0  0.48105  0.20038  0.31473  1.0000
  C   C65       1.0  0.47191  0.22061  0.23191  1.0000
  C   C66       1.0  0.47650  0.26642  0.22369  1.0000
  H   H32       1.0  0.47351  0.27956  0.16168  1.0000
  N   N17       1.0  0.46251  0.19438  0.15668  1.0000
  O   O27       1.0  0.49147  0.19770  0.09784  1.0000
  O   O28       1.0  0.42618  0.20411  0.12316  1.0000
  N   N18       1.0  0.48651  0.15612  0.31873  1.0000
  H   H33       1.0  0.46676  0.13842  0.28299  1.0000
  C   C67       1.0  0.80222  0.00041  0.37865  1.0000
  C   C68       1.0  0.78342  0.01181  0.29558  1.0000
  C   C69       1.0  0.73776  0.00860  0.28422  1.0000
  H   H34       1.0  0.72517  0.01504  0.22265  1.0000
  N   N19       1.0  0.81081  0.02350  0.22338  1.0000
  O   O29       1.0  0.80814  0.99652  0.16063  1.0000
  O   O30       1.0  0.80193  0.06094  0.19424  1.0000
  N   N20       1.0  0.84667  0.99950  0.38637  1.0000
  H   H35       1.0  0.86226  0.02339  0.35742  1.0000
  C   C70       1.0  0.98730  0.48095  0.32332  1.0000
  C   C71       1.0  0.91087  0.45481  0.35041  1.0000
  C   C72       1.0  0.94369  0.48747  0.35448  1.0000
  H   H36       1.0  0.93645  0.01515  0.38932  1.0000
  C   C73       1.0  0.51981  0.01477  0.32586  1.0000
  C   C74       1.0  0.56559  0.00581  0.32223  1.0000
  C   C75       1.0  0.59752  0.03904  0.31416  1.0000
  C   C76       1.0  0.58274  0.08263  0.31548  1.0000
  H   H37       1.0  0.57637  0.47425  0.32311  1.0000
  H   H38       1.0  0.60549  0.10706  0.31209  1.0000
  C   C77       1.0  0.64309  0.03134  0.30541  1.0000
  C   C78       1.0  0.86774  0.46012  0.38358  1.0000
  O   O31       1.0  0.84369  0.42324  0.39665  1.0000
  O   O32       1.0  0.66706  0.06459  0.27040  1.0000
  C   C79       1.0  0.48961  0.29314  0.29571  1.0000
  C   C80       1.0  0.49711  0.27221  0.37808  1.0000
  C   C81       1.0  0.49224  0.22671  0.38908  1.0000
  H   H39       1.0  0.50515  0.29051  0.43267  1.0000
  N   N21       1.0  0.49743  0.20689  0.47365  1.0000
  O   O33       1.0  0.46911  0.22043  0.52750  1.0000
  O   O34       1.0  0.53450  0.21419  0.50643  1.0000
  N   N22       1.0  0.49402  0.33766  0.29206  1.0000
  H   H40       1.0  0.50933  0.35109  0.34235  1.0000
  C   C82       1.0  0.70945  0.99576  0.35381  1.0000
  C   C83       1.0  0.72907  0.98223  0.43429  1.0000
  C   C84       1.0  0.77477  0.98505  0.44811  1.0000
  H   H41       1.0  0.70960  0.97322  0.48650  1.0000
  N   N23       1.0  0.79352  0.97556  0.53201  1.0000
  O   O35       1.0  0.78547  0.93708  0.55614  1.0000
  O   O36       1.0  0.77961  0.00117  0.59087  1.0000
  N   N24       1.0  0.66478  0.99813  0.34737  1.0000
  H   H42       1.0  0.64791  0.98169  0.39106  1.0000
  C   C85       1.0  0.99643  0.93921  0.28583  1.0000
  C   C86       1.0  0.96359  0.90751  0.27287  1.0000
  C   C87       1.0  0.92168  0.91533  0.30758  1.0000
  H   H43       1.0  0.52632  0.93272  0.25860  1.0000
  H   H44       1.0  0.89856  0.89127  0.30153  1.0000
  C   C88       1.0  0.53845  0.59423  0.32527  1.0000
  C   C89       1.0  0.50772  0.55974  0.32825  1.0000
  H   H45       1.0  0.97552  0.56808  0.33046  1.0000
  C   C90       1.0  0.52731  0.63913  0.33219  1.0000
  C   C91       1.0  0.97247  0.86589  0.23681  1.0000
  O   O37       1.0  0.56085  0.66781  0.34447  1.0000
  O   O38       1.0  0.94067  0.84998  0.18298  1.0000
  C   C92       1.0  0.48105  0.70037  0.31473  1.0000
  C   C93       1.0  0.47191  0.72061  0.23191  1.0000
  C   C94       1.0  0.47650  0.76642  0.22369  1.0000
  H   H46       1.0  0.47351  0.77956  0.16168  1.0000
  N   N25       1.0  0.46251  0.69438  0.15668  1.0000
  O   O39       1.0  0.49147  0.69770  0.09784  1.0000
  O   O40       1.0  0.42618  0.70412  0.12316  1.0000
  N   N26       1.0  0.48651  0.65611  0.31873  1.0000
  H   H47       1.0  0.46676  0.63842  0.28299  1.0000
  C   C95       1.0  0.80222  0.50042  0.37865  1.0000
  C   C96       1.0  0.78342  0.51181  0.29558  1.0000
  C   C97       1.0  0.73776  0.50861  0.28422  1.0000
  H   H48       1.0  0.72517  0.51505  0.22265  1.0000
  N   N27       1.0  0.81081  0.52350  0.22338  1.0000
  O   O41       1.0  0.80814  0.49652  0.16063  1.0000
  O   O42       1.0  0.80193  0.56094  0.19424  1.0000
  N   N28       1.0  0.84667  0.49950  0.38637  1.0000
  H   H49       1.0  0.86226  0.52339  0.35742  1.0000
  C   C98       1.0  0.98730  0.98094  0.32332  1.0000
  C   C99       1.0  0.91087  0.95481  0.35041  1.0000
  C   C100      1.0  0.94369  0.98747  0.35448  1.0000
  H   H50       1.0  0.93645  0.51515  0.38932  1.0000
  C   C101      1.0  0.51981  0.51477  0.32586  1.0000
  C   C102      1.0  0.56559  0.50581  0.32223  1.0000
  C   C103      1.0  0.59752  0.53904  0.31416  1.0000
  C   C104      1.0  0.58274  0.58263  0.31548  1.0000
  H   H51       1.0  0.57637  0.97425  0.32311  1.0000
  H   H52       1.0  0.60549  0.60706  0.31209  1.0000
  C   C105      1.0  0.64309  0.53134  0.30541  1.0000
  C   C106      1.0  0.86774  0.96012  0.38358  1.0000
  O   O43       1.0  0.84369  0.92324  0.39665  1.0000
  O   O44       1.0  0.66706  0.56459  0.27040  1.0000
  C   C107      1.0  0.48961  0.79314  0.29571  1.0000
  C   C108      1.0  0.49711  0.77221  0.37808  1.0000
  C   C109      1.0  0.49224  0.72671  0.38908  1.0000
  H   H53       1.0  0.50515  0.79051  0.43267  1.0000
  N   N29       1.0  0.49743  0.70689  0.47365  1.0000
  O   O45       1.0  0.46911  0.72043  0.52750  1.0000
  O   O46       1.0  0.53450  0.71419  0.50643  1.0000
  N   N30       1.0  0.49402  0.83766  0.29206  1.0000
  H   H54       1.0  0.50933  0.85109  0.34235  1.0000
  C   C110      1.0  0.70945  0.49576  0.35381  1.0000
  C   C111      1.0  0.72907  0.48223  0.43429  1.0000
  C   C112      1.0  0.77477  0.48505  0.44811  1.0000
  H   H55       1.0  0.70960  0.47322  0.48650  1.0000
  N   N31       1.0  0.79352  0.47556  0.53201  1.0000
  O   O47       1.0  0.78547  0.43708  0.55614  1.0000
  O   O48       1.0  0.77961  0.50117  0.59087  1.0000
  N   N32       1.0  0.66478  0.49813  0.34737  1.0000
  H   H56       1.0  0.64791  0.48169  0.39106  1.0000
