data_image0
_chemical_formula_structural       C30H17NHNHNHC30H17NHNHNHC6H4CH2C6H4CH2C6H4CH10C4H2C2H2CH2C4H2C2H2CH2C4H2C2H2CH2
_chemical_formula_sum              "C102 H84 N6"
_cell_length_a       52.4411
_cell_length_b       52.4412
_cell_length_c       14.9829
_cell_angle_alpha    90
_cell_angle_beta     90
_cell_angle_gamma    120

_space_group_name_H-M_alt    "P 1"
_space_group_IT_number       1

loop_
  _space_group_symop_operation_xyz
  'x, y, z'

loop_
  _atom_site_type_symbol
  _atom_site_label
  _atom_site_symmetry_multiplicity
  _atom_site_fract_x
  _atom_site_fract_y
  _atom_site_fract_z
  _atom_site_occupancy
  C   C1        1.0  0.16121  0.58492  0.32091  1.0000
  C   C2        1.0  0.17793  0.61108  0.37041  1.0000
  C   C3        1.0  0.20840  0.62279  0.38242  1.0000
  C   C4        1.0  0.22265  0.60843  0.34529  1.0000
  C   C5        1.0  0.20589  0.58212  0.29657  1.0000
  C   C6        1.0  0.17549  0.57065  0.28388  1.0000
  C   C7        1.0  0.25261  0.61984  0.35608  1.0000
  C   C8        1.0  0.27268  0.64295  0.30853  1.0000
  C   C9        1.0  0.30300  0.65466  0.31525  1.0000
  C   C10       1.0  0.31587  0.63652  0.31453  1.0000
  C   C11       1.0  0.34677  0.64863  0.31508  1.0000
  C   C12       1.0  0.36492  0.67965  0.31444  1.0000
  C   C13       1.0  0.35281  0.69843  0.31509  1.0000
  C   C14       1.0  0.32179  0.68556  0.31457  1.0000
  C   C15       1.0  0.37140  0.72875  0.30837  1.0000
  C   C16       1.0  0.36838  0.74882  0.35600  1.0000
  C   C17       1.0  0.38694  0.77878  0.34523  1.0000
  C   C18       1.0  0.37740  0.79554  0.29645  1.0000
  C   C19       1.0  0.41554  0.79303  0.38241  1.0000
  C   C20       1.0  0.43430  0.82350  0.37046  1.0000
  C   C21       1.0  0.42487  0.84022  0.32089  1.0000
  C   C22       1.0  0.39634  0.82595  0.28380  1.0000
  C   C23       1.0  0.35849  0.63003  0.30835  1.0000
  C   C24       1.0  0.38159  0.63306  0.35593  1.0000
  C   C25       1.0  0.39299  0.61451  0.34517  1.0000
  C   C26       1.0  0.37865  0.58591  0.38236  1.0000
  C   C27       1.0  0.41929  0.62403  0.29638  1.0000
  C   C28       1.0  0.43076  0.60510  0.28374  1.0000
  C   C29       1.0  0.41649  0.57656  0.32083  1.0000
  C   C30       1.0  0.39034  0.56714  0.37040  1.0000
  H   H1        1.0  0.16800  0.62189  0.39695  1.0000
  H   H2        1.0  0.22007  0.64187  0.41801  1.0000
  H   H3        1.0  0.31272  0.69892  0.31147  1.0000
  H   H4        1.0  0.30252  0.61410  0.31144  1.0000
  H   H5        1.0  0.38734  0.68872  0.31130  1.0000
  H   H6        1.0  0.35956  0.57850  0.41799  1.0000
  H   H7        1.0  0.35680  0.78572  0.26873  1.0000
  H   H8        1.0  0.45504  0.83343  0.39700  1.0000
  H   H9        1.0  0.42295  0.78136  0.41803  1.0000
  H   H10       1.0  0.37954  0.54641  0.39697  1.0000
  H   H11       1.0  0.43007  0.64464  0.26865  1.0000
  H   H12       1.0  0.35187  0.74237  0.39915  1.0000
  H   H13       1.0  0.38816  0.73584  0.26564  1.0000
  H   H14       1.0  0.25906  0.60974  0.39910  1.0000
  H   H15       1.0  0.26559  0.65264  0.26590  1.0000
  H   H16       1.0  0.39167  0.64959  0.39902  1.0000
  H   H17       1.0  0.34880  0.61326  0.26568  1.0000
  N   N1        1.0  0.44328  0.87074  0.30517  1.0000
  H   H18       1.0  0.46287  0.87422  0.27893  1.0000
  N   N2        1.0  0.13070  0.57281  0.30517  1.0000
  H   H19       1.0  0.12721  0.58891  0.27889  1.0000
  N   N3        1.0  0.42860  0.55816  0.30513  1.0000
  H   H20       1.0  0.41250  0.53857  0.27889  1.0000
  C   C31       1.0  0.84086  0.42118  0.34611  1.0000
  C   C32       1.0  0.82376  0.39081  0.32659  1.0000
  C   C33       1.0  0.79317  0.37762  0.31349  1.0000
  C   C34       1.0  0.77900  0.39448  0.32044  1.0000
  C   C35       1.0  0.79624  0.42492  0.33893  1.0000
  C   C36       1.0  0.82682  0.43806  0.35220  1.0000
  C   C37       1.0  0.74879  0.38181  0.30961  1.0000
  C   C38       1.0  0.72911  0.35939  0.36027  1.0000
  C   C39       1.0  0.69875  0.34705  0.35322  1.0000
  C   C40       1.0  0.68535  0.36471  0.35392  1.0000
  C   C41       1.0  0.65438  0.35199  0.35326  1.0000
  C   C42       1.0  0.63672  0.32093  0.35390  1.0000
  C   C43       1.0  0.64944  0.30268  0.35325  1.0000
  C   C44       1.0  0.68050  0.31609  0.35388  1.0000
  C   C45       1.0  0.63143  0.27232  0.36031  1.0000
  C   C46       1.0  0.63415  0.25264  0.30963  1.0000
  C   C47       1.0  0.61662  0.22243  0.32046  1.0000
  C   C48       1.0  0.62983  0.20520  0.33893  1.0000
  C   C49       1.0  0.58559  0.20826  0.31354  1.0000
  C   C50       1.0  0.56819  0.17767  0.32662  1.0000
  C   C51       1.0  0.58146  0.16057  0.34613  1.0000
  C   C52       1.0  0.61238  0.17462  0.35219  1.0000
  C   C53       1.0  0.64203  0.37000  0.36034  1.0000
  C   C54       1.0  0.61962  0.36728  0.30967  1.0000
  C   C55       1.0  0.60695  0.38481  0.32053  1.0000
  C   C56       1.0  0.62381  0.41584  0.31360  1.0000
  C   C57       1.0  0.57651  0.37160  0.33907  1.0000
  C   C58       1.0  0.56337  0.38905  0.35230  1.0000
  C   C59       1.0  0.58025  0.41997  0.34624  1.0000
  C   C60       1.0  0.61062  0.43324  0.32671  1.0000
  H   H21       1.0  0.83348  0.37811  0.32316  1.0000
  H   H22       1.0  0.78130  0.35555  0.29982  1.0000
  H   H23       1.0  0.68998  0.30310  0.35699  1.0000
  H   H24       1.0  0.69833  0.38718  0.35701  1.0000
  H   H25       1.0  0.61425  0.31145  0.35704  1.0000
  H   H26       1.0  0.64587  0.42604  0.29988  1.0000
  H   H27       1.0  0.65223  0.21483  0.34471  1.0000
  H   H28       1.0  0.54577  0.16795  0.32320  1.0000
  H   H29       1.0  0.57539  0.22013  0.29986  1.0000
  H   H30       1.0  0.62331  0.45566  0.32324  1.0000
  H   H31       1.0  0.56374  0.34920  0.34477  1.0000
  H   H32       1.0  0.65020  0.25973  0.26449  1.0000
  H   H33       1.0  0.61548  0.26494  0.40594  1.0000
  H   H34       1.0  0.74170  0.39076  0.26450  1.0000
  H   H35       1.0  0.73649  0.35082  0.40588  1.0000
  H   H36       1.0  0.61067  0.35124  0.26454  1.0000
  H   H37       1.0  0.65060  0.38595  0.40596  1.0000
  N   N4        1.0  0.56488  0.13001  0.36389  1.0000
  H   H38       1.0  0.55101  0.12667  0.41660  1.0000
  N   N5        1.0  0.87142  0.43516  0.36388  1.0000
  H   H39       1.0  0.87476  0.42462  0.41657  1.0000
  N   N6        1.0  0.56626  0.43655  0.36396  1.0000
  H   H40       1.0  0.57680  0.45043  0.41665  1.0000
  C   C61       1.0  0.46206  0.52751  0.28075  1.0000
  C   C62       1.0  0.47851  0.51328  0.26808  1.0000
  C   C63       1.0  0.51020  0.49440  0.32716  1.0000
  C   C64       1.0  0.52875  0.50082  0.25183  1.0000
  C   C65       1.0  0.54588  0.48729  0.23983  1.0000
  C   C66       1.0  0.54543  0.46708  0.30313  1.0000
  H   H41       1.0  0.53055  0.51600  0.20563  1.0000
  H   H42       1.0  0.55919  0.49273  0.18484  1.0000
  H   H43       1.0  0.45210  0.53054  0.22644  1.0000
  H   H44       1.0  0.47941  0.50609  0.20529  1.0000
  C   C67       1.0  0.56426  0.45360  0.28760  1.0000
  H   H45       1.0  0.58650  0.47117  0.27074  1.0000
  H   H46       1.0  0.55531  0.43910  0.22958  1.0000
  C   C68       1.0  0.47391  0.93484  0.28077  1.0000
  C   C69       1.0  0.48814  0.96552  0.26808  1.0000
  C   C70       1.0  0.50702  0.01609  0.32714  1.0000
  C   C71       1.0  0.50060  0.02822  0.25181  1.0000
  C   C72       1.0  0.51413  0.05888  0.23981  1.0000
  C   C73       1.0  0.53434  0.07864  0.30311  1.0000
  H   H47       1.0  0.48542  0.01483  0.20562  1.0000
  H   H48       1.0  0.50868  0.06674  0.18481  1.0000
  H   H49       1.0  0.47088  0.92185  0.22646  1.0000
  H   H50       1.0  0.49533  0.97360  0.20529  1.0000
  C   C74       1.0  0.54782  0.11095  0.28756  1.0000
  H   H51       1.0  0.53025  0.11562  0.27070  1.0000
  H   H52       1.0  0.56231  0.11649  0.22952  1.0000
  C   C75       1.0  0.06659  0.53935  0.28077  1.0000
  C   C76       1.0  0.03591  0.52289  0.26810  1.0000
  C   C77       1.0  0.98534  0.49120  0.32717  1.0000
  C   C78       1.0  0.97321  0.47264  0.25185  1.0000
  C   C79       1.0  0.94255  0.45551  0.23983  1.0000
  C   C80       1.0  0.92279  0.45598  0.30310  1.0000
  H   H53       1.0  0.98660  0.47086  0.20563  1.0000
  H   H54       1.0  0.93470  0.44223  0.18480  1.0000
  H   H55       1.0  0.07958  0.54931  0.22646  1.0000
  H   H56       1.0  0.02782  0.52199  0.20530  1.0000
  C   C81       1.0  0.89048  0.43716  0.28754  1.0000
  H   H57       1.0  0.88581  0.41492  0.27066  1.0000
  H   H58       1.0  0.88494  0.44611  0.22952  1.0000
  H   H59       1.0  0.16374  0.55174  0.24766  1.0000
  H   H60       1.0  0.21572  0.57134  0.26885  1.0000
  H   H61       1.0  0.38918  0.83770  0.24758  1.0000
  H   H62       1.0  0.44966  0.61225  0.24751  1.0000
  H   H63       1.0  0.83880  0.46001  0.36712  1.0000
  H   H64       1.0  0.78661  0.43769  0.34472  1.0000
  H   H65       1.0  0.62235  0.16263  0.36712  1.0000
  H   H66       1.0  0.54142  0.37908  0.36719  1.0000
  C   C82       1.0  0.45934  0.53732  0.36632  1.0000
  C   C83       1.0  0.49309  0.50849  0.34017  1.0000
  C   C84       1.0  0.49040  0.51845  0.42565  1.0000
  C   C85       1.0  0.47379  0.53248  0.43845  1.0000
  H   H67       1.0  0.50103  0.51611  0.47957  1.0000
  H   H68       1.0  0.47257  0.53949  0.50124  1.0000
  C   C86       1.0  0.52658  0.46026  0.37776  1.0000
  C   C87       1.0  0.50933  0.47368  0.38949  1.0000
  H   H69       1.0  0.52498  0.44527  0.42426  1.0000
  H   H70       1.0  0.49573  0.46775  0.44385  1.0000
  C   C88       1.0  0.44236  0.55266  0.38418  1.0000
  H   H71       1.0  0.45762  0.57393  0.41454  1.0000
  H   H72       1.0  0.42524  0.53972  0.43326  1.0000
  C   C89       1.0  0.46411  0.92231  0.36634  1.0000
  C   C90       1.0  0.49293  0.98489  0.34017  1.0000
  C   C91       1.0  0.48298  0.97225  0.42565  1.0000
  C   C92       1.0  0.46894  0.94160  0.43845  1.0000
  H   H73       1.0  0.48533  0.98522  0.47957  1.0000
  H   H74       1.0  0.46195  0.93337  0.50126  1.0000
  C   C93       1.0  0.54117  0.06662  0.37772  1.0000
  C   C94       1.0  0.52775  0.03595  0.38946  1.0000
  H   H75       1.0  0.55615  0.08001  0.42422  1.0000
  H   H76       1.0  0.53367  0.02828  0.44384  1.0000
  C   C95       1.0  0.44877  0.88999  0.38421  1.0000
  H   H77       1.0  0.42750  0.88398  0.41459  1.0000
  H   H78       1.0  0.46172  0.88582  0.43329  1.0000
  C   C96       1.0  0.07912  0.54208  0.36635  1.0000
  C   C97       1.0  0.01654  0.50831  0.34019  1.0000
  C   C98       1.0  0.02918  0.51101  0.42567  1.0000
  C   C99       1.0  0.05983  0.52763  0.43847  1.0000
  H   H79       1.0  0.01621  0.50039  0.47959  1.0000
  H   H80       1.0  0.06806  0.52886  0.50128  1.0000
  C   C100      1.0  0.93481  0.47482  0.37773  1.0000
  C   C101      1.0  0.96548  0.49207  0.38949  1.0000
  H   H81       1.0  0.92142  0.47643  0.42422  1.0000
  H   H82       1.0  0.97315  0.50567  0.44384  1.0000
  C   C102      1.0  0.11144  0.55906  0.38422  1.0000
  H   H83       1.0  0.11745  0.54381  0.41462  1.0000
  H   H84       1.0  0.11561  0.57619  0.43327  1.0000
