data_image0
_chemical_formula_structural       C4HCOH3C2H4C3HC16H11C17H12C2H2C4HCOH3C2H2C4HCOH3C2H2C11H8C13H9C6H3COH3C6H3COH3C4HCOH2
_chemical_formula_sum              "C102 H78 O6"
_cell_length_a       44.8746
_cell_length_b       44.8493
_cell_length_c       14.8877
_cell_angle_alpha    90
_cell_angle_beta     90
_cell_angle_gamma    120.03

_space_group_name_H-M_alt    "P 1"
_space_group_IT_number       1

loop_
  _space_group_symop_operation_xyz
  'x, y, z'

loop_
  _atom_site_type_symbol
  _atom_site_label
  _atom_site_symmetry_multiplicity
  _atom_site_fract_x
  _atom_site_fract_y
  _atom_site_fract_z
  _atom_site_occupancy
  C   C1        1.0  0.02389  0.51302  0.33427  1.0000
  C   C2        1.0  0.09744  0.54626  0.33428  1.0000
  C   C3        1.0  0.07987  0.55943  0.28355  1.0000
  C   C4        1.0  0.04345  0.54364  0.28300  1.0000
  H   H1        1.0  0.09410  0.58082  0.24493  1.0000
  C   C5        1.0  0.02595  0.55878  0.22971  1.0000
  O   O1        1.0  0.04771  0.59114  0.18644  1.0000
  H   H2        1.0  0.00790  0.56181  0.27288  1.0000
  H   H3        1.0  0.01108  0.54063  0.17655  1.0000
  H   H4        1.0  0.05824  0.60897  0.23321  1.0000
  C   C6        1.0  0.04117  0.49962  0.38481  1.0000
  C   C7        1.0  0.07727  0.51602  0.38499  1.0000
  H   H5        1.0  0.02754  0.47791  0.42309  1.0000
  H   H6        1.0  0.08873  0.50589  0.42431  1.0000
  H   H7        1.0  0.01472  0.53763  0.48405  1.0000
  H   H8        1.0  0.13805  0.51776  0.32544  1.0000
  C   C8        1.0  0.13434  0.56311  0.33532  1.0000
  C   C9        1.0  0.15167  0.54402  0.33152  1.0000
  C   C10       1.0  0.15485  0.59943  0.34214  1.0000
  H   H9        1.0  0.14354  0.61430  0.34740  1.0000
  C   C11       1.0  0.45232  0.85451  0.34101  1.0000
  C   C12       1.0  0.43263  0.81829  0.34476  1.0000
  C   C13       1.0  0.38022  0.74268  0.30161  1.0000
  C   C14       1.0  0.35956  0.70696  0.30834  1.0000
  C   C15       1.0  0.32316  0.69056  0.30775  1.0000
  C   C16       1.0  0.30229  0.65424  0.30822  1.0000
  C   C17       1.0  0.31866  0.63422  0.30752  1.0000
  C   C18       1.0  0.35496  0.64967  0.30810  1.0000
  C   C19       1.0  0.37498  0.68609  0.30762  1.0000
  C   C20       1.0  0.37001  0.62902  0.30132  1.0000
  C   C21       1.0  0.41246  0.61306  0.34236  1.0000
  C   C22       1.0  0.39323  0.57666  0.34465  1.0000
  C   C23       1.0  0.40976  0.55699  0.34085  1.0000
  C   C24       1.0  0.26658  0.63918  0.30154  1.0000
  C   C25       1.0  0.20813  0.59663  0.34224  1.0000
  C   C26       1.0  0.18783  0.56041  0.33530  1.0000
  H   H10       1.0  0.47854  0.86586  0.34506  1.0000
  H   H11       1.0  0.44515  0.80457  0.35099  1.0000
  H   H12       1.0  0.40129  0.69764  0.30456  1.0000
  H   H13       1.0  0.31164  0.70534  0.30482  1.0000
  H   H14       1.0  0.30389  0.60790  0.30443  1.0000
  H   H15       1.0  0.39489  0.53076  0.34523  1.0000
  H   H16       1.0  0.36699  0.56412  0.35110  1.0000
  H   H17       1.0  0.19924  0.54553  0.33301  1.0000
  H   H18       1.0  0.35975  0.60981  0.25706  1.0000
  H   H19       1.0  0.39940  0.75164  0.25729  1.0000
  H   H20       1.0  0.25764  0.64958  0.25771  1.0000
  C   C27       1.0  0.55855  0.15295  0.31852  1.0000
  C   C28       1.0  0.57775  0.18921  0.32162  1.0000
  C   C29       1.0  0.63123  0.26507  0.29613  1.0000
  C   C30       1.0  0.65172  0.30068  0.30358  1.0000
  C   C31       1.0  0.68808  0.31686  0.30308  1.0000
  C   C32       1.0  0.70898  0.35316  0.30356  1.0000
  C   C33       1.0  0.69281  0.37336  0.30289  1.0000
  C   C34       1.0  0.65653  0.35795  0.30343  1.0000
  C   C35       1.0  0.63633  0.32156  0.30292  1.0000
  C   C36       1.0  0.64145  0.37844  0.29589  1.0000
  C   C37       1.0  0.60127  0.39660  0.34558  1.0000
  C   C38       1.0  0.61906  0.43189  0.32147  1.0000
  C   C39       1.0  0.60203  0.45109  0.31841  1.0000
  C   C40       1.0  0.74457  0.36826  0.29608  1.0000
  C   C41       1.0  0.80296  0.40863  0.34514  1.0000
  C   C42       1.0  0.82320  0.44415  0.36508  1.0000
  C   C43       1.0  0.85939  0.46098  0.36271  1.0000
  H   H21       1.0  0.53297  0.14135  0.30243  1.0000
  H   H22       1.0  0.56547  0.20271  0.30753  1.0000
  H   H23       1.0  0.61002  0.31011  0.29993  1.0000
  H   H24       1.0  0.69950  0.30198  0.30021  1.0000
  H   H25       1.0  0.70769  0.39968  0.29983  1.0000
  H   H26       1.0  0.61604  0.47671  0.30255  1.0000
  H   H27       1.0  0.64487  0.44421  0.30764  1.0000
  H   H28       1.0  0.87297  0.48676  0.37706  1.0000
  H   H29       1.0  0.81172  0.45820  0.38199  1.0000
  H   H30       1.0  0.64907  0.39494  0.24480  1.0000
  H   H31       1.0  0.61480  0.25616  0.24492  1.0000
  H   H32       1.0  0.75343  0.36036  0.24557  1.0000
  C   C44       1.0  0.53554  0.49609  0.26773  1.0000
  C   C45       1.0  0.55318  0.47755  0.26835  1.0000
  H   H33       1.0  0.53868  0.51156  0.21370  1.0000
  H   H34       1.0  0.56818  0.47969  0.21418  1.0000
  C   C46       1.0  0.49631  0.51265  0.33418  1.0000
  C   C47       1.0  0.46299  0.55288  0.33424  1.0000
  C   C48       1.0  0.45010  0.52234  0.28268  1.0000
  C   C49       1.0  0.46593  0.50175  0.28209  1.0000
  H   H35       1.0  0.42888  0.51530  0.24348  1.0000
  C   C50       1.0  0.45103  0.46929  0.22796  1.0000
  O   O2        1.0  0.41880  0.45875  0.18415  1.0000
  H   H36       1.0  0.44794  0.44806  0.27065  1.0000
  H   H37       1.0  0.46934  0.47284  0.17504  1.0000
  H   H38       1.0  0.40084  0.45124  0.23060  1.0000
  C   C51       1.0  0.51348  0.04138  0.26801  1.0000
  C   C52       1.0  0.53204  0.07759  0.26870  1.0000
  H   H39       1.0  0.49805  0.02906  0.21393  1.0000
  H   H40       1.0  0.52997  0.09048  0.21448  1.0000
  C   C53       1.0  0.49681  0.98553  0.33447  1.0000
  C   C54       1.0  0.45649  0.91192  0.33458  1.0000
  C   C55       1.0  0.48697  0.92955  0.28281  1.0000
  C   C56       1.0  0.50760  0.96600  0.28218  1.0000
  H   H41       1.0  0.49393  0.91535  0.24348  1.0000
  C   C57       1.0  0.53999  0.98353  0.22784  1.0000
  O   O3        1.0  0.55043  0.96178  0.18390  1.0000
  H   H42       1.0  0.56126  0.00168  0.27041  1.0000
  H   H43       1.0  0.53642  0.99831  0.17498  1.0000
  H   H44       1.0  0.55796  0.95132  0.23026  1.0000
  C   C58       1.0  0.96809  0.47372  0.26795  1.0000
  C   C59       1.0  0.93191  0.45616  0.26848  1.0000
  H   H45       1.0  0.98040  0.47045  0.21412  1.0000
  H   H46       1.0  0.91900  0.44104  0.21449  1.0000
  C   C60       1.0  0.43646  0.87499  0.33571  1.0000
  C   C61       1.0  0.39625  0.80115  0.34282  1.0000
  C   C62       1.0  0.38028  0.82141  0.33738  1.0000
  C   C63       1.0  0.40001  0.85760  0.33350  1.0000
  C   C64       1.0  0.37607  0.76549  0.35106  1.0000
  C   C65       1.0  0.39701  0.63323  0.35064  1.0000
  C   C66       1.0  0.44870  0.62907  0.33663  1.0000
  C   C67       1.0  0.44609  0.57289  0.33530  1.0000
  C   C68       1.0  0.46515  0.60936  0.33280  1.0000
  C   C69       1.0  0.24375  0.61203  0.35044  1.0000
  C   C70       1.0  0.19105  0.61590  0.34584  1.0000
  H   H47       1.0  0.38733  0.87118  0.32854  1.0000
  H   H48       1.0  0.35398  0.80996  0.33627  1.0000
  H   H49       1.0  0.20480  0.64212  0.35319  1.0000
  H   H50       1.0  0.46356  0.65539  0.33530  1.0000
  H   H51       1.0  0.49142  0.62207  0.32763  1.0000
  H   H52       1.0  0.40740  0.65250  0.39467  1.0000
  H   H53       1.0  0.35681  0.75661  0.39512  1.0000
  H   H54       1.0  0.25259  0.60148  0.39409  1.0000
  C   C71       1.0  0.57364  0.13278  0.34122  1.0000
  C   C72       1.0  0.61298  0.20670  0.34612  1.0000
  C   C73       1.0  0.62814  0.18655  0.36808  1.0000
  C   C74       1.0  0.60887  0.15034  0.36561  1.0000
  C   C75       1.0  0.63254  0.24253  0.35349  1.0000
  C   C76       1.0  0.61752  0.37705  0.35302  1.0000
  C   C77       1.0  0.56592  0.38138  0.36719  1.0000
  C   C78       1.0  0.56672  0.43592  0.34073  1.0000
  C   C79       1.0  0.54899  0.40064  0.36475  1.0000
  C   C80       1.0  0.76716  0.39249  0.35256  1.0000
  C   C81       1.0  0.82032  0.39056  0.32282  1.0000
  C   C82       1.0  0.87680  0.44298  0.34039  1.0000
  C   C83       1.0  0.85656  0.40750  0.31977  1.0000
  H   H55       1.0  0.62101  0.13684  0.38139  1.0000
  H   H56       1.0  0.65352  0.19811  0.38652  1.0000
  H   H57       1.0  0.80675  0.36466  0.31020  1.0000
  H   H58       1.0  0.55205  0.35595  0.38535  1.0000
  H   H59       1.0  0.52333  0.38845  0.38027  1.0000
  H   H60       1.0  0.86808  0.39333  0.30511  1.0000
  H   H61       1.0  0.61003  0.36016  0.40330  1.0000
  H   H62       1.0  0.64937  0.25196  0.40389  1.0000
  H   H63       1.0  0.75782  0.40026  0.40235  1.0000
  C   C84       1.0  0.54953  0.45556  0.34066  1.0000
  C   C85       1.0  0.52802  0.45336  0.41293  1.0000
  C   C86       1.0  0.50994  0.47176  0.41387  1.0000
  C   C87       1.0  0.51362  0.49331  0.33940  1.0000
  C   C88       1.0  0.50945  0.54314  0.38551  1.0000
  C   C89       1.0  0.49300  0.56279  0.38575  1.0000
  H   H64       1.0  0.53098  0.55112  0.42437  1.0000
  H   H65       1.0  0.50292  0.58424  0.42568  1.0000
  H   H66       1.0  0.52555  0.43806  0.46681  1.0000
  C   C90       1.0  0.48770  0.46695  0.49329  1.0000
  O   O4        1.0  0.50904  0.48165  0.57075  1.0000
  H   H67       1.0  0.47185  0.47887  0.48417  1.0000
  H   H68       1.0  0.47018  0.43939  0.50383  1.0000
  H   H69       1.0  0.49385  0.47753  0.62260  1.0000
  C   C91       1.0  0.55399  0.09592  0.34108  1.0000
  C   C92       1.0  0.55612  0.07657  0.41338  1.0000
  C   C93       1.0  0.53770  0.04006  0.41426  1.0000
  C   C94       1.0  0.51619  0.02220  0.33971  1.0000
  C   C95       1.0  0.46638  0.96819  0.38600  1.0000
  C   C96       1.0  0.44668  0.93206  0.38624  1.0000
  H   H70       1.0  0.45849  0.98178  0.42503  1.0000
  H   H71       1.0  0.42531  0.92056  0.42639  1.0000
  H   H72       1.0  0.57138  0.08939  0.46733  1.0000
  C   C97       1.0  0.54245  0.02260  0.49369  1.0000
  O   O5        1.0  0.52769  0.02919  0.57108  1.0000
  H   H73       1.0  0.53055  0.99480  0.48450  1.0000
  H   H74       1.0  0.56998  0.03264  0.50438  1.0000
  H   H75       1.0  0.53177  0.01809  0.62295  1.0000
  C   C98       1.0  0.91361  0.46007  0.34045  1.0000
  C   C99       1.0  0.93294  0.48172  0.41253  1.0000
  C   C100      1.0  0.96942  0.49966  0.41364  1.0000
  C   C101      1.0  0.98725  0.49575  0.33946  1.0000
  H   H76       1.0  0.92011  0.48436  0.46613  1.0000
  C   C102      1.0  0.98689  0.52197  0.49293  1.0000
  O   O6        1.0  0.97996  0.50070  0.57070  1.0000
  H   H77       1.0  0.97710  0.53970  0.50292  1.0000
  H   H78       1.0  0.99107  0.51595  0.62246  1.0000
