data_image0
_chemical_formula_structural       C16H16C7H3NH2CH3C7H3NH2CH2C3NC3NC5NC5NC36H26N4H4C2H2C3HNH2CHC2H2C3HNH2CH2
_chemical_formula_sum              "C96 H74 N12"
_cell_length_a       38.4229
_cell_length_b       38.4177
_cell_length_c       15.0141
_cell_angle_alpha    90
_cell_angle_beta     90
_cell_angle_gamma    89.9551

_space_group_name_H-M_alt    "P 1"
_space_group_IT_number       1

loop_
  _space_group_symop_operation_xyz
  'x, y, z'

loop_
  _atom_site_type_symbol
  _atom_site_label
  _atom_site_symmetry_multiplicity
  _atom_site_fract_x
  _atom_site_fract_y
  _atom_site_fract_z
  _atom_site_occupancy
  C   C1        1.0  0.85082  0.00591  0.27419  1.0000
  C   C2        1.0  0.81428  0.00777  0.27241  1.0000
  C   C3        1.0  0.70132  0.99381  0.28092  1.0000
  C   C4        1.0  0.73775  0.99055  0.28459  1.0000
  C   C5        1.0  0.00096  0.85215  0.27614  1.0000
  C   C6        1.0  0.00122  0.81555  0.27878  1.0000
  C   C7        1.0  0.02337  0.74133  0.33223  1.0000
  C   C8        1.0  0.02379  0.70479  0.33862  1.0000
  C   C9        1.0  0.18135  0.00317  0.28266  1.0000
  C   C10       1.0  0.14475  0.00373  0.27960  1.0000
  C   C11       1.0  0.25600  0.02345  0.33670  1.0000
  C   C12       1.0  0.29252  0.02289  0.34333  1.0000
  C   C13       1.0  0.00318  0.14542  0.27412  1.0000
  C   C14       1.0  0.00527  0.18193  0.27143  1.0000
  C   C15       1.0  0.99344  0.29511  0.27678  1.0000
  C   C16       1.0  0.98936  0.25879  0.28158  1.0000
  H   H1        1.0  0.98069  0.30867  0.22803  1.0000
  H   H2        1.0  0.97325  0.24697  0.23652  1.0000
  H   H3        1.0  0.00907  0.19365  0.21100  1.0000
  H   H4        1.0  0.00509  0.13165  0.21594  1.0000
  H   H5        1.0  0.13258  0.00878  0.22033  1.0000
  H   H6        1.0  0.19498  0.00749  0.22514  1.0000
  H   H7        1.0  0.00583  0.86454  0.21707  1.0000
  H   H8        1.0  0.00592  0.80210  0.22115  1.0000
  H   H9        1.0  0.04545  0.69142  0.31856  1.0000
  H   H10       1.0  0.04496  0.75377  0.30811  1.0000
  H   H11       1.0  0.74974  0.97470  0.23920  1.0000
  H   H12       1.0  0.68786  0.98077  0.23253  1.0000
  H   H13       1.0  0.80229  0.01129  0.21221  1.0000
  H   H14       1.0  0.86436  0.00767  0.21562  1.0000
  H   H15       1.0  0.24412  0.04536  0.31256  1.0000
  H   H16       1.0  0.30644  0.04421  0.32343  1.0000
  C   C17       1.0  0.99079  0.59193  0.30321  1.0000
  C   C18       1.0  0.98022  0.57189  0.22895  1.0000
  C   C19       1.0  0.97936  0.53502  0.23113  1.0000
  C   C20       1.0  0.98982  0.51785  0.31078  1.0000
  C   C21       1.0  0.98795  0.48122  0.32182  1.0000
  C   C22       1.0  0.01500  0.46071  0.28577  1.0000
  C   C23       1.0  0.01561  0.42454  0.29901  1.0000
  H   H17       1.0  0.03474  0.47200  0.25015  1.0000
  H   H18       1.0  0.03562  0.41066  0.27165  1.0000
  H   H19       1.0  0.97208  0.58454  0.17260  1.0000
  N   N1        1.0  0.96795  0.51752  0.15794  1.0000
  H   H20       1.0  0.96081  0.52981  0.10425  1.0000
  H   H21       1.0  0.96653  0.49229  0.15659  1.0000
  C   C24       1.0  0.98873  0.63066  0.29761  1.0000
  H   H22       1.0  0.96240  0.63766  0.27601  1.0000
  H   H23       1.0  0.00694  0.63897  0.24580  1.0000
  H   H24       1.0  0.96464  0.35973  0.33979  1.0000
  C   C25       1.0  0.40469  0.98785  0.30913  1.0000
  C   C26       1.0  0.42476  0.97738  0.23481  1.0000
  C   C27       1.0  0.46162  0.97648  0.23704  1.0000
  C   C28       1.0  0.47877  0.98672  0.31688  1.0000
  C   C29       1.0  0.51545  0.98525  0.32756  1.0000
  C   C30       1.0  0.53552  0.01258  0.29141  1.0000
  C   C31       1.0  0.57168  0.01368  0.30439  1.0000
  H   H25       1.0  0.52390  0.03218  0.25591  1.0000
  H   H26       1.0  0.58523  0.03388  0.27696  1.0000
  H   H27       1.0  0.41213  0.96948  0.17821  1.0000
  N   N2        1.0  0.47915  0.96529  0.16365  1.0000
  H   H28       1.0  0.46688  0.95828  0.10982  1.0000
  H   H29       1.0  0.50438  0.96380  0.16235  1.0000
  C   C32       1.0  0.36595  0.98621  0.30310  1.0000
  H   H30       1.0  0.35872  0.95996  0.28140  1.0000
  H   H31       1.0  0.35791  0.00451  0.25120  1.0000
  C   C33       1.0  0.93378  0.09114  0.35850  1.0000
  C   C34       1.0  0.90792  0.06624  0.35866  1.0000
  C   C35       1.0  0.92369  0.03343  0.35895  1.0000
  N   N3        1.0  0.95840  0.03966  0.36000  1.0000
  C   C36       1.0  0.96593  0.07412  0.35920  1.0000
  C   C37       1.0  0.99886  0.09097  0.35885  1.0000
  C   C38       1.0  0.03153  0.07372  0.35847  1.0000
  N   N4        1.0  0.03760  0.03910  0.35620  1.0000
  C   C39       1.0  0.07199  0.03182  0.35643  1.0000
  C   C40       1.0  0.08911  0.06387  0.35954  1.0000
  C   C41       1.0  0.06417  0.08970  0.36046  1.0000
  C   C42       1.0  0.08804  0.99854  0.35502  1.0000
  C   C43       1.0  0.06989  0.96628  0.35374  1.0000
  N   N5        1.0  0.03517  0.96002  0.35219  1.0000
  C   C44       1.0  0.02763  0.92556  0.35272  1.0000
  C   C45       1.0  0.05982  0.90858  0.35411  1.0000
  C   C46       1.0  0.08567  0.93349  0.35405  1.0000
  C   C47       1.0  0.99470  0.90863  0.35255  1.0000
  C   C48       1.0  0.96203  0.92590  0.35335  1.0000
  N   N6        1.0  0.95599  0.96053  0.35597  1.0000
  C   C49       1.0  0.92161  0.96786  0.35603  1.0000
  C   C50       1.0  0.90443  0.93585  0.35302  1.0000
  C   C51       1.0  0.92935  0.90998  0.35126  1.0000
  C   C52       1.0  0.90560  0.00115  0.35771  1.0000
  C   C53       1.0  0.86859  0.00222  0.35587  1.0000
  C   C54       1.0  0.79452  0.00595  0.35195  1.0000
  C   C55       1.0  0.81268  0.00208  0.43349  1.0000
  C   C56       1.0  0.84924  0.00023  0.43558  1.0000
  C   C57       1.0  0.75743  0.00848  0.34982  1.0000
  C   C58       1.0  0.73926  0.02960  0.41167  1.0000
  C   C59       1.0  0.70281  0.03272  0.40828  1.0000
  C   C60       1.0  0.68338  0.01471  0.34302  1.0000
  C   C61       1.0  0.99436  0.87157  0.35423  1.0000
  C   C62       1.0  0.99428  0.79759  0.35908  1.0000
  C   C63       1.0  0.98747  0.81719  0.43693  1.0000
  C   C64       1.0  0.98777  0.85376  0.43475  1.0000
  C   C65       1.0  0.99424  0.76064  0.36198  1.0000
  C   C66       1.0  0.99485  0.68664  0.37300  1.0000
  C   C67       1.0  0.96557  0.70587  0.40192  1.0000
  C   C68       1.0  0.96534  0.74240  0.39690  1.0000
  C   C69       1.0  0.12507  0.99756  0.35746  1.0000
  C   C70       1.0  0.14258  0.99068  0.43826  1.0000
  C   C71       1.0  0.17914  0.98954  0.44083  1.0000
  C   C72       1.0  0.19901  0.99584  0.36317  1.0000
  C   C73       1.0  0.23594  0.99484  0.36638  1.0000
  C   C74       1.0  0.30992  0.99347  0.37780  1.0000
  C   C75       1.0  0.28993  0.96471  0.40660  1.0000
  C   C76       1.0  0.25341  0.96545  0.40135  1.0000
  C   C77       1.0  0.99935  0.12798  0.35623  1.0000
  C   C78       1.0  0.99737  0.14764  0.43546  1.0000
  C   C79       1.0  0.00360  0.20199  0.35050  1.0000
  C   C80       1.0  0.99945  0.18418  0.43246  1.0000
  C   C81       1.0  0.00682  0.23900  0.34746  1.0000
  C   C82       1.0  0.02835  0.25693  0.40876  1.0000
  C   C83       1.0  0.03228  0.29329  0.40427  1.0000
  C   C84       1.0  0.01475  0.31282  0.33835  1.0000
  H   H32       1.0  0.04820  0.30547  0.44909  1.0000
  H   H33       1.0  0.04210  0.24360  0.45615  1.0000
  H   H34       1.0  0.99772  0.19769  0.49103  1.0000
  H   H35       1.0  0.99473  0.13549  0.49576  1.0000
  H   H36       1.0  0.92936  0.11738  0.35755  1.0000
  H   H37       1.0  0.88188  0.07168  0.35776  1.0000
  H   H38       1.0  0.97574  0.02167  0.36104  1.0000
  H   H39       1.0  0.01784  0.97801  0.35068  1.0000
  H   H40       1.0  0.06941  0.11576  0.36316  1.0000
  H   H41       1.0  0.11535  0.06819  0.36134  1.0000
  H   H42       1.0  0.12884  0.98632  0.49561  1.0000
  H   H43       1.0  0.19114  0.98466  0.50042  1.0000
  H   H44       1.0  0.11170  0.92802  0.35504  1.0000
  H   H45       1.0  0.06432  0.88237  0.35531  1.0000
  H   H46       1.0  0.87818  0.93161  0.35154  1.0000
  H   H47       1.0  0.92408  0.88394  0.34820  1.0000
  H   H48       1.0  0.98312  0.86730  0.49229  1.0000
  H   H49       1.0  0.98285  0.80498  0.49638  1.0000
  H   H50       1.0  0.94375  0.75557  0.41849  1.0000
  H   H51       1.0  0.94436  0.69332  0.42758  1.0000
  H   H52       1.0  0.86162  0.99754  0.49558  1.0000
  H   H53       1.0  0.79941  0.00017  0.49238  1.0000
  H   H54       1.0  0.69046  0.04838  0.45344  1.0000
  H   H55       1.0  0.75248  0.04364  0.45868  1.0000
  H   H56       1.0  0.23969  0.94422  0.42286  1.0000
  H   H57       1.0  0.30192  0.94317  0.43236  1.0000
  N   N7        1.0  0.64668  0.01792  0.33568  1.0000
  N   N8        1.0  0.34668  0.99430  0.38660  1.0000
  N   N9        1.0  0.01861  0.34942  0.33022  1.0000
  N   N10       1.0  0.99660  0.64989  0.38131  1.0000
  H   H58       1.0  0.97984  0.64173  0.43043  1.0000
  H   H59       1.0  0.35439  0.97725  0.43556  1.0000
  H   H60       1.0  0.04127  0.35743  0.36032  1.0000
  H   H61       1.0  0.63829  0.04031  0.36646  1.0000
  C   C85       1.0  0.00167  0.53763  0.38399  1.0000
  C   C86       1.0  0.00230  0.57410  0.38008  1.0000
  H   H62       1.0  0.00945  0.52565  0.44163  1.0000
  H   H63       1.0  0.01080  0.58735  0.43490  1.0000
  C   C87       1.0  0.98951  0.40791  0.34983  1.0000
  C   C88       1.0  0.96231  0.42860  0.38482  1.0000
  C   C89       1.0  0.96088  0.46507  0.37169  1.0000
  H   H64       1.0  0.94306  0.41677  0.42103  1.0000
  N   N11       1.0  0.93367  0.48317  0.40681  1.0000
  H   H65       1.0  0.93104  0.50807  0.39789  1.0000
  H   H66       1.0  0.91532  0.47151  0.44011  1.0000
  C   C90       1.0  0.98900  0.36972  0.36757  1.0000
  H   H67       1.0  0.98827  0.36575  0.43979  1.0000
  C   C91       1.0  0.45895  0.99833  0.39031  1.0000
  C   C92       1.0  0.42249  0.99903  0.38634  1.0000
  H   H68       1.0  0.47091  0.00602  0.44805  1.0000
  H   H69       1.0  0.40923  0.00746  0.44123  1.0000
  C   C93       1.0  0.58877  0.98779  0.35503  1.0000
  C   C94       1.0  0.56852  0.96029  0.39006  1.0000
  C   C95       1.0  0.53206  0.95839  0.37723  1.0000
  H   H70       1.0  0.58068  0.94118  0.42613  1.0000
  N   N12       1.0  0.51440  0.93093  0.41245  1.0000
  H   H71       1.0  0.48953  0.92797  0.40362  1.0000
  H   H72       1.0  0.52636  0.91271  0.44552  1.0000
  C   C96       1.0  0.62698  0.98782  0.37248  1.0000
  H   H73       1.0  0.63738  0.96373  0.34409  1.0000
  H   H74       1.0  0.63107  0.98692  0.44465  1.0000
