data_image0
_chemical_formula_structural       C2HCHCO2C10H5C6H3N2C10H5C6H3N2C2H2C3H2CHC2H2C3H2CHCHC3H2CHC8H7NC8H7NC7H2N2O4CHC7H2N2O4CHC4HN2O2CH
_chemical_formula_sum              "C90 H54 O12 N12"
_cell_length_a       44.4934
_cell_length_b       44.4632
_cell_length_c       14.9528
_cell_angle_alpha    90
_cell_angle_beta     90
_cell_angle_gamma    120.019

_space_group_name_H-M_alt    "P 1"
_space_group_IT_number       1

loop_
  _space_group_symop_operation_xyz
  'x, y, z'

loop_
  _atom_site_type_symbol
  _atom_site_label
  _atom_site_symmetry_multiplicity
  _atom_site_fract_x
  _atom_site_fract_y
  _atom_site_fract_z
  _atom_site_occupancy
  C   C1        1.0  0.03427  0.51599  0.44485  1.0000
  C   C2        1.0  0.02097  0.51145  0.35704  1.0000
  H   H1        1.0  0.01746  0.50602  0.49768  1.0000
  C   C3        1.0  0.04492  0.52442  0.28553  1.0000
  H   H2        1.0  0.03630  0.52143  0.22087  1.0000
  C   C4        1.0  0.07042  0.53274  0.46194  1.0000
  O   O1        1.0  0.07222  0.50797  0.58883  1.0000
  O   O2        1.0  0.07393  0.55469  0.59697  1.0000
  C   C5        1.0  0.37168  0.63038  0.33142  1.0000
  C   C6        1.0  0.26206  0.63369  0.34247  1.0000
  C   C7        1.0  0.36098  0.60065  0.27701  1.0000
  C   C8        1.0  0.37852  0.58163  0.27947  1.0000
  C   C9        1.0  0.40702  0.59139  0.33717  1.0000
  C   C10       1.0  0.38418  0.80065  0.29130  1.0000
  C   C11       1.0  0.36466  0.76411  0.28916  1.0000
  C   C12       1.0  0.24243  0.64402  0.28929  1.0000
  C   C13       1.0  0.20591  0.62622  0.29362  1.0000
  C   C14       1.0  0.18774  0.59776  0.35188  1.0000
  H   H3        1.0  0.37014  0.56036  0.23891  1.0000
  H   H4        1.0  0.34285  0.75262  0.25018  1.0000
  H   H5        1.0  0.37602  0.81469  0.25473  1.0000
  H   H6        1.0  0.25455  0.66420  0.24517  1.0000
  H   H7        1.0  0.19259  0.63423  0.25351  1.0000
  C   C15       1.0  0.29916  0.65143  0.33738  1.0000
  C   C16       1.0  0.31893  0.68818  0.33807  1.0000
  C   C17       1.0  0.35568  0.70635  0.33462  1.0000
  C   C18       1.0  0.37245  0.68645  0.33004  1.0000
  C   C19       1.0  0.35384  0.64970  0.33052  1.0000
  C   C20       1.0  0.31719  0.63274  0.33362  1.0000
  H   H8        1.0  0.39893  0.69902  0.32467  1.0000
  H   H9        1.0  0.30333  0.60615  0.33423  1.0000
  H   H10       1.0  0.34056  0.59283  0.23384  1.0000
  N   N1        1.0  0.15313  0.58184  0.35114  1.0000
  N   N2        1.0  0.42260  0.57236  0.33573  1.0000
  C   C21       1.0  0.63174  0.37155  0.34024  1.0000
  C   C22       1.0  0.74329  0.37192  0.34363  1.0000
  C   C23       1.0  0.64151  0.39951  0.27998  1.0000
  C   C24       1.0  0.62332  0.41783  0.27666  1.0000
  C   C25       1.0  0.59462  0.40877  0.33354  1.0000
  C   C26       1.0  0.62275  0.20467  0.29147  1.0000
  C   C27       1.0  0.64096  0.24122  0.29022  1.0000
  C   C28       1.0  0.76197  0.36162  0.28673  1.0000
  C   C29       1.0  0.79850  0.37992  0.28525  1.0000
  C   C30       1.0  0.81767  0.40929  0.34057  1.0000
  H   H11       1.0  0.63150  0.43798  0.23259  1.0000
  H   H12       1.0  0.66048  0.25370  0.24449  1.0000
  H   H13       1.0  0.62996  0.19163  0.24809  1.0000
  H   H14       1.0  0.74911  0.34085  0.24468  1.0000
  H   H15       1.0  0.81087  0.37134  0.24374  1.0000
  C   C31       1.0  0.70615  0.35327  0.34478  1.0000
  C   C32       1.0  0.68729  0.31652  0.34683  1.0000
  C   C33       1.0  0.65058  0.29756  0.34786  1.0000
  C   C34       1.0  0.63263  0.31633  0.34651  1.0000
  C   C35       1.0  0.65039  0.35308  0.34368  1.0000
  C   C36       1.0  0.68714  0.37099  0.34319  1.0000
  H   H16       1.0  0.60606  0.30290  0.34421  1.0000
  H   H17       1.0  0.70039  0.39758  0.34124  1.0000
  H   H18       1.0  0.66180  0.40658  0.23679  1.0000
  N   N3        1.0  0.85225  0.42756  0.34401  1.0000
  N   N4        1.0  0.57645  0.42522  0.33556  1.0000
  C   C37       1.0  0.47926  0.52055  0.27455  1.0000
  C   C38       1.0  0.46226  0.53955  0.28991  1.0000
  H   H19       1.0  0.48242  0.51496  0.21000  1.0000
  H   H20       1.0  0.45405  0.54750  0.23558  1.0000
  C   C39       1.0  0.55419  0.46193  0.30043  1.0000
  C   C40       1.0  0.56173  0.49346  0.25868  1.0000
  C   C41       1.0  0.54096  0.50854  0.27370  1.0000
  H   H21       1.0  0.58276  0.50609  0.21722  1.0000
  H   H22       1.0  0.54787  0.53177  0.24341  1.0000
  C   C42       1.0  0.57521  0.44761  0.28344  1.0000
  H   H23       1.0  0.59010  0.45536  0.22912  1.0000
  C   C43       1.0  0.48440  0.96112  0.27431  1.0000
  C   C44       1.0  0.46347  0.92492  0.28307  1.0000
  H   H24       1.0  0.49381  0.97125  0.21234  1.0000
  H   H25       1.0  0.45786  0.90987  0.22688  1.0000
  C   C45       1.0  0.54868  0.09370  0.31197  1.0000
  C   C46       1.0  0.51883  0.07214  0.26101  1.0000
  C   C47       1.0  0.50044  0.03604  0.27462  1.0000
  H   H26       1.0  0.51011  0.08253  0.21338  1.0000
  H   H27       1.0  0.47867  0.02136  0.23695  1.0000
  C   C48       1.0  0.56740  0.12898  0.29431  1.0000
  H   H28       1.0  0.57171  0.13668  0.23071  1.0000
  C   C49       1.0  0.08087  0.54104  0.30128  1.0000
  H   H29       1.0  0.09716  0.54915  0.24719  1.0000
  C   C50       1.0  0.91130  0.45033  0.30901  1.0000
  C   C51       1.0  0.93520  0.44257  0.26779  1.0000
  C   C52       1.0  0.97102  0.46307  0.28361  1.0000
  H   H30       1.0  0.92673  0.42157  0.22612  1.0000
  H   H31       1.0  0.98727  0.45602  0.25364  1.0000
  C   C53       1.0  0.87601  0.42964  0.29096  1.0000
  H   H32       1.0  0.86901  0.41567  0.23499  1.0000
  C   C54       1.0  0.37538  0.74360  0.33727  1.0000
  C   C55       1.0  0.41803  0.62128  0.39098  1.0000
  C   C56       1.0  0.40058  0.64030  0.38836  1.0000
  C   C57       1.0  0.40651  0.76130  0.38757  1.0000
  C   C58       1.0  0.42629  0.79781  0.38897  1.0000
  C   C59       1.0  0.41507  0.81781  0.34178  1.0000
  C   C60       1.0  0.20722  0.58728  0.40500  1.0000
  C   C61       1.0  0.24370  0.60499  0.40046  1.0000
  H   H33       1.0  0.43897  0.62968  0.43246  1.0000
  H   H34       1.0  0.40897  0.66129  0.42987  1.0000
  H   H35       1.0  0.41508  0.74774  0.42468  1.0000
  H   H36       1.0  0.44872  0.80972  0.42563  1.0000
  H   H37       1.0  0.19515  0.56649  0.44715  1.0000
  H   H38       1.0  0.25676  0.59684  0.44098  1.0000
  H   H39       1.0  0.30629  0.70197  0.34484  1.0000
  N   N5        1.0  0.43466  0.85217  0.34203  1.0000
  C   C62       1.0  0.63214  0.26044  0.34947  1.0000
  C   C63       1.0  0.58488  0.38105  0.39400  1.0000
  C   C64       1.0  0.60301  0.36264  0.39708  1.0000
  C   C65       1.0  0.60466  0.24177  0.41064  1.0000
  C   C66       1.0  0.58672  0.20520  0.41271  1.0000
  C   C67       1.0  0.59516  0.18619  0.35228  1.0000
  C   C68       1.0  0.79919  0.41943  0.39806  1.0000
  C   C69       1.0  0.76263  0.40120  0.39926  1.0000
  H   H40       1.0  0.56442  0.37404  0.43665  1.0000
  H   H41       1.0  0.59539  0.34301  0.44275  1.0000
  H   H42       1.0  0.59790  0.25468  0.45573  1.0000
  H   H43       1.0  0.56713  0.19249  0.45815  1.0000
  H   H44       1.0  0.81228  0.44033  0.43969  1.0000
  H   H45       1.0  0.75025  0.40920  0.44267  1.0000
  H   H46       1.0  0.70059  0.30327  0.35038  1.0000
  N   N6        1.0  0.57753  0.15166  0.35736  1.0000
  C   C70       1.0  0.45765  0.54856  0.37772  1.0000
  C   C71       1.0  0.47032  0.53748  0.45069  1.0000
  C   C72       1.0  0.48750  0.51847  0.43399  1.0000
  C   C73       1.0  0.49231  0.50980  0.34634  1.0000
  C   C74       1.0  0.51175  0.49266  0.33090  1.0000
  C   C75       1.0  0.50361  0.46079  0.37308  1.0000
  C   C76       1.0  0.52484  0.44589  0.35726  1.0000
  H   H47       1.0  0.51837  0.42276  0.38739  1.0000
  H   H48       1.0  0.49752  0.51180  0.48703  1.0000
  N   N7        1.0  0.47380  0.44374  0.42822  1.0000
  N   N8        1.0  0.46599  0.54565  0.53975  1.0000
  O   O3        1.0  0.48160  0.43996  0.50659  1.0000
  O   O4        1.0  0.49467  0.56416  0.57788  1.0000
  O   O5        1.0  0.45224  0.41442  0.39755  1.0000
  O   O6        1.0  0.44829  0.51873  0.58559  1.0000
  C   C77       1.0  0.44313  0.56968  0.39175  1.0000
  H   H49       1.0  0.44907  0.58344  0.44788  1.0000
  C   C78       1.0  0.44940  0.90967  0.36695  1.0000
  C   C79       1.0  0.45706  0.93147  0.44299  1.0000
  C   C80       1.0  0.47822  0.96793  0.43294  1.0000
  C   C81       1.0  0.49198  0.98328  0.34897  1.0000
  C   C82       1.0  0.51148  0.02017  0.33871  1.0000
  C   C83       1.0  0.54164  0.04162  0.39024  1.0000
  C   C84       1.0  0.55979  0.07809  0.37639  1.0000
  H   H50       1.0  0.58190  0.09322  0.41244  1.0000
  H   H51       1.0  0.48275  0.98346  0.48768  1.0000
  N   N9        1.0  0.55414  0.02622  0.45185  1.0000
  N   N10       1.0  0.44354  0.91651  0.52771  1.0000
  O   O7        1.0  0.55534  0.03722  0.52996  1.0000
  O   O8        1.0  0.42437  0.92716  0.55922  1.0000
  O   O9        1.0  0.58385  0.03189  0.43065  1.0000
  O   O10       1.0  0.46746  0.92318  0.58268  1.0000
  C   C85       1.0  0.42649  0.87423  0.37211  1.0000
  H   H52       1.0  0.40342  0.86602  0.40056  1.0000
  C   C86       1.0  0.09426  0.54530  0.38923  1.0000
  C   C87       1.0  0.98442  0.49224  0.34103  1.0000
  C   C88       1.0  0.96077  0.50059  0.38270  1.0000
  C   C89       1.0  0.92466  0.47961  0.36613  1.0000
  H   H53       1.0  0.90804  0.48623  0.39579  1.0000
  N   N11       1.0  0.97362  0.53039  0.43797  1.0000
  N   N12       1.0  0.08285  0.53679  0.55100  1.0000
  O   O11       1.0  0.96179  0.52259  0.51610  1.0000
  O   O12       1.0  0.96625  0.55218  0.40700  1.0000
  C   C90       1.0  0.12977  0.55921  0.40343  1.0000
  H   H54       1.0  0.13723  0.55110  0.45638  1.0000
