data_image0
_chemical_formula_structural       CH4CH4C4HC4H3NHC4HC4H3NHC4HC4H3NHC29H17C3O3C29H17C3O3CNC2NC2H3CH3NHCNC2NC2H3CH3NHCNC2NC2H3CH3NH
_chemical_formula_sum              "C108 H78 N12 O6"
_cell_length_a       52.2402
_cell_length_b       52.2402
_cell_length_c       14.98
_cell_angle_alpha    90
_cell_angle_beta     90
_cell_angle_gamma    120

_space_group_name_H-M_alt    "P 1"
_space_group_IT_number       1

loop_
  _space_group_symop_operation_xyz
  'x, y, z'

loop_
  _atom_site_type_symbol
  _atom_site_label
  _atom_site_symmetry_multiplicity
  _atom_site_fract_x
  _atom_site_fract_y
  _atom_site_fract_z
  _atom_site_occupancy
  C   C1        1.0  0.39705  0.82885  0.34271  1.0000
  H   H1        1.0  0.38739  0.84168  0.33855  1.0000
  H   H2        1.0  0.35615  0.78958  0.35322  1.0000
  H   H3        1.0  0.45565  0.61429  0.33846  1.0000
  H   H4        1.0  0.15999  0.54602  0.33854  1.0000
  C   C2        1.0  0.60451  0.17246  0.33177  1.0000
  H   H5        1.0  0.61404  0.15970  0.34153  1.0000
  H   H6        1.0  0.64562  0.21172  0.32773  1.0000
  H   H7        1.0  0.54698  0.38759  0.34148  1.0000
  H   H8        1.0  0.84196  0.45471  0.34144  1.0000
  C   C3        1.0  0.53536  0.45752  0.32108  1.0000
  C   C4        1.0  0.50826  0.49242  0.33242  1.0000
  C   C5        1.0  0.51391  0.48453  0.24708  1.0000
  C   C6        1.0  0.52734  0.46689  0.24266  1.0000
  H   H9        1.0  0.53148  0.46086  0.18167  1.0000
  C   C7        1.0  0.47192  0.53588  0.27183  1.0000
  C   C8        1.0  0.48601  0.51900  0.26172  1.0000
  C   C9        1.0  0.49197  0.51134  0.17696  1.0000
  C   C10       1.0  0.50579  0.49421  0.16970  1.0000
  H   H10       1.0  0.48613  0.51798  0.11999  1.0000
  H   H11       1.0  0.50969  0.48873  0.10760  1.0000
  H   H12       1.0  0.46625  0.54334  0.21624  1.0000
  N   N1        1.0  0.54737  0.43959  0.31283  1.0000
  H   H13       1.0  0.53666  0.42225  0.27490  1.0000
  C   C11       1.0  0.54408  0.07817  0.32096  1.0000
  C   C12       1.0  0.50924  0.01616  0.33234  1.0000
  C   C13       1.0  0.51712  0.02970  0.24700  1.0000
  C   C14       1.0  0.53473  0.06076  0.24256  1.0000
  H   H14       1.0  0.54076  0.07094  0.18156  1.0000
  C   C15       1.0  0.46578  0.93635  0.27181  1.0000
  C   C16       1.0  0.48267  0.96732  0.26168  1.0000
  C   C17       1.0  0.49032  0.98094  0.17692  1.0000
  C   C18       1.0  0.50744  0.01189  0.16963  1.0000
  H   H15       1.0  0.48368  0.96846  0.11995  1.0000
  H   H16       1.0  0.51292  0.02127  0.10752  1.0000
  H   H17       1.0  0.45831  0.92322  0.21622  1.0000
  N   N2        1.0  0.56198  0.10810  0.31264  1.0000
  H   H18       1.0  0.57938  0.11475  0.27493  1.0000
  C   C19       1.0  0.92350  0.46631  0.32114  1.0000
  C   C20       1.0  0.98550  0.49343  0.33242  1.0000
  C   C21       1.0  0.97195  0.48777  0.24710  1.0000
  C   C22       1.0  0.94089  0.47434  0.24272  1.0000
  H   H19       1.0  0.93070  0.47018  0.18173  1.0000
  C   C23       1.0  0.06530  0.52973  0.27174  1.0000
  C   C24       1.0  0.03432  0.51565  0.26168  1.0000
  C   C25       1.0  0.02069  0.50968  0.17693  1.0000
  C   C26       1.0  0.98975  0.49588  0.16970  1.0000
  H   H20       1.0  0.03317  0.51550  0.11995  1.0000
  H   H21       1.0  0.98035  0.49195  0.10760  1.0000
  H   H22       1.0  0.07842  0.53536  0.21614  1.0000
  N   N3        1.0  0.89356  0.45432  0.31296  1.0000
  H   H23       1.0  0.88697  0.46506  0.27500  1.0000
  C   C27       1.0  0.42816  0.84173  0.33761  1.0000
  C   C28       1.0  0.44008  0.82264  0.34024  1.0000
  C   C29       1.0  0.42164  0.79185  0.34872  1.0000
  C   C30       1.0  0.39058  0.77911  0.35312  1.0000
  C   C31       1.0  0.37856  0.79806  0.35063  1.0000
  C   C32       1.0  0.37187  0.74880  0.36142  1.0000
  C   C33       1.0  0.37283  0.72878  0.30712  1.0000
  C   C34       1.0  0.35365  0.69849  0.31335  1.0000
  C   C35       1.0  0.32263  0.68640  0.31267  1.0000
  C   C36       1.0  0.30318  0.65549  0.31325  1.0000
  C   C37       1.0  0.31526  0.63655  0.31262  1.0000
  C   C38       1.0  0.34617  0.64802  0.31326  1.0000
  C   C39       1.0  0.36511  0.67904  0.31269  1.0000
  C   C40       1.0  0.35729  0.62884  0.30702  1.0000
  C   C41       1.0  0.37827  0.62980  0.36132  1.0000
  C   C42       1.0  0.38988  0.61110  0.35302  1.0000
  C   C43       1.0  0.42085  0.62312  0.35053  1.0000
  C   C44       1.0  0.37156  0.58004  0.34860  1.0000
  C   C45       1.0  0.38392  0.56160  0.34005  1.0000
  C   C46       1.0  0.41493  0.57353  0.33748  1.0000
  C   C47       1.0  0.43315  0.60463  0.34268  1.0000
  C   C48       1.0  0.27289  0.64438  0.30703  1.0000
  C   C49       1.0  0.25287  0.62340  0.36134  1.0000
  C   C50       1.0  0.22255  0.61178  0.35305  1.0000
  C   C51       1.0  0.20981  0.63010  0.34868  1.0000
  C   C52       1.0  0.20361  0.58082  0.35055  1.0000
  C   C53       1.0  0.17282  0.56851  0.34271  1.0000
  C   C54       1.0  0.15993  0.58673  0.33761  1.0000
  C   C55       1.0  0.17902  0.61774  0.34021  1.0000
  H   H24       1.0  0.46244  0.83100  0.33746  1.0000
  H   H25       1.0  0.43113  0.77882  0.35169  1.0000
  H   H26       1.0  0.38755  0.68758  0.31001  1.0000
  H   H27       1.0  0.31409  0.70030  0.31001  1.0000
  H   H28       1.0  0.30136  0.61411  0.30993  1.0000
  H   H29       1.0  0.22283  0.65262  0.35164  1.0000
  H   H30       1.0  0.43477  0.64553  0.35318  1.0000
  H   H31       1.0  0.36991  0.53923  0.33729  1.0000
  H   H32       1.0  0.34905  0.57054  0.35156  1.0000
  H   H33       1.0  0.17065  0.63175  0.33745  1.0000
  H   H34       1.0  0.21210  0.56690  0.35319  1.0000
  H   H35       1.0  0.38688  0.64534  0.40829  1.0000
  H   H36       1.0  0.34887  0.61345  0.25955  1.0000
  H   H37       1.0  0.35631  0.74187  0.40834  1.0000
  H   H38       1.0  0.38822  0.73574  0.25967  1.0000
  H   H39       1.0  0.25981  0.61478  0.40829  1.0000
  H   H40       1.0  0.26592  0.65280  0.25957  1.0000
  C   C56       1.0  0.12881  0.57441  0.32746  1.0000
  C   C57       1.0  0.42725  0.55473  0.32727  1.0000
  C   C58       1.0  0.44696  0.87285  0.32746  1.0000
  O   O1        1.0  0.41111  0.52896  0.28253  1.0000
  O   O2        1.0  0.47271  0.88248  0.28257  1.0000
  O   O3        1.0  0.11917  0.59053  0.28259  1.0000
  C   C59       1.0  0.57336  0.15954  0.32863  1.0000
  C   C60       1.0  0.56164  0.17868  0.31901  1.0000
  C   C61       1.0  0.58031  0.20947  0.31150  1.0000
  C   C62       1.0  0.61137  0.22217  0.31485  1.0000
  C   C63       1.0  0.62322  0.20324  0.32454  1.0000
  C   C64       1.0  0.63028  0.25244  0.30683  1.0000
  C   C65       1.0  0.62885  0.27256  0.35947  1.0000
  C   C66       1.0  0.64822  0.30286  0.35373  1.0000
  C   C67       1.0  0.67924  0.31483  0.35441  1.0000
  C   C68       1.0  0.69883  0.34571  0.35372  1.0000
  C   C69       1.0  0.68687  0.36475  0.35437  1.0000
  C   C70       1.0  0.65598  0.35347  0.35372  1.0000
  C   C71       1.0  0.63694  0.32246  0.35439  1.0000
  C   C72       1.0  0.64504  0.37283  0.35944  1.0000
  C   C73       1.0  0.62351  0.37141  0.30674  1.0000
  C   C74       1.0  0.61214  0.39031  0.31475  1.0000
  C   C75       1.0  0.58135  0.37844  0.32445  1.0000
  C   C76       1.0  0.63048  0.42137  0.31142  1.0000
  C   C77       1.0  0.61834  0.44002  0.31893  1.0000
  C   C78       1.0  0.58748  0.42829  0.32858  1.0000
  C   C79       1.0  0.56927  0.39714  0.33169  1.0000
  C   C80       1.0  0.72914  0.35665  0.35943  1.0000
  C   C81       1.0  0.74925  0.37818  0.30674  1.0000
  C   C82       1.0  0.77951  0.38955  0.31475  1.0000
  C   C83       1.0  0.79223  0.37120  0.31142  1.0000
  C   C84       1.0  0.79843  0.42033  0.32448  1.0000
  C   C85       1.0  0.82921  0.43241  0.33171  1.0000
  C   C86       1.0  0.84215  0.41420  0.32857  1.0000
  C   C87       1.0  0.82303  0.38335  0.31891  1.0000
  H   H41       1.0  0.53929  0.17035  0.31588  1.0000
  H   H42       1.0  0.57100  0.22253  0.30334  1.0000
  H   H43       1.0  0.61451  0.31402  0.35700  1.0000
  H   H44       1.0  0.68767  0.30084  0.35700  1.0000
  H   H45       1.0  0.70085  0.38718  0.35696  1.0000
  H   H46       1.0  0.77918  0.34883  0.30326  1.0000
  H   H47       1.0  0.56744  0.35604  0.32764  1.0000
  H   H48       1.0  0.63236  0.46238  0.31584  1.0000
  H   H49       1.0  0.65285  0.43069  0.30326  1.0000
  H   H50       1.0  0.83137  0.36933  0.31583  1.0000
  H   H51       1.0  0.78994  0.43425  0.32761  1.0000
  H   H52       1.0  0.61428  0.35539  0.26138  1.0000
  H   H53       1.0  0.65405  0.38877  0.40515  1.0000
  H   H54       1.0  0.64630  0.25922  0.26147  1.0000
  H   H55       1.0  0.61291  0.26563  0.40519  1.0000
  H   H56       1.0  0.74246  0.38741  0.26136  1.0000
  H   H57       1.0  0.73607  0.34764  0.40517  1.0000
  C   C88       1.0  0.87330  0.42623  0.33786  1.0000
  C   C89       1.0  0.57545  0.44741  0.33786  1.0000
  C   C90       1.0  0.55422  0.12839  0.33787  1.0000
  O   O4        1.0  0.59295  0.47458  0.37350  1.0000
  O   O5        1.0  0.52704  0.11872  0.37349  1.0000
  O   O6        1.0  0.88298  0.40873  0.37347  1.0000
  C   C91       1.0  0.52896  0.46582  0.40489  1.0000
  N   N4        1.0  0.51590  0.48272  0.40632  1.0000
  C   C92       1.0  0.49433  0.50954  0.33973  1.0000
  C   C93       1.0  0.46603  0.54321  0.35744  1.0000
  N   N5        1.0  0.48857  0.51711  0.42085  1.0000
  C   C94       1.0  0.47523  0.53349  0.43316  1.0000
  C   C95       1.0  0.53382  0.45617  0.49300  1.0000
  H   H58       1.0  0.54201  0.44071  0.48803  1.0000
  H   H59       1.0  0.51302  0.44522  0.52984  1.0000
  H   H60       1.0  0.54978  0.47543  0.53089  1.0000
  C   C96       1.0  0.47006  0.53948  0.52599  1.0000
  H   H61       1.0  0.47762  0.52899  0.57417  1.0000
  H   H62       1.0  0.44648  0.53088  0.53670  1.0000
  H   H63       1.0  0.48201  0.56323  0.53855  1.0000
  N   N6        1.0  0.45331  0.56058  0.36560  1.0000
  H   H64       1.0  0.46258  0.57698  0.40754  1.0000
  C   C97       1.0  0.53582  0.06346  0.40479  1.0000
  N   N7        1.0  0.51894  0.03350  0.40623  1.0000
  C   C98       1.0  0.49213  0.98511  0.33967  1.0000
  C   C99       1.0  0.45846  0.92315  0.35742  1.0000
  N   N8        1.0  0.48456  0.97178  0.42081  1.0000
  C   C100      1.0  0.46818  0.94206  0.43314  1.0000
  C   C101      1.0  0.54548  0.07800  0.49288  1.0000
  H   H65       1.0  0.56093  0.10165  0.48789  1.0000
  H   H66       1.0  0.55644  0.06815  0.52971  1.0000
  H   H67       1.0  0.52622  0.07468  0.53079  1.0000
  C   C102      1.0  0.46220  0.93092  0.52597  1.0000
  H   H68       1.0  0.47269  0.94896  0.57415  1.0000
  H   H69       1.0  0.47079  0.91593  0.53668  1.0000
  H   H70       1.0  0.43845  0.91912  0.53855  1.0000
  N   N9        1.0  0.44107  0.89306  0.36559  1.0000
  H   H71       1.0  0.42469  0.88593  0.40760  1.0000
  C   C103      1.0  0.93822  0.47276  0.40494  1.0000
  N   N10       1.0  0.96818  0.48582  0.40634  1.0000
  C   C104      1.0  0.01656  0.50736  0.33969  1.0000
  C   C105      1.0  0.07852  0.53561  0.35734  1.0000
  N   N11       1.0  0.02990  0.51313  0.42080  1.0000
  C   C106      1.0  0.05962  0.52645  0.43309  1.0000
  C   C107      1.0  0.92370  0.46787  0.49306  1.0000
  H   H72       1.0  0.90004  0.45965  0.48812  1.0000
  H   H73       1.0  0.93354  0.48867  0.52991  1.0000
  H   H74       1.0  0.92704  0.45193  0.53094  1.0000
  C   C108      1.0  0.07078  0.53162  0.52590  1.0000
  H   H75       1.0  0.05275  0.52409  0.57411  1.0000
  H   H76       1.0  0.08580  0.55519  0.53658  1.0000
  H   H77       1.0  0.08255  0.51964  0.53847  1.0000
  N   N12       1.0  0.10861  0.54827  0.36541  1.0000
  H   H78       1.0  0.11572  0.53904  0.40753  1.0000
