data_image0
_chemical_formula_structural       N7C18H12NC18H12C4NH3C4NH3C4NH3N7C18H12NC18H12C4NH3C4NH3C4NH3N7C18H12NC18H12C4NH3C4NH3C4NH3N7C18H12NC18H12C4NH3C4NH3C4NH3
_chemical_formula_sum              "N44 C192 H132"
_cell_length_a       49.7444
_cell_length_b       49.7445
_cell_length_c       14.4541
_cell_angle_alpha    90
_cell_angle_beta     90
_cell_angle_gamma    120

_space_group_name_H-M_alt    "P 1"
_space_group_IT_number       1

loop_
  _space_group_symop_operation_xyz
  'x, y, z'

loop_
  _atom_site_type_symbol
  _atom_site_label
  _atom_site_symmetry_multiplicity
  _atom_site_fract_x
  _atom_site_fract_y
  _atom_site_fract_z
  _atom_site_occupancy
  N   N1        1.0  0.27794  0.28706  0.31639  1.0000
  N   N2        1.0  0.29324  0.27188  0.31648  1.0000
  N   N3        1.0  0.26700  0.50651  0.30897  1.0000
  N   N4        1.0  0.28208  0.03699  0.30946  1.0000
  N   N5        1.0  0.04458  0.28814  0.31512  1.0000
  N   N6        1.0  0.51414  0.27399  0.31341  1.0000
  N   N7        1.0  0.19510  0.35525  0.36116  1.0000
  C   C1        1.0  0.21205  0.33898  0.36704  1.0000
  C   C2        1.0  0.21131  0.38855  0.36509  1.0000
  C   C3        1.0  0.16189  0.33783  0.36619  1.0000
  C   C4        1.0  0.14360  0.32616  0.28552  1.0000
  C   C5        1.0  0.11084  0.30855  0.29058  1.0000
  C   C6        1.0  0.09494  0.30206  0.37643  1.0000
  C   C7        1.0  0.11351  0.31521  0.45636  1.0000
  C   C8        1.0  0.14621  0.33177  0.45179  1.0000
  C   C9        1.0  0.22979  0.34131  0.44609  1.0000
  C   C10       1.0  0.24613  0.32492  0.45184  1.0000
  C   C11       1.0  0.24478  0.30486  0.37995  1.0000
  C   C12       1.0  0.22789  0.30352  0.29947  1.0000
  C   C13       1.0  0.21182  0.32019  0.29327  1.0000
  C   C14       1.0  0.23183  0.40659  0.29354  1.0000
  C   C15       1.0  0.24893  0.43938  0.29867  1.0000
  C   C16       1.0  0.24618  0.45551  0.37566  1.0000
  C   C17       1.0  0.22433  0.43737  0.44458  1.0000
  C   C18       1.0  0.20789  0.40469  0.44057  1.0000
  H   H1        1.0  0.25882  0.32746  0.51023  1.0000
  H   H2        1.0  0.23081  0.35499  0.50032  1.0000
  H   H3        1.0  0.19954  0.31825  0.23454  1.0000
  H   H4        1.0  0.22639  0.28958  0.24531  1.0000
  H   H5        1.0  0.15416  0.33020  0.22235  1.0000
  H   H6        1.0  0.09863  0.29997  0.23047  1.0000
  H   H7        1.0  0.23496  0.39576  0.23788  1.0000
  H   H8        1.0  0.26424  0.45141  0.24671  1.0000
  H   H9        1.0  0.22060  0.44785  0.50008  1.0000
  H   H10       1.0  0.19345  0.39281  0.49404  1.0000
  H   H11       1.0  0.15858  0.33952  0.51184  1.0000
  H   H12       1.0  0.10336  0.31258  0.51975  1.0000
  N   N8        1.0  0.36233  0.18904  0.35354  1.0000
  C   C19       1.0  0.34561  0.20533  0.36375  1.0000
  C   C20       1.0  0.34611  0.15592  0.36246  1.0000
  C   C21       1.0  0.39542  0.20601  0.36127  1.0000
  C   C22       1.0  0.41063  0.21461  0.44776  1.0000
  C   C23       1.0  0.44333  0.23020  0.45369  1.0000
  C   C24       1.0  0.46230  0.23845  0.37347  1.0000
  C   C25       1.0  0.44681  0.23077  0.28687  1.0000
  C   C26       1.0  0.41406  0.21456  0.28094  1.0000
  C   C27       1.0  0.33072  0.20489  0.44723  1.0000
  C   C28       1.0  0.31387  0.22069  0.45544  1.0000
  C   C29       1.0  0.31087  0.23774  0.38090  1.0000
  C   C30       1.0  0.32637  0.23817  0.29772  1.0000
  C   C31       1.0  0.34325  0.22236  0.28921  1.0000
  C   C32       1.0  0.34595  0.14114  0.44590  1.0000
  C   C33       1.0  0.33006  0.10851  0.45334  1.0000
  C   C34       1.0  0.31330  0.08868  0.37816  1.0000
  C   C35       1.0  0.31351  0.10401  0.29482  1.0000
  C   C36       1.0  0.32948  0.13674  0.28707  1.0000
  H   H13       1.0  0.30402  0.21952  0.51819  1.0000
  H   H14       1.0  0.33209  0.19296  0.50292  1.0000
  H   H15       1.0  0.35374  0.22315  0.22765  1.0000
  H   H16       1.0  0.32535  0.24992  0.24103  1.0000
  H   H17       1.0  0.39789  0.20930  0.50729  1.0000
  H   H18       1.0  0.45317  0.23592  0.51800  1.0000
  H   H19       1.0  0.35740  0.15413  0.50247  1.0000
  H   H20       1.0  0.33124  0.09975  0.51590  1.0000
  H   H21       1.0  0.30195  0.09140  0.23768  1.0000
  H   H22       1.0  0.32902  0.14665  0.22556  1.0000
  H   H23       1.0  0.40375  0.20878  0.21727  1.0000
  H   H24       1.0  0.45930  0.23598  0.22677  1.0000
  C   C37       1.0  0.29330  0.25385  0.38751  1.0000
  C   C38       1.0  0.27462  0.25209  0.46397  1.0000
  C   C39       1.0  0.25738  0.26781  0.46520  1.0000
  C   C40       1.0  0.25987  0.28668  0.38780  1.0000
  N   N9        1.0  0.23817  0.26291  0.53821  1.0000
  H   H25       1.0  0.23638  0.24924  0.58891  1.0000
  H   H26       1.0  0.22351  0.27038  0.53827  1.0000
  H   H27       1.0  0.27231  0.23826  0.51892  1.0000
  C   C41       1.0  0.29700  0.05498  0.38442  1.0000
  C   C42       1.0  0.29540  0.03794  0.46492  1.0000
  C   C43       1.0  0.28003  0.50503  0.46583  1.0000
  C   C44       1.0  0.26452  0.48874  0.38377  1.0000
  N   N10       1.0  0.28213  0.49074  0.54366  1.0000
  H   H28       1.0  0.29390  0.50270  0.59720  1.0000
  H   H29       1.0  0.27572  0.46885  0.54398  1.0000
  H   H30       1.0  0.30628  0.04932  0.52403  1.0000
  C   C45       1.0  0.49564  0.25352  0.37927  1.0000
  C   C46       1.0  0.51132  0.24740  0.45049  1.0000
  C   C47       1.0  0.04418  0.26154  0.45161  1.0000
  C   C48       1.0  0.06153  0.28384  0.38163  1.0000
  N   N11       1.0  0.05725  0.25175  0.51639  1.0000
  H   H31       1.0  0.04450  0.23557  0.56051  1.0000
  H   H32       1.0  0.07877  0.25692  0.51172  1.0000
  H   H33       1.0  0.49862  0.23094  0.49915  1.0000
  N   N12       1.0  0.27793  0.78705  0.31639  1.0000
  N   N13       1.0  0.29323  0.77188  0.31648  1.0000
  N   N14       1.0  0.26700  0.00651  0.30897  1.0000
  N   N15       1.0  0.28208  0.53699  0.30946  1.0000
  N   N16       1.0  0.04458  0.78814  0.31512  1.0000
  N   N17       1.0  0.51414  0.77399  0.31341  1.0000
  N   N18       1.0  0.19510  0.85525  0.36116  1.0000
  C   C49       1.0  0.21204  0.83898  0.36704  1.0000
  C   C50       1.0  0.21131  0.88855  0.36509  1.0000
  C   C51       1.0  0.16189  0.83783  0.36619  1.0000
  C   C52       1.0  0.14360  0.82617  0.28552  1.0000
  C   C53       1.0  0.11084  0.80855  0.29058  1.0000
  C   C54       1.0  0.09494  0.80206  0.37643  1.0000
  C   C55       1.0  0.11351  0.81520  0.45636  1.0000
  C   C56       1.0  0.14621  0.83177  0.45179  1.0000
  C   C57       1.0  0.22979  0.84131  0.44609  1.0000
  C   C58       1.0  0.24613  0.82492  0.45184  1.0000
  C   C59       1.0  0.24478  0.80486  0.37995  1.0000
  C   C60       1.0  0.22789  0.80352  0.29947  1.0000
  C   C61       1.0  0.21182  0.82019  0.29327  1.0000
  C   C62       1.0  0.23183  0.90659  0.29354  1.0000
  C   C63       1.0  0.24893  0.93938  0.29867  1.0000
  C   C64       1.0  0.24618  0.95551  0.37566  1.0000
  C   C65       1.0  0.22433  0.93737  0.44458  1.0000
  C   C66       1.0  0.20789  0.90468  0.44057  1.0000
  H   H34       1.0  0.25882  0.82746  0.51023  1.0000
  H   H35       1.0  0.23081  0.85499  0.50032  1.0000
  H   H36       1.0  0.19954  0.81825  0.23454  1.0000
  H   H37       1.0  0.22638  0.78958  0.24531  1.0000
  H   H38       1.0  0.15416  0.83020  0.22235  1.0000
  H   H39       1.0  0.09863  0.79997  0.23047  1.0000
  H   H40       1.0  0.23496  0.89576  0.23788  1.0000
  H   H41       1.0  0.26424  0.95141  0.24671  1.0000
  H   H42       1.0  0.22060  0.94785  0.50008  1.0000
  H   H43       1.0  0.19345  0.89281  0.49404  1.0000
  H   H44       1.0  0.15858  0.83952  0.51184  1.0000
  H   H45       1.0  0.10336  0.81258  0.51975  1.0000
  N   N19       1.0  0.36233  0.68904  0.35354  1.0000
  C   C67       1.0  0.34560  0.70532  0.36375  1.0000
  C   C68       1.0  0.34611  0.65592  0.36246  1.0000
  C   C69       1.0  0.39543  0.70601  0.36127  1.0000
  C   C70       1.0  0.41063  0.71461  0.44776  1.0000
  C   C71       1.0  0.44333  0.73019  0.45369  1.0000
  C   C72       1.0  0.46230  0.73845  0.37347  1.0000
  C   C73       1.0  0.44681  0.73077  0.28687  1.0000
  C   C74       1.0  0.41406  0.71456  0.28094  1.0000
  C   C75       1.0  0.33072  0.70489  0.44723  1.0000
  C   C76       1.0  0.31387  0.72069  0.45544  1.0000
  C   C77       1.0  0.31087  0.73774  0.38090  1.0000
  C   C78       1.0  0.32637  0.73817  0.29772  1.0000
  C   C79       1.0  0.34325  0.72236  0.28921  1.0000
  C   C80       1.0  0.34595  0.64114  0.44590  1.0000
  C   C81       1.0  0.33006  0.60851  0.45334  1.0000
  C   C82       1.0  0.31330  0.58867  0.37816  1.0000
  C   C83       1.0  0.31351  0.60401  0.29482  1.0000
  C   C84       1.0  0.32948  0.63674  0.28707  1.0000
  H   H46       1.0  0.30402  0.71952  0.51819  1.0000
  H   H47       1.0  0.33209  0.69296  0.50292  1.0000
  H   H48       1.0  0.35374  0.72315  0.22765  1.0000
  H   H49       1.0  0.32535  0.74992  0.24103  1.0000
  H   H50       1.0  0.39789  0.70930  0.50729  1.0000
  H   H51       1.0  0.45317  0.73592  0.51800  1.0000
  H   H52       1.0  0.35740  0.65413  0.50247  1.0000
  H   H53       1.0  0.33124  0.59974  0.51590  1.0000
  H   H54       1.0  0.30195  0.59140  0.23768  1.0000
  H   H55       1.0  0.32902  0.64665  0.22556  1.0000
  H   H56       1.0  0.40375  0.70878  0.21727  1.0000
  H   H57       1.0  0.45930  0.73599  0.22677  1.0000
  C   C85       1.0  0.29330  0.75385  0.38751  1.0000
  C   C86       1.0  0.27462  0.75209  0.46397  1.0000
  C   C87       1.0  0.25738  0.76781  0.46520  1.0000
  C   C88       1.0  0.25987  0.78668  0.38779  1.0000
  N   N20       1.0  0.23817  0.76291  0.53821  1.0000
  H   H58       1.0  0.23638  0.74923  0.58891  1.0000
  H   H59       1.0  0.22351  0.77038  0.53826  1.0000
  H   H60       1.0  0.27231  0.73826  0.51892  1.0000
  C   C89       1.0  0.29699  0.55498  0.38442  1.0000
  C   C90       1.0  0.29540  0.53794  0.46492  1.0000
  C   C91       1.0  0.28003  0.00503  0.46583  1.0000
  C   C92       1.0  0.26452  0.98874  0.38377  1.0000
  N   N21       1.0  0.28214  0.99075  0.54365  1.0000
  H   H61       1.0  0.29390  0.00269  0.59720  1.0000
  H   H62       1.0  0.27572  0.96884  0.54398  1.0000
  H   H63       1.0  0.30628  0.54932  0.52404  1.0000
  C   C93       1.0  0.49564  0.75352  0.37927  1.0000
  C   C94       1.0  0.51132  0.74740  0.45049  1.0000
  C   C95       1.0  0.04418  0.76154  0.45161  1.0000
  C   C96       1.0  0.06152  0.78383  0.38163  1.0000
  N   N22       1.0  0.05725  0.75175  0.51639  1.0000
  H   H64       1.0  0.04450  0.73557  0.56051  1.0000
  H   H65       1.0  0.07877  0.75692  0.51172  1.0000
  H   H66       1.0  0.49862  0.73094  0.49915  1.0000
  N   N23       1.0  0.77794  0.28706  0.31639  1.0000
  N   N24       1.0  0.79324  0.27188  0.31648  1.0000
  N   N25       1.0  0.76700  0.50651  0.30897  1.0000
  N   N26       1.0  0.78208  0.03699  0.30946  1.0000
  N   N27       1.0  0.54458  0.28814  0.31512  1.0000
  N   N28       1.0  0.01414  0.27399  0.31341  1.0000
  N   N29       1.0  0.69510  0.35525  0.36116  1.0000
  C   C97       1.0  0.71205  0.33898  0.36704  1.0000
  C   C98       1.0  0.71131  0.38855  0.36509  1.0000
  C   C99       1.0  0.66189  0.33783  0.36619  1.0000
  C   C100      1.0  0.64360  0.32616  0.28552  1.0000
  C   C101      1.0  0.61084  0.30855  0.29058  1.0000
  C   C102      1.0  0.59494  0.30206  0.37643  1.0000
  C   C103      1.0  0.61351  0.31521  0.45636  1.0000
  C   C104      1.0  0.64621  0.33177  0.45179  1.0000
  C   C105      1.0  0.72979  0.34131  0.44609  1.0000
  C   C106      1.0  0.74613  0.32492  0.45184  1.0000
  C   C107      1.0  0.74478  0.30486  0.37995  1.0000
  C   C108      1.0  0.72789  0.30352  0.29947  1.0000
  C   C109      1.0  0.71182  0.32019  0.29327  1.0000
  C   C110      1.0  0.73183  0.40659  0.29354  1.0000
  C   C111      1.0  0.74893  0.43938  0.29867  1.0000
  C   C112      1.0  0.74618  0.45551  0.37566  1.0000
  C   C113      1.0  0.72433  0.43737  0.44458  1.0000
  C   C114      1.0  0.70789  0.40469  0.44057  1.0000
  H   H67       1.0  0.75882  0.32746  0.51023  1.0000
  H   H68       1.0  0.73081  0.35499  0.50032  1.0000
  H   H69       1.0  0.69954  0.31825  0.23454  1.0000
  H   H70       1.0  0.72639  0.28958  0.24531  1.0000
  H   H71       1.0  0.65416  0.33020  0.22235  1.0000
  H   H72       1.0  0.59863  0.29997  0.23047  1.0000
  H   H73       1.0  0.73496  0.39576  0.23788  1.0000
  H   H74       1.0  0.76424  0.45141  0.24671  1.0000
  H   H75       1.0  0.72060  0.44785  0.50008  1.0000
  H   H76       1.0  0.69345  0.39281  0.49404  1.0000
  H   H77       1.0  0.65858  0.33952  0.51184  1.0000
  H   H78       1.0  0.60336  0.31258  0.51975  1.0000
  N   N30       1.0  0.86233  0.18904  0.35354  1.0000
  C   C115      1.0  0.84561  0.20533  0.36375  1.0000
  C   C116      1.0  0.84611  0.15592  0.36246  1.0000
  C   C117      1.0  0.89543  0.20601  0.36127  1.0000
  C   C118      1.0  0.91063  0.21461  0.44776  1.0000
  C   C119      1.0  0.94333  0.23020  0.45369  1.0000
  C   C120      1.0  0.96230  0.23845  0.37347  1.0000
  C   C121      1.0  0.94681  0.23077  0.28687  1.0000
  C   C122      1.0  0.91406  0.21456  0.28094  1.0000
  C   C123      1.0  0.83072  0.20489  0.44723  1.0000
  C   C124      1.0  0.81387  0.22069  0.45544  1.0000
  C   C125      1.0  0.81087  0.23774  0.38090  1.0000
  C   C126      1.0  0.82637  0.23817  0.29772  1.0000
  C   C127      1.0  0.84325  0.22236  0.28921  1.0000
  C   C128      1.0  0.84595  0.14114  0.44590  1.0000
  C   C129      1.0  0.83006  0.10851  0.45334  1.0000
  C   C130      1.0  0.81330  0.08868  0.37816  1.0000
  C   C131      1.0  0.81351  0.10401  0.29482  1.0000
  C   C132      1.0  0.82948  0.13674  0.28707  1.0000
  H   H79       1.0  0.80402  0.21952  0.51819  1.0000
  H   H80       1.0  0.83210  0.19296  0.50292  1.0000
  H   H81       1.0  0.85374  0.22315  0.22765  1.0000
  H   H82       1.0  0.82535  0.24992  0.24103  1.0000
  H   H83       1.0  0.89790  0.20930  0.50729  1.0000
  H   H84       1.0  0.95317  0.23592  0.51800  1.0000
  H   H85       1.0  0.85740  0.15413  0.50247  1.0000
  H   H86       1.0  0.83124  0.09975  0.51590  1.0000
  H   H87       1.0  0.80195  0.09140  0.23768  1.0000
  H   H88       1.0  0.82902  0.14665  0.22556  1.0000
  H   H89       1.0  0.90375  0.20878  0.21727  1.0000
  H   H90       1.0  0.95930  0.23598  0.22677  1.0000
  C   C133      1.0  0.79330  0.25385  0.38751  1.0000
  C   C134      1.0  0.77462  0.25209  0.46397  1.0000
  C   C135      1.0  0.75738  0.26781  0.46520  1.0000
  C   C136      1.0  0.75987  0.28668  0.38780  1.0000
  N   N31       1.0  0.73817  0.26291  0.53821  1.0000
  H   H91       1.0  0.73638  0.24924  0.58891  1.0000
  H   H92       1.0  0.72351  0.27038  0.53827  1.0000
  H   H93       1.0  0.77231  0.23826  0.51892  1.0000
  C   C137      1.0  0.79700  0.05498  0.38442  1.0000
  C   C138      1.0  0.79540  0.03794  0.46492  1.0000
  C   C139      1.0  0.78003  0.50503  0.46583  1.0000
  C   C140      1.0  0.76452  0.48874  0.38377  1.0000
  N   N32       1.0  0.78214  0.49074  0.54366  1.0000
  H   H94       1.0  0.79390  0.50270  0.59720  1.0000
  H   H95       1.0  0.77572  0.46885  0.54398  1.0000
  H   H96       1.0  0.80628  0.04932  0.52403  1.0000
  C   C141      1.0  0.99564  0.25352  0.37927  1.0000
  C   C142      1.0  0.01132  0.24740  0.45049  1.0000
  C   C143      1.0  0.54418  0.26154  0.45161  1.0000
  C   C144      1.0  0.56152  0.28384  0.38163  1.0000
  N   N33       1.0  0.55725  0.25175  0.51639  1.0000
  H   H97       1.0  0.54450  0.23557  0.56051  1.0000
  H   H98       1.0  0.57877  0.25692  0.51172  1.0000
  H   H99       1.0  0.99862  0.23094  0.49915  1.0000
  N   N34       1.0  0.77794  0.78705  0.31639  1.0000
  N   N35       1.0  0.79324  0.77188  0.31648  1.0000
  N   N36       1.0  0.76700  0.00651  0.30897  1.0000
  N   N37       1.0  0.78208  0.53699  0.30946  1.0000
  N   N38       1.0  0.54458  0.78814  0.31512  1.0000
  N   N39       1.0  0.01414  0.77399  0.31341  1.0000
  N   N40       1.0  0.69510  0.85525  0.36116  1.0000
  C   C145      1.0  0.71205  0.83898  0.36704  1.0000
  C   C146      1.0  0.71131  0.88855  0.36509  1.0000
  C   C147      1.0  0.66189  0.83783  0.36619  1.0000
  C   C148      1.0  0.64360  0.82617  0.28552  1.0000
  C   C149      1.0  0.61084  0.80855  0.29058  1.0000
  C   C150      1.0  0.59494  0.80206  0.37643  1.0000
  C   C151      1.0  0.61351  0.81520  0.45636  1.0000
  C   C152      1.0  0.64621  0.83177  0.45179  1.0000
  C   C153      1.0  0.72979  0.84131  0.44609  1.0000
  C   C154      1.0  0.74613  0.82492  0.45184  1.0000
  C   C155      1.0  0.74478  0.80486  0.37995  1.0000
  C   C156      1.0  0.72789  0.80352  0.29947  1.0000
  C   C157      1.0  0.71182  0.82019  0.29327  1.0000
  C   C158      1.0  0.73183  0.90659  0.29354  1.0000
  C   C159      1.0  0.74893  0.93938  0.29867  1.0000
  C   C160      1.0  0.74618  0.95551  0.37566  1.0000
  C   C161      1.0  0.72433  0.93737  0.44458  1.0000
  C   C162      1.0  0.70789  0.90468  0.44057  1.0000
  H   H100      1.0  0.75882  0.82746  0.51023  1.0000
  H   H101      1.0  0.73081  0.85499  0.50032  1.0000
  H   H102      1.0  0.69954  0.81825  0.23454  1.0000
  H   H103      1.0  0.72639  0.78958  0.24531  1.0000
  H   H104      1.0  0.65416  0.83020  0.22235  1.0000
  H   H105      1.0  0.59863  0.79997  0.23047  1.0000
  H   H106      1.0  0.73496  0.89576  0.23788  1.0000
  H   H107      1.0  0.76424  0.95141  0.24671  1.0000
  H   H108      1.0  0.72060  0.94785  0.50008  1.0000
  H   H109      1.0  0.69345  0.89281  0.49404  1.0000
  H   H110      1.0  0.65858  0.83952  0.51184  1.0000
  H   H111      1.0  0.60336  0.81258  0.51975  1.0000
  N   N41       1.0  0.86233  0.68904  0.35354  1.0000
  C   C163      1.0  0.84561  0.70532  0.36375  1.0000
  C   C164      1.0  0.84611  0.65592  0.36246  1.0000
  C   C165      1.0  0.89543  0.70601  0.36127  1.0000
  C   C166      1.0  0.91063  0.71461  0.44776  1.0000
  C   C167      1.0  0.94333  0.73019  0.45369  1.0000
  C   C168      1.0  0.96230  0.73845  0.37347  1.0000
  C   C169      1.0  0.94681  0.73077  0.28687  1.0000
  C   C170      1.0  0.91406  0.71456  0.28094  1.0000
  C   C171      1.0  0.83072  0.70489  0.44723  1.0000
  C   C172      1.0  0.81387  0.72069  0.45544  1.0000
  C   C173      1.0  0.81087  0.73774  0.38090  1.0000
  C   C174      1.0  0.82637  0.73817  0.29772  1.0000
  C   C175      1.0  0.84325  0.72236  0.28921  1.0000
  C   C176      1.0  0.84595  0.64114  0.44590  1.0000
  C   C177      1.0  0.83006  0.60851  0.45334  1.0000
  C   C178      1.0  0.81330  0.58867  0.37816  1.0000
  C   C179      1.0  0.81351  0.60401  0.29482  1.0000
  C   C180      1.0  0.82948  0.63674  0.28707  1.0000
  H   H112      1.0  0.80402  0.71952  0.51819  1.0000
  H   H113      1.0  0.83209  0.69296  0.50292  1.0000
  H   H114      1.0  0.85374  0.72315  0.22765  1.0000
  H   H115      1.0  0.82535  0.74992  0.24103  1.0000
  H   H116      1.0  0.89790  0.70930  0.50729  1.0000
  H   H117      1.0  0.95317  0.73592  0.51800  1.0000
  H   H118      1.0  0.85740  0.65413  0.50247  1.0000
  H   H119      1.0  0.83124  0.59974  0.51590  1.0000
  H   H120      1.0  0.80195  0.59140  0.23768  1.0000
  H   H121      1.0  0.82902  0.64665  0.22556  1.0000
  H   H122      1.0  0.90375  0.70878  0.21727  1.0000
  H   H123      1.0  0.95930  0.73599  0.22677  1.0000
  C   C181      1.0  0.79330  0.75385  0.38751  1.0000
  C   C182      1.0  0.77462  0.75209  0.46397  1.0000
  C   C183      1.0  0.75738  0.76781  0.46520  1.0000
  C   C184      1.0  0.75987  0.78668  0.38779  1.0000
  N   N42       1.0  0.73817  0.76291  0.53821  1.0000
  H   H124      1.0  0.73638  0.74923  0.58891  1.0000
  H   H125      1.0  0.72351  0.77038  0.53826  1.0000
  H   H126      1.0  0.77231  0.73826  0.51892  1.0000
  C   C185      1.0  0.79699  0.55498  0.38442  1.0000
  C   C186      1.0  0.79540  0.53794  0.46492  1.0000
  C   C187      1.0  0.78003  0.00503  0.46583  1.0000
  C   C188      1.0  0.76452  0.98874  0.38377  1.0000
  N   N43       1.0  0.78214  0.99075  0.54365  1.0000
  H   H127      1.0  0.79390  0.00269  0.59720  1.0000
  H   H128      1.0  0.77572  0.96884  0.54398  1.0000
  H   H129      1.0  0.80628  0.54932  0.52404  1.0000
  C   C189      1.0  0.99564  0.75352  0.37927  1.0000
  C   C190      1.0  0.01133  0.74740  0.45049  1.0000
  C   C191      1.0  0.54418  0.76154  0.45161  1.0000
  C   C192      1.0  0.56153  0.78383  0.38163  1.0000
  N   N44       1.0  0.55725  0.75175  0.51639  1.0000
  H   H130      1.0  0.54450  0.73557  0.56051  1.0000
  H   H131      1.0  0.57877  0.75692  0.51172  1.0000
  H   H132      1.0  0.99862  0.73094  0.49915  1.0000
