data_image0
_chemical_formula_structural       CHC3H2NC2HCHCHC3HN2CHOCNO2CHC2HC2NO2CNOC2HC3NO2CHC3HNO2CHC3HNO2CHCNO2C3HNO2CHCHCHC3HNO2CHC3HNO2CHC3HNO2CHC6H3N3C6H3N3C6H3N3C6H3N3C6H3N3CNO2C3HNO2CHC3HNO2CHCHC3HNO2CHC3HNO2CHC3HNO2CHC3HNO2CH
_chemical_formula_sum              "C108 H54 N36 O36"
_cell_length_a       47.5276
_cell_length_b       47.5276
_cell_length_c       14.8164
_cell_angle_alpha    90
_cell_angle_beta     90
_cell_angle_gamma    120

_space_group_name_H-M_alt    "P 1"
_space_group_IT_number       1

loop_
  _space_group_symop_operation_xyz
  'x, y, z'

loop_
  _atom_site_type_symbol
  _atom_site_label
  _atom_site_symmetry_multiplicity
  _atom_site_fract_x
  _atom_site_fract_y
  _atom_site_fract_z
  _atom_site_occupancy
  C   C1        1.0  0.03042  0.52100  0.29638  1.0000
  H   H1        1.0  0.04537  0.53140  0.24191  1.0000
  C   C2        1.0  0.14965  0.55414  0.35612  1.0000
  C   C3        1.0  0.13218  0.57126  0.36077  1.0000
  C   C4        1.0  0.14991  0.60575  0.35922  1.0000
  H   H2        1.0  0.13791  0.61860  0.36169  1.0000
  H   H3        1.0  0.13718  0.52931  0.35454  1.0000
  N   N1        1.0  0.09959  0.55666  0.35964  1.0000
  C   C5        1.0  0.04387  0.51845  0.37885  1.0000
  C   C6        1.0  0.02221  0.50294  0.45133  1.0000
  H   H4        1.0  0.03120  0.50057  0.51192  1.0000
  C   C7        1.0  0.07692  0.52878  0.38788  1.0000
  H   H5        1.0  0.08305  0.51420  0.41973  1.0000
  C   C8        1.0  0.23161  0.56662  0.30725  1.0000
  H   H6        1.0  0.24061  0.58806  0.27274  1.0000
  C   C9        1.0  0.18390  0.57061  0.34634  1.0000
  C   C10       1.0  0.18412  0.62286  0.35280  1.0000
  C   C11       1.0  0.20025  0.60497  0.34657  1.0000
  H   H7        1.0  0.22499  0.61762  0.34894  1.0000
  N   N2        1.0  0.20068  0.55414  0.33906  1.0000
  N   N3        1.0  0.20387  0.65552  0.35149  1.0000
  C   C12       1.0  0.24685  0.52618  0.36279  1.0000
  H   H8        1.0  0.22437  0.51211  0.39085  1.0000
  O   O1        1.0  0.24114  0.46381  0.38936  1.0000
  C   C13       1.0  0.24638  0.71218  0.34103  1.0000
  N   N4        1.0  0.23772  0.75182  0.42553  1.0000
  O   O2        1.0  0.24746  0.75961  0.50540  1.0000
  O   O3        1.0  0.23504  0.77435  0.38983  1.0000
  C   C14       1.0  0.21356  0.68747  0.35684  1.0000
  H   H9        1.0  0.19706  0.69314  0.38246  1.0000
  C   C15       1.0  0.25333  0.55453  0.31547  1.0000
  C   C16       1.0  0.28473  0.57322  0.27831  1.0000
  H   H10       1.0  0.29029  0.59377  0.24222  1.0000
  C   C17       1.0  0.30082  0.73081  0.27800  1.0000
  C   C18       1.0  0.26827  0.70591  0.29063  1.0000
  N   N5        1.0  0.25797  0.67553  0.24803  1.0000
  O   O4        1.0  0.27504  0.66327  0.27077  1.0000
  O   O5        1.0  0.25873  0.67800  0.16348  1.0000
  C   C19       1.0  0.27108  0.51722  0.37483  1.0000
  N   N6        1.0  0.26364  0.48898  0.42527  1.0000
  O   O6        1.0  0.25579  0.49084  0.50514  1.0000
  C   C20       1.0  0.25849  0.74441  0.37487  1.0000
  C   C21       1.0  0.29169  0.76865  0.36281  1.0000
  H   H11       1.0  0.30011  0.79110  0.39106  1.0000
  C   C22       1.0  0.30333  0.53736  0.34117  1.0000
  C   C23       1.0  0.97504  0.49380  0.36015  1.0000
  C   C24       1.0  0.99657  0.50895  0.28611  1.0000
  N   N7        1.0  0.98385  0.51138  0.20168  1.0000
  O   O7        1.0  0.98915  0.49615  0.14091  1.0000
  O   O8        1.0  0.99555  0.54045  0.17739  1.0000
  C   C25       1.0  0.94202  0.48415  0.35159  1.0000
  H   H12       1.0  0.93658  0.50006  0.32519  1.0000
  C   C26       1.0  0.52168  0.48432  0.36017  1.0000
  C   C27       1.0  0.50652  0.49069  0.28613  1.0000
  C   C28       1.0  0.49448  0.51250  0.29638  1.0000
  H   H13       1.0  0.48407  0.51704  0.24192  1.0000
  N   N8        1.0  0.50407  0.47553  0.20171  1.0000
  O   O9        1.0  0.51929  0.49604  0.14091  1.0000
  O   O10       1.0  0.47500  0.45816  0.17746  1.0000
  C   C29       1.0  0.53133  0.46095  0.35162  1.0000
  H   H14       1.0  0.51541  0.43960  0.32521  1.0000
  C   C30       1.0  0.53117  0.04044  0.36011  1.0000
  C   C31       1.0  0.52478  0.01891  0.28607  1.0000
  C   C32       1.0  0.50297  0.98506  0.29634  1.0000
  H   H15       1.0  0.49843  0.97011  0.24188  1.0000
  N   N9        1.0  0.53993  0.03163  0.20163  1.0000
  O   O11       1.0  0.51940  0.02633  0.14087  1.0000
  O   O12       1.0  0.55728  0.01991  0.17732  1.0000
  C   C33       1.0  0.55452  0.07346  0.35152  1.0000
  H   H16       1.0  0.57588  0.07891  0.32517  1.0000
  C   C34       1.0  0.30963  0.56557  0.29095  1.0000
  N   N10       1.0  0.34003  0.58569  0.24854  1.0000
  O   O13       1.0  0.35227  0.61501  0.27147  1.0000
  O   O14       1.0  0.33763  0.58406  0.16399  1.0000
  C   C35       1.0  0.46100  0.70191  0.31541  1.0000
  C   C36       1.0  0.44232  0.71462  0.27813  1.0000
  C   C37       1.0  0.44996  0.74717  0.29070  1.0000
  H   H17       1.0  0.42179  0.69963  0.24197  1.0000
  N   N11       1.0  0.42987  0.75745  0.24814  1.0000
  O   O15       1.0  0.40054  0.74038  0.27098  1.0000
  O   O16       1.0  0.43154  0.75666  0.16359  1.0000
  C   C38       1.0  0.44891  0.66810  0.30725  1.0000
  H   H18       1.0  0.42748  0.65566  0.27270  1.0000
  C   C39       1.0  0.31354  0.76219  0.31532  1.0000
  H   H19       1.0  0.31580  0.72527  0.24183  1.0000
  C   C40       1.0  0.34735  0.78390  0.30714  1.0000
  H   H20       1.0  0.35979  0.77490  0.27257  1.0000
  C   C41       1.0  0.76559  0.45827  0.31401  1.0000
  C   C42       1.0  0.73437  0.44004  0.27544  1.0000
  C   C43       1.0  0.70937  0.44746  0.28956  1.0000
  H   H21       1.0  0.72898  0.41993  0.23740  1.0000
  N   N12       1.0  0.67912  0.42780  0.24591  1.0000
  O   O17       1.0  0.66686  0.39823  0.26614  1.0000
  O   O18       1.0  0.68179  0.43042  0.16150  1.0000
  C   C44       1.0  0.78731  0.44623  0.30464  1.0000
  H   H22       1.0  0.77850  0.42513  0.26855  1.0000
  C   C45       1.0  0.55722  0.31039  0.31406  1.0000
  C   C46       1.0  0.57544  0.29740  0.27548  1.0000
  C   C47       1.0  0.56800  0.26497  0.28955  1.0000
  H   H23       1.0  0.59554  0.31211  0.23739  1.0000
  N   N13       1.0  0.58766  0.25438  0.24587  1.0000
  O   O19       1.0  0.61723  0.27168  0.26609  1.0000
  O   O20       1.0  0.58503  0.25444  0.16146  1.0000
  C   C48       1.0  0.56925  0.34415  0.30463  1.0000
  H   H24       1.0  0.59035  0.35644  0.26854  1.0000
  C   C49       1.0  0.70509  0.24991  0.31408  1.0000
  C   C50       1.0  0.71808  0.28112  0.27550  1.0000
  C   C51       1.0  0.75052  0.30611  0.28954  1.0000
  H   H25       1.0  0.70337  0.28651  0.23741  1.0000
  N   N14       1.0  0.76111  0.33636  0.24584  1.0000
  O   O21       1.0  0.74381  0.34862  0.26606  1.0000
  O   O22       1.0  0.76104  0.33366  0.16144  1.0000
  C   C52       1.0  0.67133  0.22818  0.30470  1.0000
  H   H26       1.0  0.65904  0.23699  0.26863  1.0000
  C   C53       1.0  0.44492  0.61641  0.34647  1.0000
  C   C54       1.0  0.46138  0.59863  0.35627  1.0000
  C   C55       1.0  0.44425  0.56403  0.36069  1.0000
  C   C56       1.0  0.40976  0.54728  0.35926  1.0000
  C   C57       1.0  0.39266  0.56440  0.35294  1.0000
  C   C58       1.0  0.41056  0.59841  0.34682  1.0000
  H   H27       1.0  0.39691  0.52243  0.36166  1.0000
  H   H28       1.0  0.39793  0.61052  0.34911  1.0000
  H   H29       1.0  0.48622  0.61098  0.35444  1.0000
  N   N15       1.0  0.46139  0.64966  0.33912  1.0000
  N   N16       1.0  0.45885  0.54604  0.35958  1.0000
  N   N17       1.0  0.36000  0.55149  0.35170  1.0000
  C   C59       1.0  0.39907  0.83159  0.34632  1.0000
  C   C60       1.0  0.41685  0.86583  0.35614  1.0000
  C   C61       1.0  0.45145  0.88330  0.36078  1.0000
  C   C62       1.0  0.46819  0.86555  0.35921  1.0000
  C   C63       1.0  0.45107  0.83134  0.35277  1.0000
  C   C64       1.0  0.41707  0.81523  0.34651  1.0000
  H   H30       1.0  0.49304  0.87754  0.36170  1.0000
  H   H31       1.0  0.40496  0.79049  0.34884  1.0000
  H   H32       1.0  0.40450  0.87832  0.35456  1.0000
  N   N18       1.0  0.36581  0.81482  0.33903  1.0000
  N   N19       1.0  0.46945  0.91589  0.35966  1.0000
  N   N20       1.0  0.46398  0.81158  0.35147  1.0000
  C   C65       1.0  0.83466  0.44176  0.34540  1.0000
  C   C66       1.0  0.86875  0.45813  0.35841  1.0000
  C   C67       1.0  0.88618  0.44099  0.36508  1.0000
  C   C68       1.0  0.86828  0.40649  0.36525  1.0000
  C   C69       1.0  0.83421  0.38947  0.35435  1.0000
  C   C70       1.0  0.81828  0.40742  0.34412  1.0000
  H   H33       1.0  0.88012  0.39356  0.37111  1.0000
  H   H34       1.0  0.79352  0.39483  0.34359  1.0000
  H   H35       1.0  0.88109  0.48295  0.35992  1.0000
  N   N21       1.0  0.81798  0.45833  0.33810  1.0000
  N   N22       1.0  0.91873  0.45533  0.37090  1.0000
  N   N23       1.0  0.81434  0.35682  0.35323  1.0000
  C   C71       1.0  0.57371  0.39597  0.34529  1.0000
  C   C72       1.0  0.55734  0.41370  0.35828  1.0000
  C   C73       1.0  0.57448  0.44826  0.36503  1.0000
  C   C74       1.0  0.60898  0.46486  0.36517  1.0000
  C   C75       1.0  0.62600  0.44781  0.35424  1.0000
  C   C76       1.0  0.60805  0.41393  0.34391  1.0000
  H   H36       1.0  0.62192  0.48963  0.37113  1.0000
  H   H37       1.0  0.62065  0.40178  0.34353  1.0000
  H   H38       1.0  0.53252  0.40121  0.35995  1.0000
  N   N24       1.0  0.55715  0.36272  0.33806  1.0000
  N   N25       1.0  0.56015  0.46648  0.37087  1.0000
  N   N26       1.0  0.65866  0.46060  0.35319  1.0000
  C   C77       1.0  0.61952  0.18083  0.34542  1.0000
  C   C78       1.0  0.60178  0.14673  0.35838  1.0000
  C   C79       1.0  0.56722  0.12931  0.36508  1.0000
  C   C80       1.0  0.55061  0.14721  0.36526  1.0000
  C   C81       1.0  0.56766  0.18128  0.35437  1.0000
  C   C82       1.0  0.60155  0.19721  0.34416  1.0000
  H   H39       1.0  0.52585  0.13537  0.37112  1.0000
  H   H40       1.0  0.61371  0.22196  0.34364  1.0000
  H   H41       1.0  0.61427  0.13439  0.35994  1.0000
  N   N27       1.0  0.65276  0.19751  0.33814  1.0000
  N   N28       1.0  0.54900  0.09675  0.37086  1.0000
  N   N29       1.0  0.55488  0.20115  0.35325  1.0000
  C   C83       1.0  0.98830  0.49104  0.44359  1.0000
  N   N30       1.0  0.96753  0.47683  0.51890  1.0000
  O   O23       1.0  0.96798  0.45203  0.54632  1.0000
  O   O24       1.0  0.97518  0.49660  0.58316  1.0000
  C   C84       1.0  0.49706  0.52852  0.37883  1.0000
  C   C85       1.0  0.51258  0.52238  0.45130  1.0000
  C   C86       1.0  0.52446  0.50036  0.44358  1.0000
  H   H42       1.0  0.51494  0.53374  0.51189  1.0000
  N   N31       1.0  0.53868  0.49381  0.51889  1.0000
  O   O25       1.0  0.56348  0.51905  0.54626  1.0000
  O   O26       1.0  0.51892  0.48171  0.58317  1.0000
  C   C87       1.0  0.48673  0.55125  0.38786  1.0000
  H   H43       1.0  0.50130  0.57194  0.41974  1.0000
  C   C88       1.0  0.48698  0.97161  0.37882  1.0000
  C   C89       1.0  0.49312  0.99328  0.45127  1.0000
  C   C90       1.0  0.51513  0.02719  0.44354  1.0000
  H   H44       1.0  0.48176  0.98429  0.51187  1.0000
  N   N32       1.0  0.52169  0.04796  0.51884  1.0000
  O   O27       1.0  0.49644  0.04752  0.54620  1.0000
  O   O28       1.0  0.53379  0.04031  0.58312  1.0000
  C   C91       1.0  0.46424  0.93857  0.38785  1.0000
  H   H45       1.0  0.44354  0.93246  0.41965  1.0000
  C   C92       1.0  0.32805  0.52926  0.35703  1.0000
  H   H46       1.0  0.32234  0.50704  0.38234  1.0000
  C   C93       1.0  0.47814  0.76908  0.34103  1.0000
  C   C94       1.0  0.49827  0.75698  0.37483  1.0000
  C   C95       1.0  0.48932  0.72378  0.36280  1.0000
  H   H47       1.0  0.50338  0.71538  0.39100  1.0000
  N   N33       1.0  0.52648  0.77778  0.42539  1.0000
  O   O29       1.0  0.52457  0.76806  0.50528  1.0000
  O   O30       1.0  0.55168  0.78046  0.38961  1.0000
  C   C96       1.0  0.48623  0.80189  0.35683  1.0000
  H   H48       1.0  0.50840  0.81841  0.38241  1.0000
  C   C97       1.0  0.71541  0.47499  0.34273  1.0000
  C   C98       1.0  0.74751  0.49475  0.37777  1.0000
  C   C99       1.0  0.77183  0.48599  0.36421  1.0000
  H   H49       1.0  0.79417  0.49970  0.39340  1.0000
  N   N34       1.0  0.75472  0.52232  0.43112  1.0000
  O   O31       1.0  0.76228  0.51947  0.51053  1.0000
  O   O32       1.0  0.77734  0.54795  0.39741  1.0000
  C   C100      1.0  0.69057  0.48278  0.36039  1.0000
  H   H50       1.0  0.69609  0.50457  0.38851  1.0000
  C   C101      1.0  0.54048  0.24348  0.34274  1.0000
  C   C102      1.0  0.52072  0.25583  0.37780  1.0000
  C   C103      1.0  0.52949  0.28892  0.36423  1.0000
  H   H51       1.0  0.51578  0.29755  0.39340  1.0000
  N   N35       1.0  0.49315  0.23547  0.43112  1.0000
  O   O33       1.0  0.49600  0.24588  0.51053  1.0000
  O   O34       1.0  0.46753  0.23247  0.39740  1.0000
  C   C104      1.0  0.53268  0.21085  0.36038  1.0000
  H   H52       1.0  0.51089  0.19460  0.38851  1.0000
  C   C105      1.0  0.77200  0.30007  0.34273  1.0000
  C   C106      1.0  0.75965  0.26797  0.37780  1.0000
  C   C107      1.0  0.72657  0.24366  0.36423  1.0000
  H   H53       1.0  0.71794  0.22132  0.39345  1.0000
  N   N36       1.0  0.78001  0.26076  0.43114  1.0000
  O   O35       1.0  0.76960  0.25320  0.51056  1.0000
  O   O36       1.0  0.78302  0.23814  0.39744  1.0000
  C   C108      1.0  0.80463  0.32491  0.36037  1.0000
  H   H54       1.0  0.82089  0.31937  0.38851  1.0000
