data_image0
_chemical_formula_structural       C8H8NC5H3C16H4C6NH3C4NC6NH6C8H8NC5H3C16H4C6NH3C4NC6NH6C8H8NC5H3C16H4C6NH3C4NC6NH6C8H8NC5H3C16H4C6NH3C4NC6NH6
_chemical_formula_sum              "C180 H96 N16"
_cell_length_a       33.7638
_cell_length_b       33.7638
_cell_length_c       14.9469
_cell_angle_alpha    90
_cell_angle_beta     90
_cell_angle_gamma    89.9983

_space_group_name_H-M_alt    "P 1"
_space_group_IT_number       1

loop_
  _space_group_symop_operation_xyz
  'x, y, z'

loop_
  _atom_site_type_symbol
  _atom_site_label
  _atom_site_symmetry_multiplicity
  _atom_site_fract_x
  _atom_site_fract_y
  _atom_site_fract_z
  _atom_site_occupancy
  C   C1        1.0  0.00463  0.48357  0.29234  1.0000
  C   C2        1.0  0.00471  0.02493  0.29256  1.0000
  C   C3        1.0  0.00145  0.10733  0.32977  1.0000
  C   C4        1.0  0.00261  0.09301  0.24050  1.0000
  C   C5        1.0  0.00425  0.05224  0.22172  1.0000
  C   C6        1.0  0.00409  0.45646  0.22111  1.0000
  C   C7        1.0  0.00206  0.41567  0.23931  1.0000
  C   C8        1.0  0.00069  0.40115  0.32838  1.0000
  H   H1        1.0  0.11229  0.00235  0.03203  1.0000
  H   H2        1.0  0.04303  0.00459  0.06261  1.0000
  H   H3        1.0  0.46588  0.50445  0.06313  1.0000
  H   H4        1.0  0.39654  0.50146  0.03359  1.0000
  H   H5        1.0  0.00237  0.11228  0.18761  1.0000
  H   H6        1.0  0.00460  0.04302  0.15706  1.0000
  H   H7        1.0  0.00452  0.46586  0.15658  1.0000
  H   H8        1.0  0.00152  0.39653  0.18617  1.0000
  N   N1        1.0  0.47069  0.21204  0.30500  1.0000
  C   C9        1.0  0.47093  0.17212  0.29662  1.0000
  C   C10       1.0  0.99345  0.27545  0.35755  1.0000
  C   C11       1.0  0.96625  0.29600  0.30238  1.0000
  C   C12       1.0  0.46802  0.33745  0.29542  1.0000
  C   C13       1.0  0.49654  0.35958  0.34341  1.0000
  H   H9        1.0  0.44570  0.28123  0.26473  1.0000
  H   H10       1.0  0.44849  0.35134  0.25340  1.0000
  H   H11       1.0  0.45155  0.15947  0.25251  1.0000
  C   C14       1.0  0.00405  0.47001  0.38073  1.0000
  C   C15       1.0  0.00410  0.03825  0.38109  1.0000
  C   C16       1.0  0.00288  0.07928  0.40045  1.0000
  C   C17       1.0  0.00252  0.42894  0.39953  1.0000
  C   C18       1.0  0.03824  0.00413  0.50524  1.0000
  C   C19       1.0  0.02492  0.00471  0.59378  1.0000
  C   C20       1.0  0.48357  0.50463  0.59403  1.0000
  C   C21       1.0  0.46999  0.50409  0.50564  1.0000
  C   C22       1.0  0.45647  0.50404  0.66528  1.0000
  C   C23       1.0  0.41568  0.50202  0.64711  1.0000
  C   C24       1.0  0.40114  0.50068  0.55805  1.0000
  C   C25       1.0  0.42892  0.50250  0.48688  1.0000
  C   C26       1.0  0.07926  0.00293  0.48585  1.0000
  C   C27       1.0  0.10732  0.00144  0.55653  1.0000
  C   C28       1.0  0.09301  0.00260  0.64581  1.0000
  C   C29       1.0  0.05224  0.00424  0.66461  1.0000
  H   H12       1.0  0.41963  0.50107  0.42181  1.0000
  H   H13       1.0  0.08834  0.00159  0.42062  1.0000
  H   H14       1.0  0.00160  0.08836  0.46568  1.0000
  H   H15       1.0  0.00104  0.41966  0.46459  1.0000
  C   C30       1.0  0.00406  0.00408  0.44318  1.0000
  C   C31       1.0  0.99821  0.14894  0.34569  1.0000
  C   C32       1.0  0.02329  0.16941  0.40586  1.0000
  C   C33       1.0  0.02193  0.21111  0.41293  1.0000
  C   C34       1.0  0.99495  0.23311  0.36004  1.0000
  C   C35       1.0  0.02199  0.33811  0.40078  1.0000
  N   N2        1.0  0.01995  0.29786  0.40437  1.0000
  H   H16       1.0  0.04376  0.35218  0.43615  1.0000
  H   H17       1.0  0.04411  0.15426  0.44201  1.0000
  H   H18       1.0  0.04138  0.22510  0.45481  1.0000
  C   C36       1.0  0.35957  0.49654  0.54305  1.0000
  C   C37       1.0  0.33744  0.96801  0.59102  1.0000
  C   C38       1.0  0.29598  0.96627  0.58410  1.0000
  C   C39       1.0  0.27544  0.99346  0.52889  1.0000
  N   N3        1.0  0.29785  0.51995  0.48204  1.0000
  C   C40       1.0  0.33811  0.52200  0.48569  1.0000
  C   C41       1.0  0.23310  0.99493  0.52632  1.0000
  C   C42       1.0  0.21111  0.52192  0.47342  1.0000
  C   C43       1.0  0.16941  0.52327  0.48043  1.0000
  C   C44       1.0  0.14894  0.49819  0.54059  1.0000
  C   C45       1.0  0.17210  0.97090  0.58967  1.0000
  N   N4        1.0  0.21202  0.97067  0.58131  1.0000
  H   H19       1.0  0.15945  0.95151  0.63375  1.0000
  H   H20       1.0  0.22511  0.54137  0.43156  1.0000
  H   H21       1.0  0.15427  0.54410  0.44429  1.0000
  H   H22       1.0  0.35217  0.54373  0.45023  1.0000
  H   H23       1.0  0.35132  0.94847  0.63298  1.0000
  H   H24       1.0  0.28121  0.94567  0.62161  1.0000
  C   C46       1.0  0.00463  0.98357  0.29234  1.0000
  C   C47       1.0  0.00471  0.52493  0.29255  1.0000
  C   C48       1.0  0.00145  0.60733  0.32977  1.0000
  C   C49       1.0  0.00261  0.59301  0.24050  1.0000
  C   C50       1.0  0.00425  0.55224  0.22172  1.0000
  C   C51       1.0  0.00409  0.95646  0.22111  1.0000
  C   C52       1.0  0.00206  0.91567  0.23931  1.0000
  C   C53       1.0  0.00069  0.90115  0.32838  1.0000
  H   H25       1.0  0.11229  0.50235  0.03203  1.0000
  H   H26       1.0  0.04303  0.50459  0.06261  1.0000
  H   H27       1.0  0.46588  0.00445  0.06313  1.0000
  H   H28       1.0  0.39654  0.00146  0.03359  1.0000
  H   H29       1.0  0.00237  0.61229  0.18761  1.0000
  H   H30       1.0  0.00460  0.54302  0.15706  1.0000
  H   H31       1.0  0.00452  0.96585  0.15658  1.0000
  H   H32       1.0  0.00152  0.89652  0.18617  1.0000
  N   N5        1.0  0.47069  0.71204  0.30500  1.0000
  C   C54       1.0  0.47093  0.67212  0.29662  1.0000
  C   C55       1.0  0.99345  0.77545  0.35755  1.0000
  C   C56       1.0  0.96625  0.79600  0.30238  1.0000
  C   C57       1.0  0.46802  0.83745  0.29542  1.0000
  C   C58       1.0  0.49654  0.85958  0.34341  1.0000
  H   H33       1.0  0.44570  0.78123  0.26473  1.0000
  H   H34       1.0  0.44849  0.85134  0.25341  1.0000
  H   H35       1.0  0.45155  0.65947  0.25250  1.0000
  C   C59       1.0  0.00405  0.97001  0.38073  1.0000
  C   C60       1.0  0.00410  0.53825  0.38109  1.0000
  C   C61       1.0  0.00288  0.57928  0.40045  1.0000
  C   C62       1.0  0.00252  0.92894  0.39953  1.0000
  C   C63       1.0  0.03824  0.50413  0.50524  1.0000
  C   C64       1.0  0.02492  0.50471  0.59378  1.0000
  C   C65       1.0  0.48357  0.00463  0.59403  1.0000
  C   C66       1.0  0.46999  0.00409  0.50564  1.0000
  C   C67       1.0  0.45647  0.00404  0.66528  1.0000
  C   C68       1.0  0.41568  0.00202  0.64711  1.0000
  C   C69       1.0  0.40114  0.00068  0.55805  1.0000
  C   C70       1.0  0.42892  0.00250  0.48688  1.0000
  C   C71       1.0  0.07926  0.50293  0.48585  1.0000
  C   C72       1.0  0.10732  0.50144  0.55653  1.0000
  C   C73       1.0  0.09301  0.50260  0.64581  1.0000
  C   C74       1.0  0.05224  0.50424  0.66460  1.0000
  H   H36       1.0  0.41963  0.00107  0.42181  1.0000
  H   H37       1.0  0.08834  0.50159  0.42062  1.0000
  H   H38       1.0  0.00160  0.58836  0.46568  1.0000
  H   H39       1.0  0.00104  0.91966  0.46459  1.0000
  C   C75       1.0  0.00406  0.50408  0.44318  1.0000
  C   C76       1.0  0.99821  0.64894  0.34569  1.0000
  C   C77       1.0  0.02329  0.66941  0.40586  1.0000
  C   C78       1.0  0.02193  0.71111  0.41293  1.0000
  C   C79       1.0  0.99495  0.73311  0.36004  1.0000
  C   C80       1.0  0.02199  0.83811  0.40078  1.0000
  N   N6        1.0  0.01995  0.79786  0.40437  1.0000
  H   H40       1.0  0.04376  0.85218  0.43615  1.0000
  H   H41       1.0  0.04411  0.65426  0.44201  1.0000
  H   H42       1.0  0.04138  0.72510  0.45481  1.0000
  C   C81       1.0  0.35957  0.99654  0.54306  1.0000
  C   C82       1.0  0.33744  0.46801  0.59102  1.0000
  C   C83       1.0  0.29598  0.46627  0.58410  1.0000
  C   C84       1.0  0.27544  0.49346  0.52888  1.0000
  N   N7        1.0  0.29785  0.01994  0.48205  1.0000
  C   C85       1.0  0.33811  0.02200  0.48569  1.0000
  C   C86       1.0  0.23310  0.49493  0.52632  1.0000
  C   C87       1.0  0.21111  0.02192  0.47342  1.0000
  C   C88       1.0  0.16941  0.02327  0.48043  1.0000
  C   C89       1.0  0.14893  0.99819  0.54060  1.0000
  C   C90       1.0  0.17210  0.47091  0.58967  1.0000
  N   N8        1.0  0.21202  0.47067  0.58131  1.0000
  H   H43       1.0  0.15945  0.45151  0.63374  1.0000
  H   H44       1.0  0.22511  0.04137  0.43156  1.0000
  H   H45       1.0  0.15427  0.04410  0.44429  1.0000
  H   H46       1.0  0.35217  0.04373  0.45023  1.0000
  H   H47       1.0  0.35132  0.44847  0.63298  1.0000
  H   H48       1.0  0.28121  0.44567  0.62161  1.0000
  C   C91       1.0  0.50463  0.48357  0.29234  1.0000
  C   C92       1.0  0.50471  0.02493  0.29256  1.0000
  C   C93       1.0  0.50145  0.10733  0.32977  1.0000
  C   C94       1.0  0.50261  0.09301  0.24050  1.0000
  C   C95       1.0  0.50425  0.05224  0.22172  1.0000
  C   C96       1.0  0.50409  0.45646  0.22111  1.0000
  C   C97       1.0  0.50206  0.41567  0.23931  1.0000
  C   C98       1.0  0.50069  0.40115  0.32838  1.0000
  H   H49       1.0  0.61229  0.00235  0.03203  1.0000
  H   H50       1.0  0.54303  0.00459  0.06261  1.0000
  H   H51       1.0  0.96588  0.50445  0.06313  1.0000
  H   H52       1.0  0.89654  0.50146  0.03359  1.0000
  H   H53       1.0  0.50237  0.11228  0.18761  1.0000
  H   H54       1.0  0.50460  0.04302  0.15706  1.0000
  H   H55       1.0  0.50452  0.46586  0.15658  1.0000
  H   H56       1.0  0.50152  0.39653  0.18617  1.0000
  N   N9        1.0  0.97069  0.21204  0.30500  1.0000
  C   C99       1.0  0.97093  0.17212  0.29662  1.0000
  C   C100      1.0  0.49345  0.27545  0.35755  1.0000
  C   C101      1.0  0.46625  0.29600  0.30238  1.0000
  C   C102      1.0  0.96801  0.33745  0.29542  1.0000
  C   C103      1.0  0.99654  0.35958  0.34341  1.0000
  H   H57       1.0  0.94570  0.28123  0.26473  1.0000
  H   H58       1.0  0.94849  0.35134  0.25340  1.0000
  H   H59       1.0  0.95155  0.15947  0.25251  1.0000
  C   C104      1.0  0.50405  0.47001  0.38073  1.0000
  C   C105      1.0  0.50410  0.03825  0.38109  1.0000
  C   C106      1.0  0.50288  0.07928  0.40045  1.0000
  C   C107      1.0  0.50252  0.42894  0.39953  1.0000
  C   C108      1.0  0.53824  0.00413  0.50524  1.0000
  C   C109      1.0  0.52492  0.00471  0.59378  1.0000
  C   C110      1.0  0.98357  0.50463  0.59403  1.0000
  C   C111      1.0  0.97000  0.50409  0.50564  1.0000
  C   C112      1.0  0.95647  0.50404  0.66528  1.0000
  C   C113      1.0  0.91568  0.50202  0.64711  1.0000
  C   C114      1.0  0.90114  0.50068  0.55805  1.0000
  C   C115      1.0  0.92892  0.50250  0.48688  1.0000
  C   C116      1.0  0.57926  0.00293  0.48585  1.0000
  C   C117      1.0  0.60732  0.00144  0.55653  1.0000
  C   C118      1.0  0.59301  0.00260  0.64581  1.0000
  C   C119      1.0  0.55224  0.00424  0.66461  1.0000
  H   H60       1.0  0.91963  0.50107  0.42181  1.0000
  H   H61       1.0  0.58834  0.00159  0.42062  1.0000
  H   H62       1.0  0.50160  0.08836  0.46568  1.0000
  H   H63       1.0  0.50104  0.41966  0.46459  1.0000
  C   C120      1.0  0.50406  0.00408  0.44318  1.0000
  C   C121      1.0  0.49821  0.14894  0.34569  1.0000
  C   C122      1.0  0.52329  0.16941  0.40586  1.0000
  C   C123      1.0  0.52193  0.21111  0.41293  1.0000
  C   C124      1.0  0.49495  0.23311  0.36004  1.0000
  C   C125      1.0  0.52199  0.33811  0.40078  1.0000
  N   N10       1.0  0.51995  0.29786  0.40437  1.0000
  H   H64       1.0  0.54376  0.35218  0.43615  1.0000
  H   H65       1.0  0.54411  0.15426  0.44201  1.0000
  H   H66       1.0  0.54138  0.22510  0.45481  1.0000
  C   C126      1.0  0.85957  0.49654  0.54305  1.0000
  C   C127      1.0  0.83744  0.96801  0.59102  1.0000
  C   C128      1.0  0.79598  0.96627  0.58410  1.0000
  C   C129      1.0  0.77544  0.99346  0.52889  1.0000
  N   N11       1.0  0.79785  0.51995  0.48204  1.0000
  C   C130      1.0  0.83811  0.52200  0.48569  1.0000
  C   C131      1.0  0.73310  0.99493  0.52632  1.0000
  C   C132      1.0  0.71111  0.52192  0.47342  1.0000
  C   C133      1.0  0.66941  0.52327  0.48043  1.0000
  C   C134      1.0  0.64894  0.49819  0.54059  1.0000
  C   C135      1.0  0.67210  0.97090  0.58967  1.0000
  N   N12       1.0  0.71202  0.97067  0.58131  1.0000
  H   H67       1.0  0.65945  0.95151  0.63375  1.0000
  H   H68       1.0  0.72511  0.54137  0.43156  1.0000
  H   H69       1.0  0.65427  0.54410  0.44429  1.0000
  H   H70       1.0  0.85217  0.54373  0.45023  1.0000
  H   H71       1.0  0.85132  0.94847  0.63298  1.0000
  H   H72       1.0  0.78121  0.94567  0.62161  1.0000
  C   C136      1.0  0.50463  0.98357  0.29234  1.0000
  C   C137      1.0  0.50471  0.52493  0.29255  1.0000
  C   C138      1.0  0.50145  0.60733  0.32977  1.0000
  C   C139      1.0  0.50261  0.59301  0.24050  1.0000
  C   C140      1.0  0.50425  0.55224  0.22172  1.0000
  C   C141      1.0  0.50409  0.95646  0.22111  1.0000
  C   C142      1.0  0.50206  0.91567  0.23931  1.0000
  C   C143      1.0  0.50069  0.90115  0.32838  1.0000
  H   H73       1.0  0.61229  0.50235  0.03203  1.0000
  H   H74       1.0  0.54303  0.50459  0.06261  1.0000
  H   H75       1.0  0.96588  0.00445  0.06313  1.0000
  H   H76       1.0  0.89654  0.00146  0.03359  1.0000
  H   H77       1.0  0.50237  0.61229  0.18761  1.0000
  H   H78       1.0  0.50460  0.54302  0.15706  1.0000
  H   H79       1.0  0.50452  0.96585  0.15658  1.0000
  H   H80       1.0  0.50152  0.89652  0.18617  1.0000
  N   N13       1.0  0.97069  0.71204  0.30500  1.0000
  C   C144      1.0  0.97093  0.67212  0.29662  1.0000
  C   C145      1.0  0.49345  0.77545  0.35755  1.0000
  C   C146      1.0  0.46625  0.79600  0.30238  1.0000
  C   C147      1.0  0.96801  0.83745  0.29542  1.0000
  C   C148      1.0  0.99654  0.85958  0.34341  1.0000
  H   H81       1.0  0.94570  0.78123  0.26473  1.0000
  H   H82       1.0  0.94849  0.85134  0.25341  1.0000
  H   H83       1.0  0.95155  0.65947  0.25250  1.0000
  C   C149      1.0  0.50405  0.97001  0.38073  1.0000
  C   C150      1.0  0.50410  0.53825  0.38109  1.0000
  C   C151      1.0  0.50288  0.57928  0.40045  1.0000
  C   C152      1.0  0.50252  0.92894  0.39953  1.0000
  C   C153      1.0  0.53824  0.50413  0.50524  1.0000
  C   C154      1.0  0.52492  0.50471  0.59378  1.0000
  C   C155      1.0  0.98357  0.00463  0.59403  1.0000
  C   C156      1.0  0.97000  0.00409  0.50564  1.0000
  C   C157      1.0  0.95647  0.00404  0.66528  1.0000
  C   C158      1.0  0.91568  0.00202  0.64711  1.0000
  C   C159      1.0  0.90114  0.00068  0.55805  1.0000
  C   C160      1.0  0.92892  0.00250  0.48688  1.0000
  C   C161      1.0  0.57927  0.50293  0.48585  1.0000
  C   C162      1.0  0.60732  0.50144  0.55653  1.0000
  C   C163      1.0  0.59301  0.50260  0.64581  1.0000
  C   C164      1.0  0.55224  0.50424  0.66460  1.0000
  H   H84       1.0  0.91963  0.00107  0.42181  1.0000
  H   H85       1.0  0.58834  0.50159  0.42062  1.0000
  H   H86       1.0  0.50160  0.58836  0.46568  1.0000
  H   H87       1.0  0.50104  0.91966  0.46459  1.0000
  C   C165      1.0  0.50406  0.50408  0.44318  1.0000
  C   C166      1.0  0.49821  0.64894  0.34569  1.0000
  C   C167      1.0  0.52329  0.66941  0.40586  1.0000
  C   C168      1.0  0.52193  0.71111  0.41293  1.0000
  C   C169      1.0  0.49495  0.73311  0.36004  1.0000
  C   C170      1.0  0.52199  0.83811  0.40078  1.0000
  N   N14       1.0  0.51994  0.79786  0.40437  1.0000
  H   H88       1.0  0.54376  0.85218  0.43615  1.0000
  H   H89       1.0  0.54411  0.65426  0.44201  1.0000
  H   H90       1.0  0.54138  0.72510  0.45481  1.0000
  C   C171      1.0  0.85957  0.99654  0.54306  1.0000
  C   C172      1.0  0.83744  0.46801  0.59102  1.0000
  C   C173      1.0  0.79598  0.46627  0.58410  1.0000
  C   C174      1.0  0.77544  0.49346  0.52888  1.0000
  N   N15       1.0  0.79785  0.01994  0.48205  1.0000
  C   C175      1.0  0.83811  0.02200  0.48569  1.0000
  C   C176      1.0  0.73310  0.49493  0.52632  1.0000
  C   C177      1.0  0.71111  0.02192  0.47342  1.0000
  C   C178      1.0  0.66941  0.02327  0.48043  1.0000
  C   C179      1.0  0.64894  0.99819  0.54060  1.0000
  C   C180      1.0  0.67210  0.47091  0.58967  1.0000
  N   N16       1.0  0.71202  0.47067  0.58131  1.0000
  H   H91       1.0  0.65945  0.45151  0.63374  1.0000
  H   H92       1.0  0.72511  0.04137  0.43156  1.0000
  H   H93       1.0  0.65427  0.04410  0.44429  1.0000
  H   H94       1.0  0.85217  0.04373  0.45023  1.0000
  H   H95       1.0  0.85132  0.44847  0.63298  1.0000
  H   H96       1.0  0.78121  0.44567  0.62161  1.0000
