data_image0
_chemical_formula_structural       C8HC7HCH4C4O3CN3HCN3HCN3HCN3HCN3HCN3HOC8HC7HCH4C4O4C8HC7HCH4C4O4C3HCH3NHC3HCH3NHC3HCH3NHC3HCH3NHC3HCH3NHC3HCH3NH
_chemical_formula_sum              "C90 H54 O12 N24"
_cell_length_a       29.8509
_cell_length_b       29.8509
_cell_length_c       15.1645
_cell_angle_alpha    89.9992
_cell_angle_beta     90.0008
_cell_angle_gamma    120

_space_group_name_H-M_alt    "P 1"
_space_group_IT_number       1

loop_
  _space_group_symop_operation_xyz
  'x, y, z'

loop_
  _atom_site_type_symbol
  _atom_site_label
  _atom_site_symmetry_multiplicity
  _atom_site_fract_x
  _atom_site_fract_y
  _atom_site_fract_z
  _atom_site_occupancy
  C   C1        1.0  0.02182  0.52977  0.31321  1.0000
  C   C2        1.0  0.97472  0.48112  0.31512  1.0000
  C   C3        1.0  0.97635  0.43429  0.32102  1.0000
  C   C4        1.0  0.02449  0.43667  0.31463  1.0000
  C   C5        1.0  0.07126  0.48384  0.30871  1.0000
  C   C6        1.0  0.07017  0.53086  0.31287  1.0000
  C   C7        1.0  0.92768  0.48167  0.31718  1.0000
  C   C8        1.0  0.11607  0.57940  0.31212  1.0000
  H   H1        1.0  0.02566  0.40290  0.31603  1.0000
  C   C9        1.0  0.02075  0.57730  0.31316  1.0000
  C   C10       1.0  0.97240  0.57621  0.31274  1.0000
  C   C11       1.0  0.97132  0.62323  0.30852  1.0000
  C   C12       1.0  0.01808  0.67040  0.31440  1.0000
  C   C13       1.0  0.06622  0.67277  0.32091  1.0000
  C   C14       1.0  0.06785  0.62594  0.31509  1.0000
  C   C15       1.0  0.92650  0.52766  0.31190  1.0000
  H   H2        1.0  0.01693  0.70418  0.31573  1.0000
  C   C16       1.0  0.11489  0.62539  0.31728  1.0000
  H   H3        1.0  0.89088  0.52445  0.30945  1.0000
  H   H4        1.0  0.89278  0.44867  0.32155  1.0000
  H   H5        1.0  0.14979  0.65839  0.32167  1.0000
  H   H6        1.0  0.15170  0.58262  0.30966  1.0000
  C   C17       1.0  0.11707  0.48157  0.29909  1.0000
  C   C18       1.0  0.93283  0.38565  0.34038  1.0000
  C   C19       1.0  0.92555  0.62553  0.29883  1.0000
  C   C20       1.0  0.10972  0.72145  0.34017  1.0000
  O   O1        1.0  0.11492  0.44330  0.24748  1.0000
  O   O2        1.0  0.93995  0.35210  0.39096  1.0000
  O   O3        1.0  0.10263  0.75490  0.39106  1.0000
  C   C21       1.0  0.29145  0.50166  0.31649  1.0000
  N   N1        1.0  0.21970  0.50582  0.26879  1.0000
  N   N2        1.0  0.26202  0.50508  0.25189  1.0000
  N   N3        1.0  0.33328  0.49811  0.29246  1.0000
  H   H7        1.0  0.34709  0.50961  0.23315  1.0000
  C   C22       1.0  0.57276  0.87515  0.31655  1.0000
  N   N4        1.0  0.56866  0.79928  0.26882  1.0000
  N   N5        1.0  0.56936  0.84232  0.25194  1.0000
  N   N6        1.0  0.57632  0.92054  0.29255  1.0000
  H   H8        1.0  0.56490  0.92292  0.23322  1.0000
  C   C23       1.0  0.19935  0.78327  0.31639  1.0000
  N   N7        1.0  0.27517  0.85514  0.26876  1.0000
  N   N8        1.0  0.23214  0.81279  0.25181  1.0000
  N   N9        1.0  0.15399  0.74142  0.29233  1.0000
  H   H9        1.0  0.15165  0.72766  0.23298  1.0000
  C   C24       1.0  0.75091  0.60500  0.31640  1.0000
  N   N10       1.0  0.82281  0.60115  0.26863  1.0000
  N   N11       1.0  0.78042  0.60177  0.25176  1.0000
  N   N12       1.0  0.70903  0.60848  0.29244  1.0000
  H   H10       1.0  0.69527  0.59711  0.23307  1.0000
  C   C25       1.0  0.46992  0.23160  0.31643  1.0000
  N   N13       1.0  0.47370  0.30733  0.26872  1.0000
  N   N14       1.0  0.47314  0.26435  0.25182  1.0000
  N   N15       1.0  0.46652  0.18627  0.29245  1.0000
  H   H11       1.0  0.47788  0.18391  0.23306  1.0000
  C   C26       1.0  0.84325  0.32367  0.31648  1.0000
  N   N16       1.0  0.76750  0.25173  0.26880  1.0000
  N   N17       1.0  0.81050  0.29412  0.25188  1.0000
  N   N18       1.0  0.88858  0.36558  0.29246  1.0000
  H   H12       1.0  0.89090  0.37930  0.23308  1.0000
  O   O4        1.0  0.92752  0.66387  0.24764  1.0000
  C   C27       1.0  0.54491  0.57759  0.31336  1.0000
  C   C28       1.0  0.59357  0.57914  0.31521  1.0000
  C   C29       1.0  0.64039  0.62759  0.32108  1.0000
  C   C30       1.0  0.63801  0.67336  0.31469  1.0000
  C   C31       1.0  0.59084  0.67295  0.30881  1.0000
  C   C32       1.0  0.54382  0.62485  0.31301  1.0000
  C   C33       1.0  0.59301  0.53155  0.31738  1.0000
  C   C34       1.0  0.49527  0.62220  0.31219  1.0000
  H   H13       1.0  0.67179  0.70830  0.31599  1.0000
  C   C35       1.0  0.49738  0.52899  0.31332  1.0000
  C   C36       1.0  0.49847  0.48173  0.31291  1.0000
  C   C37       1.0  0.45146  0.43363  0.30870  1.0000
  C   C38       1.0  0.40429  0.43322  0.31458  1.0000
  C   C39       1.0  0.40190  0.47898  0.32100  1.0000
  C   C40       1.0  0.44873  0.52744  0.31521  1.0000
  C   C41       1.0  0.54702  0.48438  0.31214  1.0000
  H   H14       1.0  0.37051  0.39828  0.31587  1.0000
  C   C42       1.0  0.44928  0.57502  0.31741  1.0000
  H   H15       1.0  0.55024  0.45197  0.30960  1.0000
  H   H16       1.0  0.62601  0.52964  0.32171  1.0000
  H   H17       1.0  0.41629  0.57694  0.32174  1.0000
  H   H18       1.0  0.49206  0.65461  0.30967  1.0000
  C   C43       1.0  0.59317  0.72105  0.29912  1.0000
  C   C44       1.0  0.68907  0.63279  0.34032  1.0000
  C   C45       1.0  0.44916  0.38555  0.29909  1.0000
  C   C46       1.0  0.35320  0.47372  0.34025  1.0000
  O   O5        1.0  0.63141  0.75732  0.24768  1.0000
  O   O6        1.0  0.72276  0.67344  0.39076  1.0000
  O   O7        1.0  0.41081  0.34915  0.24795  1.0000
  O   O8        1.0  0.31965  0.43320  0.39104  1.0000
  C   C47       1.0  0.49712  0.05290  0.31336  1.0000
  C   C48       1.0  0.49563  0.10004  0.31521  1.0000
  C   C49       1.0  0.44720  0.09846  0.32106  1.0000
  C   C50       1.0  0.40140  0.05034  0.31461  1.0000
  C   C51       1.0  0.40175  0.00355  0.30875  1.0000
  C   C52       1.0  0.44983  0.00458  0.31303  1.0000
  C   C53       1.0  0.54325  0.14704  0.31740  1.0000
  C   C54       1.0  0.45241  0.95865  0.31235  1.0000
  H   H19       1.0  0.36648  0.04922  0.31591  1.0000
  C   C55       1.0  0.54568  0.05391  0.31339  1.0000
  C   C56       1.0  0.59298  0.10223  0.31301  1.0000
  C   C57       1.0  0.64106  0.10325  0.30883  1.0000
  C   C58       1.0  0.64140  0.05646  0.31474  1.0000
  C   C59       1.0  0.59561  0.00835  0.32120  1.0000
  C   C60       1.0  0.54718  0.00678  0.31533  1.0000
  C   C61       1.0  0.59040  0.14816  0.31216  1.0000
  H   H20       1.0  0.67632  0.05758  0.31603  1.0000
  C   C62       1.0  0.49955  0.95977  0.31764  1.0000
  H   H21       1.0  0.62283  0.18376  0.30972  1.0000
  H   H22       1.0  0.54521  0.18196  0.32179  1.0000
  H   H23       1.0  0.49759  0.92485  0.32210  1.0000
  H   H24       1.0  0.41997  0.92304  0.31001  1.0000
  C   C63       1.0  0.35367  0.95778  0.29910  1.0000
  C   C64       1.0  0.44200  0.14196  0.34017  1.0000
  C   C65       1.0  0.68917  0.14900  0.29920  1.0000
  C   C66       1.0  0.60076  0.96483  0.34035  1.0000
  O   O9        1.0  0.31737  0.95990  0.24793  1.0000
  O   O10       1.0  0.40152  0.13499  0.39108  1.0000
  O   O11       1.0  0.72553  0.14698  0.24808  1.0000
  O   O12       1.0  0.64143  0.97174  0.39067  1.0000
  C   C67       1.0  0.27672  0.50251  0.40485  1.0000
  C   C68       1.0  0.23236  0.50617  0.42395  1.0000
  C   C69       1.0  0.20163  0.50499  0.35157  1.0000
  H   H25       1.0  0.29954  0.50261  0.45523  1.0000
  C   C70       1.0  0.21704  0.50675  0.51700  1.0000
  H   H26       1.0  0.24415  0.50561  0.56405  1.0000
  H   H27       1.0  0.17896  0.47323  0.52943  1.0000
  H   H28       1.0  0.21552  0.54197  0.52943  1.0000
  N   N19       1.0  0.15577  0.50386  0.35965  1.0000
  H   H29       1.0  0.14800  0.51506  0.41509  1.0000
  C   C71       1.0  0.57189  0.85955  0.40490  1.0000
  C   C72       1.0  0.56834  0.81158  0.42400  1.0000
  C   C73       1.0  0.56953  0.78204  0.35159  1.0000
  H   H30       1.0  0.57189  0.88232  0.45529  1.0000
  C   C74       1.0  0.56786  0.79572  0.51703  1.0000
  H   H31       1.0  0.56898  0.82395  0.56409  1.0000
  H   H32       1.0  0.60143  0.79122  0.52938  1.0000
  H   H33       1.0  0.53268  0.75895  0.52954  1.0000
  N   N20       1.0  0.57077  0.73737  0.35965  1.0000
  H   H34       1.0  0.55954  0.71839  0.41509  1.0000
  C   C75       1.0  0.21495  0.79792  0.40477  1.0000
  C   C76       1.0  0.26290  0.84234  0.42392  1.0000
  C   C77       1.0  0.29242  0.87316  0.35156  1.0000
  H   H35       1.0  0.19222  0.77509  0.45511  1.0000
  C   C78       1.0  0.27878  0.85763  0.51698  1.0000
  H   H36       1.0  0.25057  0.83047  0.56400  1.0000
  H   H37       1.0  0.28326  0.89567  0.52948  1.0000
  H   H38       1.0  0.31556  0.85923  0.52939  1.0000
  N   N21       1.0  0.33706  0.91909  0.35973  1.0000
  H   H39       1.0  0.35611  0.92672  0.41509  1.0000
  C   C79       1.0  0.76561  0.60406  0.40475  1.0000
  C   C80       1.0  0.81009  0.60060  0.42380  1.0000
  C   C81       1.0  0.84088  0.60194  0.35138  1.0000
  H   H40       1.0  0.74279  0.60393  0.45515  1.0000
  C   C82       1.0  0.82542  0.60001  0.51682  1.0000
  H   H41       1.0  0.79826  0.60102  0.56391  1.0000
  H   H42       1.0  0.86346  0.63359  0.52931  1.0000
  H   H43       1.0  0.82708  0.56485  0.52917  1.0000
  N   N22       1.0  0.88686  0.60331  0.35946  1.0000
  H   H44       1.0  0.89453  0.59189  0.41478  1.0000
  C   C83       1.0  0.47083  0.24720  0.40480  1.0000
  C   C84       1.0  0.47424  0.29510  0.42389  1.0000
  C   C85       1.0  0.47287  0.32456  0.35151  1.0000
  H   H45       1.0  0.47104  0.22453  0.45516  1.0000
  C   C86       1.0  0.47482  0.31100  0.51694  1.0000
  H   H46       1.0  0.47385  0.28284  0.56399  1.0000
  H   H47       1.0  0.44122  0.31541  0.52945  1.0000
  H   H48       1.0  0.50996  0.34783  0.52929  1.0000
  N   N23       1.0  0.47150  0.36916  0.35963  1.0000
  H   H49       1.0  0.48280  0.38820  0.41500  1.0000
  C   C87       1.0  0.82764  0.30898  0.40485  1.0000
  C   C88       1.0  0.77971  0.26453  0.42396  1.0000
  C   C89       1.0  0.75025  0.23369  0.35159  1.0000
  H   H50       1.0  0.85033  0.33186  0.45521  1.0000
  C   C90       1.0  0.76383  0.24922  0.51701  1.0000
  H   H51       1.0  0.79201  0.27641  0.56405  1.0000
  H   H52       1.0  0.75939  0.21120  0.52953  1.0000
  H   H53       1.0  0.72701  0.24757  0.52939  1.0000
  N   N24       1.0  0.70561  0.18775  0.35972  1.0000
  H   H54       1.0  0.68657  0.18004  0.41509  1.0000
