data_image0
_chemical_formula_structural       C3H2NC3H2NCHCNCNCNC3H3CN2CNC2H2C3NC2NH2NC3NC2NHNC3NHNC3H2NC3H2NCHCNCNCNC3H3CN2CNC2H2C3NC2NH2NC3NC2NHNC3NHNH2C2HNC2HCNCHC2HNC2HCNCHC5HC2H2CNHNCHC2H2CNHNC3H2NC3H2NC2HNCN2CNC2H2CNCNCNC3H3C3NC2NHNC3NC2NH2NCNCHC3H2NC3H2NC2HNCN2CNC2H2CNCNCNC3H3C3NC2NHNC3NC2NH2NCNCH
_chemical_formula_sum              "C144 H72 N72"
_cell_length_a       45.3302
_cell_length_b       45.3302
_cell_length_c       14.5905
_cell_angle_alpha    90
_cell_angle_beta     90
_cell_angle_gamma    120

_space_group_name_H-M_alt    "P 1"
_space_group_IT_number       1

loop_
  _space_group_symop_operation_xyz
  'x, y, z'

loop_
  _atom_site_type_symbol
  _atom_site_label
  _atom_site_symmetry_multiplicity
  _atom_site_fract_x
  _atom_site_fract_y
  _atom_site_fract_z
  _atom_site_occupancy
  C   C1        1.0  0.28687  0.24323  0.40713  1.0000
  C   C2        1.0  0.30339  0.27922  0.40495  1.0000
  C   C3        1.0  0.28505  0.29687  0.40505  1.0000
  H   H1        1.0  0.29843  0.32288  0.40320  1.0000
  H   H2        1.0  0.32945  0.29316  0.40303  1.0000
  N   N1        1.0  0.30752  0.22919  0.40652  1.0000
  C   C4        1.0  0.29185  0.05065  0.40713  1.0000
  C   C5        1.0  0.25586  0.03119  0.40494  1.0000
  C   C6        1.0  0.23821  0.49520  0.40504  1.0000
  H   H3        1.0  0.21220  0.48257  0.40319  1.0000
  H   H4        1.0  0.24192  0.04330  0.40301  1.0000
  N   N2        1.0  0.30589  0.08535  0.40652  1.0000
  C   C7        1.0  0.03988  0.25003  0.40504  1.0000
  H   H5        1.0  0.05251  0.23665  0.40319  1.0000
  C   C8        1.0  0.19779  0.38155  0.40650  1.0000
  N   N3        1.0  0.16412  0.35720  0.40649  1.0000
  C   C9        1.0  0.15353  0.32326  0.40650  1.0000
  N   N4        1.0  0.17788  0.31393  0.40649  1.0000
  C   C10       1.0  0.21182  0.33729  0.40650  1.0000
  N   N5        1.0  0.22115  0.37096  0.40650  1.0000
  C   C11       1.0  0.23706  0.32775  0.40639  1.0000
  C   C12       1.0  0.20733  0.41632  0.40640  1.0000
  C   C13       1.0  0.11876  0.29802  0.40639  1.0000
  H   H6        1.0  0.11273  0.27307  0.40587  1.0000
  H   H7        1.0  0.18840  0.42235  0.40587  1.0000
  H   H8        1.0  0.26201  0.34668  0.40588  1.0000
  C   C14       1.0  0.34579  0.14692  0.40672  1.0000
  N   N6        1.0  0.37907  0.17233  0.40674  1.0000
  N   N7        1.0  0.36275  0.21375  0.40674  1.0000
  C   C15       1.0  0.32919  0.18929  0.40671  1.0000
  N   N8        1.0  0.32133  0.15602  0.40673  1.0000
  C   C16       1.0  0.30270  0.19705  0.40700  1.0000
  C   C17       1.0  0.33803  0.11267  0.40700  1.0000
  H   H9        1.0  0.35818  0.10858  0.40729  1.0000
  H   H10       1.0  0.27846  0.17690  0.40728  1.0000
  C   C18       1.0  0.24903  0.27929  0.40739  1.0000
  C   C19       1.0  0.23214  0.24326  0.40989  1.0000
  C   C20       1.0  0.25067  0.22537  0.40982  1.0000
  N   N9        1.0  0.23220  0.19078  0.41285  1.0000
  C   C21       1.0  0.19772  0.17256  0.41576  1.0000
  C   C22       1.0  0.17967  0.19023  0.41571  1.0000
  N   N10       1.0  0.19748  0.22473  0.41282  1.0000
  H   H11       1.0  0.18532  0.14657  0.41796  1.0000
  H   H12       1.0  0.15367  0.17752  0.41788  1.0000
  N   N11       1.0  0.22979  0.29482  0.40748  1.0000
  C   C23       1.0  0.25579  0.47676  0.40740  1.0000
  C   C24       1.0  0.29182  0.49589  0.40991  1.0000
  C   C25       1.0  0.30971  0.03231  0.40984  1.0000
  N   N12       1.0  0.34430  0.04845  0.41288  1.0000
  C   C26       1.0  0.36252  0.03218  0.41582  1.0000
  C   C27       1.0  0.34485  0.49645  0.41576  1.0000
  N   N13       1.0  0.31035  0.47977  0.41286  1.0000
  H   H13       1.0  0.35756  0.48317  0.41794  1.0000
  N   N14       1.0  0.24026  0.44199  0.40750  1.0000
  C   C28       1.0  0.05833  0.28606  0.40739  1.0000
  C   C29       1.0  0.03919  0.30294  0.40990  1.0000
  C   C30       1.0  0.03863  0.35541  0.41573  1.0000
  N   N15       1.0  0.05532  0.33760  0.41284  1.0000
  H   H14       1.0  0.05192  0.38141  0.41791  1.0000
  N   N16       1.0  0.09309  0.30529  0.40748  1.0000
  C   C31       1.0  0.28687  0.74323  0.40713  1.0000
  C   C32       1.0  0.30339  0.77922  0.40495  1.0000
  C   C33       1.0  0.28505  0.79687  0.40505  1.0000
  H   H15       1.0  0.29843  0.82288  0.40320  1.0000
  H   H16       1.0  0.32945  0.79316  0.40303  1.0000
  N   N17       1.0  0.30752  0.72919  0.40652  1.0000
  C   C34       1.0  0.29185  0.55065  0.40713  1.0000
  C   C35       1.0  0.25586  0.53119  0.40494  1.0000
  C   C36       1.0  0.23821  0.99520  0.40504  1.0000
  H   H17       1.0  0.21220  0.98257  0.40319  1.0000
  H   H18       1.0  0.24192  0.54330  0.40301  1.0000
  N   N18       1.0  0.30589  0.58535  0.40652  1.0000
  C   C37       1.0  0.03988  0.75003  0.40504  1.0000
  H   H19       1.0  0.05252  0.73665  0.40319  1.0000
  C   C38       1.0  0.19779  0.88155  0.40650  1.0000
  N   N19       1.0  0.16412  0.85720  0.40649  1.0000
  C   C39       1.0  0.15353  0.82326  0.40650  1.0000
  N   N20       1.0  0.17788  0.81393  0.40649  1.0000
  C   C40       1.0  0.21183  0.83729  0.40650  1.0000
  N   N21       1.0  0.22115  0.87096  0.40650  1.0000
  C   C41       1.0  0.23706  0.82776  0.40639  1.0000
  C   C42       1.0  0.20732  0.91632  0.40640  1.0000
  C   C43       1.0  0.11876  0.79802  0.40639  1.0000
  H   H20       1.0  0.11273  0.77307  0.40587  1.0000
  H   H21       1.0  0.18840  0.92235  0.40587  1.0000
  H   H22       1.0  0.26201  0.84668  0.40588  1.0000
  C   C44       1.0  0.34579  0.64692  0.40672  1.0000
  N   N22       1.0  0.37906  0.67233  0.40674  1.0000
  N   N23       1.0  0.36275  0.71375  0.40674  1.0000
  C   C45       1.0  0.32919  0.68929  0.40671  1.0000
  N   N24       1.0  0.32133  0.65602  0.40673  1.0000
  C   C46       1.0  0.30270  0.69705  0.40700  1.0000
  C   C47       1.0  0.33803  0.61267  0.40700  1.0000
  H   H23       1.0  0.35818  0.60858  0.40729  1.0000
  H   H24       1.0  0.27846  0.67690  0.40728  1.0000
  C   C48       1.0  0.24902  0.77929  0.40739  1.0000
  C   C49       1.0  0.23214  0.74326  0.40989  1.0000
  C   C50       1.0  0.25067  0.72537  0.40982  1.0000
  N   N25       1.0  0.23220  0.69078  0.41285  1.0000
  C   C51       1.0  0.19772  0.67256  0.41576  1.0000
  C   C52       1.0  0.17967  0.69023  0.41571  1.0000
  N   N26       1.0  0.19748  0.72473  0.41282  1.0000
  H   H25       1.0  0.18532  0.64657  0.41796  1.0000
  H   H26       1.0  0.15367  0.67753  0.41788  1.0000
  N   N27       1.0  0.22979  0.79482  0.40748  1.0000
  C   C53       1.0  0.25579  0.97676  0.40740  1.0000
  C   C54       1.0  0.29182  0.99589  0.40991  1.0000
  C   C55       1.0  0.30971  0.53231  0.40984  1.0000
  N   N28       1.0  0.34430  0.54845  0.41288  1.0000
  C   C56       1.0  0.36252  0.53218  0.41582  1.0000
  C   C57       1.0  0.34485  0.99645  0.41576  1.0000
  N   N29       1.0  0.31035  0.97977  0.41286  1.0000
  H   H27       1.0  0.35755  0.98316  0.41794  1.0000
  N   N30       1.0  0.24026  0.94199  0.40750  1.0000
  C   C58       1.0  0.05833  0.78606  0.40739  1.0000
  C   C59       1.0  0.03919  0.80294  0.40990  1.0000
  C   C60       1.0  0.03863  0.85541  0.41573  1.0000
  N   N31       1.0  0.05531  0.83760  0.41284  1.0000
  H   H28       1.0  0.05192  0.88141  0.41791  1.0000
  N   N32       1.0  0.09309  0.80529  0.40748  1.0000
  H   H29       1.0  0.38851  0.04576  0.41802  1.0000
  H   H30       1.0  0.38851  0.54576  0.41802  1.0000
  C   C61       1.0  0.48443  0.24821  0.40713  1.0000
  C   C62       1.0  0.50389  0.23169  0.40494  1.0000
  H   H31       1.0  0.49178  0.20563  0.40301  1.0000
  N   N33       1.0  0.44973  0.22756  0.40653  1.0000
  C   C63       1.0  0.38816  0.20589  0.40672  1.0000
  C   C64       1.0  0.42241  0.23238  0.40701  1.0000
  H   H32       1.0  0.42650  0.25662  0.40728  1.0000
  C   C65       1.0  0.50277  0.28441  0.40983  1.0000
  N   N34       1.0  0.48664  0.30288  0.41286  1.0000
  C   C66       1.0  0.50290  0.33736  0.41579  1.0000
  H   H33       1.0  0.48932  0.34976  0.41800  1.0000
  C   C67       1.0  0.48443  0.74821  0.40713  1.0000
  C   C68       1.0  0.50389  0.73169  0.40494  1.0000
  H   H34       1.0  0.49178  0.70564  0.40301  1.0000
  N   N35       1.0  0.44973  0.72756  0.40653  1.0000
  C   C69       1.0  0.38817  0.70589  0.40672  1.0000
  C   C70       1.0  0.42241  0.73238  0.40701  1.0000
  H   H35       1.0  0.42650  0.75662  0.40728  1.0000
  C   C71       1.0  0.50277  0.78441  0.40983  1.0000
  N   N36       1.0  0.48664  0.80288  0.41286  1.0000
  C   C72       1.0  0.50290  0.83736  0.41579  1.0000
  H   H36       1.0  0.48932  0.84976  0.41800  1.0000
  C   C73       1.0  0.53919  0.30294  0.40990  1.0000
  C   C74       1.0  0.53863  0.35541  0.41573  1.0000
  C   C75       1.0  0.53919  0.80294  0.40990  1.0000
  C   C76       1.0  0.53863  0.85541  0.41573  1.0000
  C   C77       1.0  0.53988  0.25003  0.40504  1.0000
  H   H37       1.0  0.55252  0.23665  0.40319  1.0000
  C   C78       1.0  0.65353  0.32326  0.40650  1.0000
  C   C79       1.0  0.61876  0.29802  0.40639  1.0000
  H   H38       1.0  0.61273  0.27307  0.40587  1.0000
  H   H39       1.0  0.65367  0.17752  0.41788  1.0000
  C   C80       1.0  0.55832  0.28606  0.40739  1.0000
  N   N37       1.0  0.55532  0.33760  0.41284  1.0000
  H   H40       1.0  0.55192  0.38141  0.41791  1.0000
  N   N38       1.0  0.59309  0.30529  0.40748  1.0000
  C   C81       1.0  0.53988  0.75003  0.40504  1.0000
  H   H41       1.0  0.55251  0.73665  0.40319  1.0000
  C   C82       1.0  0.65353  0.82326  0.40650  1.0000
  C   C83       1.0  0.61876  0.79802  0.40639  1.0000
  H   H42       1.0  0.61273  0.77307  0.40587  1.0000
  H   H43       1.0  0.65367  0.67753  0.41788  1.0000
  C   C84       1.0  0.55833  0.78606  0.40739  1.0000
  N   N39       1.0  0.55532  0.83760  0.41284  1.0000
  H   H44       1.0  0.55192  0.88141  0.41791  1.0000
  N   N40       1.0  0.59309  0.80529  0.40748  1.0000
  C   C85       1.0  0.78687  0.24323  0.40713  1.0000
  C   C86       1.0  0.80339  0.27922  0.40495  1.0000
  C   C87       1.0  0.78505  0.29687  0.40505  1.0000
  H   H45       1.0  0.79843  0.32288  0.40320  1.0000
  H   H46       1.0  0.82945  0.29316  0.40303  1.0000
  N   N41       1.0  0.80752  0.22919  0.40652  1.0000
  C   C88       1.0  0.79185  0.05065  0.40713  1.0000
  C   C89       1.0  0.75586  0.03119  0.40494  1.0000
  C   C90       1.0  0.73821  0.49520  0.40504  1.0000
  H   H47       1.0  0.71220  0.48257  0.40319  1.0000
  H   H48       1.0  0.74192  0.04330  0.40301  1.0000
  N   N42       1.0  0.80589  0.08535  0.40652  1.0000
  C   C91       1.0  0.98443  0.24821  0.40713  1.0000
  C   C92       1.0  0.00389  0.23169  0.40494  1.0000
  H   H49       1.0  0.99178  0.20563  0.40301  1.0000
  N   N43       1.0  0.94973  0.22756  0.40653  1.0000
  C   C93       1.0  0.69779  0.38155  0.40650  1.0000
  N   N44       1.0  0.66412  0.35720  0.40649  1.0000
  N   N45       1.0  0.67788  0.31393  0.40649  1.0000
  C   C94       1.0  0.71182  0.33729  0.40650  1.0000
  N   N46       1.0  0.72115  0.37096  0.40650  1.0000
  C   C95       1.0  0.73706  0.32775  0.40639  1.0000
  C   C96       1.0  0.70732  0.41632  0.40640  1.0000
  H   H50       1.0  0.68840  0.42235  0.40587  1.0000
  H   H51       1.0  0.76201  0.34668  0.40588  1.0000
  C   C97       1.0  0.84579  0.14692  0.40672  1.0000
  N   N47       1.0  0.87907  0.17233  0.40674  1.0000
  C   C98       1.0  0.88816  0.20589  0.40672  1.0000
  N   N48       1.0  0.86275  0.21375  0.40674  1.0000
  C   C99       1.0  0.82919  0.18929  0.40671  1.0000
  N   N49       1.0  0.82133  0.15602  0.40673  1.0000
  C   C100      1.0  0.80270  0.19705  0.40700  1.0000
  C   C101      1.0  0.83803  0.11267  0.40700  1.0000
  C   C102      1.0  0.92241  0.23238  0.40701  1.0000
  H   H52       1.0  0.92651  0.25662  0.40728  1.0000
  H   H53       1.0  0.85818  0.10858  0.40729  1.0000
  H   H54       1.0  0.77846  0.17690  0.40728  1.0000
  C   C103      1.0  0.74903  0.27929  0.40739  1.0000
  C   C104      1.0  0.73214  0.24326  0.40989  1.0000
  C   C105      1.0  0.75067  0.22537  0.40982  1.0000
  N   N50       1.0  0.73220  0.19078  0.41285  1.0000
  C   C106      1.0  0.69772  0.17256  0.41576  1.0000
  C   C107      1.0  0.67967  0.19023  0.41571  1.0000
  N   N51       1.0  0.69748  0.22473  0.41282  1.0000
  H   H55       1.0  0.68532  0.14657  0.41796  1.0000
  N   N52       1.0  0.72979  0.29482  0.40748  1.0000
  C   C108      1.0  0.75579  0.47676  0.40740  1.0000
  C   C109      1.0  0.79182  0.49589  0.40991  1.0000
  C   C110      1.0  0.80971  0.03231  0.40984  1.0000
  N   N53       1.0  0.84430  0.04845  0.41288  1.0000
  C   C111      1.0  0.86252  0.03218  0.41582  1.0000
  C   C112      1.0  0.84485  0.49645  0.41576  1.0000
  N   N54       1.0  0.81035  0.47977  0.41286  1.0000
  H   H56       1.0  0.88851  0.04576  0.41802  1.0000
  H   H57       1.0  0.85756  0.48317  0.41794  1.0000
  N   N55       1.0  0.74026  0.44199  0.40750  1.0000
  C   C113      1.0  0.00277  0.28441  0.40983  1.0000
  N   N56       1.0  0.98664  0.30288  0.41286  1.0000
  C   C114      1.0  0.00290  0.33736  0.41579  1.0000
  H   H58       1.0  0.98932  0.34976  0.41800  1.0000
  C   C115      1.0  0.78687  0.74323  0.40713  1.0000
  C   C116      1.0  0.80339  0.77922  0.40495  1.0000
  C   C117      1.0  0.78505  0.79687  0.40505  1.0000
  H   H59       1.0  0.79843  0.82288  0.40320  1.0000
  H   H60       1.0  0.82945  0.79316  0.40303  1.0000
  N   N57       1.0  0.80752  0.72919  0.40652  1.0000
  C   C118      1.0  0.79185  0.55065  0.40713  1.0000
  C   C119      1.0  0.75586  0.53119  0.40494  1.0000
  C   C120      1.0  0.73821  0.99520  0.40504  1.0000
  H   H61       1.0  0.71220  0.98257  0.40319  1.0000
  H   H62       1.0  0.74192  0.54330  0.40301  1.0000
  N   N58       1.0  0.80589  0.58535  0.40652  1.0000
  C   C121      1.0  0.98443  0.74821  0.40713  1.0000
  C   C122      1.0  0.00389  0.73169  0.40494  1.0000
  H   H63       1.0  0.99178  0.70564  0.40301  1.0000
  N   N59       1.0  0.94973  0.72756  0.40653  1.0000
  C   C123      1.0  0.69779  0.88155  0.40650  1.0000
  N   N60       1.0  0.66412  0.85720  0.40649  1.0000
  N   N61       1.0  0.67788  0.81393  0.40649  1.0000
  C   C124      1.0  0.71183  0.83729  0.40650  1.0000
  N   N62       1.0  0.72115  0.87096  0.40650  1.0000
  C   C125      1.0  0.73706  0.82776  0.40639  1.0000
  C   C126      1.0  0.70732  0.91632  0.40640  1.0000
  H   H64       1.0  0.68840  0.92235  0.40587  1.0000
  H   H65       1.0  0.76201  0.84668  0.40588  1.0000
  C   C127      1.0  0.84579  0.64692  0.40672  1.0000
  N   N63       1.0  0.87906  0.67233  0.40674  1.0000
  C   C128      1.0  0.88816  0.70589  0.40672  1.0000
  N   N64       1.0  0.86275  0.71375  0.40674  1.0000
  C   C129      1.0  0.82919  0.68929  0.40671  1.0000
  N   N65       1.0  0.82133  0.65602  0.40673  1.0000
  C   C130      1.0  0.80270  0.69705  0.40700  1.0000
  C   C131      1.0  0.83803  0.61267  0.40700  1.0000
  C   C132      1.0  0.92241  0.73238  0.40701  1.0000
  H   H66       1.0  0.92651  0.75662  0.40728  1.0000
  H   H67       1.0  0.85818  0.60858  0.40729  1.0000
  H   H68       1.0  0.77846  0.67690  0.40728  1.0000
  C   C133      1.0  0.74903  0.77929  0.40739  1.0000
  C   C134      1.0  0.73214  0.74326  0.40989  1.0000
  C   C135      1.0  0.75067  0.72537  0.40982  1.0000
  N   N66       1.0  0.73220  0.69078  0.41285  1.0000
  C   C136      1.0  0.69772  0.67256  0.41576  1.0000
  C   C137      1.0  0.67967  0.69023  0.41571  1.0000
  N   N67       1.0  0.69748  0.72473  0.41282  1.0000
  H   H69       1.0  0.68532  0.64657  0.41796  1.0000
  N   N68       1.0  0.72979  0.79482  0.40748  1.0000
  C   C138      1.0  0.75579  0.97676  0.40740  1.0000
  C   C139      1.0  0.79182  0.99589  0.40991  1.0000
  C   C140      1.0  0.80971  0.53231  0.40984  1.0000
  N   N69       1.0  0.84431  0.54845  0.41288  1.0000
  C   C141      1.0  0.86252  0.53218  0.41582  1.0000
  C   C142      1.0  0.84485  0.99645  0.41576  1.0000
  N   N70       1.0  0.81035  0.97977  0.41286  1.0000
  H   H70       1.0  0.88851  0.54576  0.41802  1.0000
  H   H71       1.0  0.85755  0.98316  0.41794  1.0000
  N   N71       1.0  0.74026  0.94199  0.40750  1.0000
  C   C143      1.0  0.00277  0.78441  0.40983  1.0000
  N   N72       1.0  0.98664  0.80288  0.41286  1.0000
  C   C144      1.0  0.00290  0.83736  0.41579  1.0000
  H   H72       1.0  0.98932  0.84976  0.41800  1.0000
