data_image0
_chemical_formula_structural       C15H12C3HC4H2CH3C3HC4H2CH3C2NC2NC5NC3NC17H14C5H3CH3C5H3CH3
_chemical_formula_sum              "C72 H50 N4"
_cell_length_a       25.6268
_cell_length_b       25.6268
_cell_length_c       14.8956
_cell_angle_alpha    90
_cell_angle_beta     90
_cell_angle_gamma    90

_space_group_name_H-M_alt    "P 1"
_space_group_IT_number       1

loop_
  _space_group_symop_operation_xyz
  'x, y, z'

loop_
  _atom_site_type_symbol
  _atom_site_label
  _atom_site_symmetry_multiplicity
  _atom_site_fract_x
  _atom_site_fract_y
  _atom_site_fract_z
  _atom_site_occupancy
  C   C1        1.0  0.89157  0.95366  0.34218  1.0000
  C   C2        1.0  0.05228  0.89018  0.34110  1.0000
  C   C3        1.0  0.00129  0.13920  0.34045  1.0000
  C   C4        1.0  0.95192  0.11389  0.34101  1.0000
  C   C5        1.0  0.86529  0.10041  0.33961  1.0000
  C   C6        1.0  0.90330  0.13853  0.34113  1.0000
  C   C7        1.0  0.72658  0.98688  0.26137  1.0000
  C   C8        1.0  0.78151  0.98755  0.26214  1.0000
  C   C9        1.0  0.00172  0.19503  0.33905  1.0000
  C   C10       1.0  0.98803  0.27770  0.25975  1.0000
  C   C11       1.0  0.98820  0.22276  0.26047  1.0000
  C   C12       1.0  0.22280  0.99348  0.26011  1.0000
  C   C13       1.0  0.27775  0.99336  0.25999  1.0000
  C   C14       1.0  0.99337  0.78130  0.26151  1.0000
  C   C15       1.0  0.99302  0.72636  0.26150  1.0000
  H   H1        1.0  0.98712  0.70739  0.20192  1.0000
  H   H2        1.0  0.98713  0.80076  0.20248  1.0000
  H   H3        1.0  0.89823  0.82786  0.35382  1.0000
  H   H4        1.0  0.20330  0.98717  0.20114  1.0000
  H   H5        1.0  0.29672  0.98758  0.20038  1.0000
  H   H6        1.0  0.10618  0.17606  0.32744  1.0000
  H   H7        1.0  0.82611  0.10768  0.33882  1.0000
  H   H8        1.0  0.89592  0.17769  0.34134  1.0000
  H   H9        1.0  0.97780  0.20308  0.20343  1.0000
  H   H10       1.0  0.97668  0.29617  0.20209  1.0000
  H   H11       1.0  0.80129  0.97733  0.20509  1.0000
  H   H12       1.0  0.70824  0.97531  0.20373  1.0000
  C   C16       1.0  0.00432  0.53040  0.33861  1.0000
  C   C17       1.0  0.96332  0.55840  0.29737  1.0000
  C   C18       1.0  0.96272  0.61325  0.29801  1.0000
  H   H13       1.0  0.93214  0.63209  0.26802  1.0000
  C   C19       1.0  0.00340  0.47481  0.33445  1.0000
  C   C20       1.0  0.00216  0.36299  0.33588  1.0000
  C   C21       1.0  0.02049  0.39129  0.26044  1.0000
  C   C22       1.0  0.02129  0.44660  0.25812  1.0000
  H   H14       1.0  0.03475  0.37116  0.20644  1.0000
  H   H15       1.0  0.93351  0.53901  0.26604  1.0000
  C   C23       1.0  0.04127  0.47387  0.17682  1.0000
  H   H16       1.0  0.07431  0.49861  0.19480  1.0000
  H   H17       1.0  0.01055  0.49817  0.14807  1.0000
  H   H18       1.0  0.05430  0.44687  0.12474  1.0000
  C   C24       1.0  0.47375  0.00369  0.33831  1.0000
  C   C25       1.0  0.44566  0.96289  0.29667  1.0000
  C   C26       1.0  0.39080  0.96257  0.29684  1.0000
  H   H19       1.0  0.37188  0.93212  0.26659  1.0000
  C   C27       1.0  0.52934  0.00253  0.33456  1.0000
  C   C28       1.0  0.64115  0.00103  0.33689  1.0000
  C   C29       1.0  0.61309  0.01940  0.26121  1.0000
  C   C30       1.0  0.55780  0.02032  0.25844  1.0000
  H   H20       1.0  0.63340  0.03359  0.20735  1.0000
  H   H21       1.0  0.46499  0.93301  0.26541  1.0000
  C   C31       1.0  0.53081  0.04035  0.17690  1.0000
  H   H22       1.0  0.50609  0.07345  0.19466  1.0000
  H   H23       1.0  0.50652  0.00968  0.14796  1.0000
  H   H24       1.0  0.55799  0.05331  0.12503  1.0000
  C   C32       1.0  0.90548  0.86694  0.34863  1.0000
  C   C33       1.0  0.86733  0.90495  0.34872  1.0000
  N   N1        1.0  0.94347  0.94329  0.33869  1.0000
  C   C34       1.0  0.95405  0.89145  0.34240  1.0000
  C   C35       1.0  0.00290  0.86500  0.34148  1.0000
  N   N2        1.0  0.06228  0.94199  0.34144  1.0000
  C   C36       1.0  0.11406  0.95211  0.34173  1.0000
  C   C37       1.0  0.13889  0.90359  0.34193  1.0000
  C   C38       1.0  0.10086  0.86547  0.34086  1.0000
  C   C39       1.0  0.13912  0.00155  0.34122  1.0000
  C   C40       1.0  0.11255  0.05036  0.34024  1.0000
  N   N3        1.0  0.06067  0.06082  0.34385  1.0000
  C   C41       1.0  0.05016  0.11269  0.33989  1.0000
  C   C42       1.0  0.09882  0.13704  0.33339  1.0000
  C   C43       1.0  0.13693  0.09898  0.33372  1.0000
  N   N4        1.0  0.94187  0.06207  0.34101  1.0000
  C   C44       1.0  0.89007  0.05187  0.34048  1.0000
  C   C45       1.0  0.86491  0.00243  0.34099  1.0000
  C   C46       1.0  0.80909  0.00176  0.34050  1.0000
  C   C47       1.0  0.78029  0.01520  0.41798  1.0000
  C   C48       1.0  0.72535  0.01502  0.41664  1.0000
  C   C49       1.0  0.69720  0.00085  0.33837  1.0000
  C   C50       1.0  0.01557  0.22369  0.41646  1.0000
  C   C51       1.0  0.01593  0.27863  0.41514  1.0000
  C   C52       1.0  0.00199  0.30693  0.33693  1.0000
  C   C53       1.0  0.19486  0.00207  0.34050  1.0000
  C   C54       1.0  0.30639  0.00233  0.33986  1.0000
  C   C55       1.0  0.27801  0.01121  0.42002  1.0000
  C   C56       1.0  0.22306  0.01086  0.42052  1.0000
  C   C57       1.0  0.00246  0.80927  0.34169  1.0000
  C   C58       1.0  0.01122  0.78109  0.42177  1.0000
  C   C59       1.0  0.01137  0.72614  0.42137  1.0000
  C   C60       1.0  0.00222  0.69774  0.34130  1.0000
  H   H25       1.0  0.01744  0.70699  0.48073  1.0000
  H   H26       1.0  0.01772  0.80041  0.48086  1.0000
  H   H27       1.0  0.82830  0.89747  0.35407  1.0000
  H   H28       1.0  0.96980  0.96970  0.33204  1.0000
  H   H29       1.0  0.03433  0.03445  0.35080  1.0000
  H   H30       1.0  0.10813  0.82628  0.34056  1.0000
  H   H31       1.0  0.17810  0.89642  0.34219  1.0000
  H   H32       1.0  0.20378  0.01695  0.47977  1.0000
  H   H33       1.0  0.29716  0.01711  0.47942  1.0000
  H   H34       1.0  0.17600  0.10630  0.32839  1.0000
  H   H35       1.0  0.02580  0.20469  0.47429  1.0000
  H   H36       1.0  0.02733  0.29778  0.47210  1.0000
  H   H37       1.0  0.70607  0.02643  0.47346  1.0000
  H   H38       1.0  0.79919  0.02583  0.47568  1.0000
  C   C61       1.0  0.00270  0.64193  0.34085  1.0000
  C   C62       1.0  0.04347  0.61367  0.38266  1.0000
  C   C63       1.0  0.04516  0.55838  0.38202  1.0000
  C   C64       1.0  0.98472  0.44701  0.40973  1.0000
  C   C65       1.0  0.98410  0.39217  0.41032  1.0000
  H   H39       1.0  0.97138  0.46655  0.46514  1.0000
  H   H40       1.0  0.96947  0.37373  0.46577  1.0000
  H   H41       1.0  0.07326  0.63387  0.41248  1.0000
  C   C66       1.0  0.08975  0.53092  0.42531  1.0000
  H   H42       1.0  0.11833  0.55780  0.45387  1.0000
  H   H43       1.0  0.10984  0.50670  0.37593  1.0000
  H   H44       1.0  0.07551  0.50607  0.47951  1.0000
  C   C67       1.0  0.36220  0.00266  0.33954  1.0000
  C   C68       1.0  0.39055  0.04324  0.38172  1.0000
  C   C69       1.0  0.44585  0.04464  0.38156  1.0000
  C   C70       1.0  0.55690  0.98385  0.41011  1.0000
  C   C71       1.0  0.61175  0.98311  0.41116  1.0000
  H   H45       1.0  0.53718  0.97062  0.46541  1.0000
  H   H46       1.0  0.63002  0.96853  0.46680  1.0000
  H   H47       1.0  0.37040  0.07307  0.41152  1.0000
  C   C72       1.0  0.47340  0.08907  0.42517  1.0000
  H   H48       1.0  0.44657  0.11777  0.45354  1.0000
  H   H49       1.0  0.49787  0.10907  0.37605  1.0000
  H   H50       1.0  0.49800  0.07468  0.47959  1.0000
