data_image0
_chemical_formula_structural       C3H3NC2H3NC3H3NC3H3NC4H3NC3H3NC3H3NC3H3NC2H3NC3H3NC4H3NC3H3NC2H3NC3H3NC4H3NC3H3NC2H3NC3H3NC4H3NC3H3NC2H3NC3H3NC3H3NC4H3NCNCNCNCNCNCNCNCNCNCNCNCNCNCNCNCNCNCNCNCNCNCNCNCNCNCNCNCNCNCNCNCNCNCNCNCNCNCNCNCNCNCNCNCNCNCNCNCNC2H3NC4H3NC3H3NC3H3NC2H3NC3H3NC3H3NC3H3NC4H3NC3H3NC2H3NC3H3NC4H3NC3H3NC2H3NC3H3NC4H3NC3H3NC2H3NC3H3NC4H3NC3H3NC3H3NC2H3NC
_chemical_formula_sum              "C192 H144 N96"
_cell_length_a       53.8553
_cell_length_b       27.7665
_cell_length_c       14.8243
_cell_angle_alpha    90
_cell_angle_beta     90
_cell_angle_gamma    90

_space_group_name_H-M_alt    "P 1"
_space_group_IT_number       1

loop_
  _space_group_symop_operation_xyz
  'x, y, z'

loop_
  _atom_site_type_symbol
  _atom_site_label
  _atom_site_symmetry_multiplicity
  _atom_site_fract_x
  _atom_site_fract_y
  _atom_site_fract_z
  _atom_site_occupancy
  C   C1        1.0  0.51967  0.54915  0.33486  1.0000
  C   C2        1.0  0.53006  0.50475  0.30616  1.0000
  C   C3        1.0  0.55566  0.49818  0.27313  1.0000
  H   H1        1.0  0.55933  0.52282  0.21737  1.0000
  H   H2        1.0  0.55879  0.46148  0.24915  1.0000
  H   H3        1.0  0.56859  0.50502  0.32811  1.0000
  N   N1        1.0  0.51542  0.46490  0.30963  1.0000
  C   C4        1.0  0.05664  0.01354  0.29121  1.0000
  C   C5        1.0  0.03116  0.00763  0.32666  1.0000
  H   H4        1.0  0.06014  0.05069  0.27054  1.0000
  H   H5        1.0  0.05934  0.99039  0.23254  1.0000
  H   H6        1.0  0.07014  0.00416  0.34313  1.0000
  N   N2        1.0  0.01642  0.04740  0.32937  1.0000
  C   C6        1.0  0.02044  0.96315  0.35310  1.0000
  C   C7        1.0  0.40114  0.42605  0.25252  1.0000
  C   C8        1.0  0.39870  0.38201  0.30792  1.0000
  H   H7        1.0  0.39186  0.42065  0.18781  1.0000
  H   H8        1.0  0.42029  0.43570  0.23820  1.0000
  H   H9        1.0  0.39228  0.45611  0.28731  1.0000
  N   N3        1.0  0.37520  0.36390  0.31522  1.0000
  C   C9        1.0  0.41842  0.35531  0.34765  1.0000
  C   C10       1.0  0.61052  0.58101  0.27245  1.0000
  C   C11       1.0  0.61352  0.62839  0.31598  1.0000
  H   H10       1.0  0.62811  0.56768  0.24562  1.0000
  H   H11       1.0  0.59733  0.58358  0.21677  1.0000
  H   H12       1.0  0.60386  0.55520  0.32209  1.0000
  N   N4        1.0  0.63697  0.64701  0.32067  1.0000
  C   C12       1.0  0.59355  0.65649  0.34988  1.0000
  C   C13       1.0  0.14322  0.82236  0.33161  1.0000
  C   C14       1.0  0.12353  0.79594  0.29131  1.0000
  C   C15       1.0  0.12628  0.75070  0.23944  1.0000
  H   H13       1.0  0.14009  0.75541  0.18629  1.0000
  H   H14       1.0  0.10880  0.74013  0.20769  1.0000
  H   H15       1.0  0.13201  0.72150  0.28401  1.0000
  N   N5        1.0  0.10020  0.81404  0.29904  1.0000
  C   C16       1.0  0.86856  0.19062  0.33399  1.0000
  C   C17       1.0  0.88841  0.21817  0.29732  1.0000
  C   C18       1.0  0.88596  0.26529  0.25141  1.0000
  H   H16       1.0  0.87237  0.26271  0.19702  1.0000
  H   H17       1.0  0.90358  0.27689  0.22206  1.0000
  H   H18       1.0  0.88011  0.29278  0.29944  1.0000
  N   N6        1.0  0.91167  0.19954  0.30310  1.0000
  C   C19       1.0  0.53368  0.21211  0.36487  1.0000
  C   C20       1.0  0.54069  0.25577  0.32240  1.0000
  C   C21       1.0  0.56401  0.26187  0.27129  1.0000
  H   H19       1.0  0.57985  0.25753  0.31639  1.0000
  H   H20       1.0  0.56509  0.29760  0.24073  1.0000
  H   H21       1.0  0.56507  0.23509  0.21753  1.0000
  N   N7        1.0  0.52405  0.29290  0.32378  1.0000
  C   C22       1.0  0.47829  0.80017  0.36524  1.0000
  C   C23       1.0  0.47058  0.75491  0.33102  1.0000
  C   C24       1.0  0.44628  0.74661  0.28750  1.0000
  H   H22       1.0  0.43137  0.75306  0.33580  1.0000
  H   H23       1.0  0.44465  0.70963  0.26312  1.0000
  H   H24       1.0  0.44409  0.77084  0.23008  1.0000
  N   N8        1.0  0.48734  0.71801  0.33287  1.0000
  C   C25       1.0  0.04003  0.74076  0.22739  1.0000
  C   C26       1.0  0.01706  0.74876  0.28020  1.0000
  H   H25       1.0  0.05608  0.73979  0.27214  1.0000
  H   H26       1.0  0.04238  0.76958  0.17804  1.0000
  H   H27       1.0  0.03938  0.70660  0.19088  1.0000
  N   N9        1.0  0.00064  0.71189  0.28370  1.0000
  C   C27       1.0  0.01058  0.79172  0.32634  1.0000
  C   C28       1.0  0.96982  0.27569  0.24005  1.0000
  C   C29       1.0  0.99379  0.26524  0.28484  1.0000
  H   H28       1.0  0.95478  0.27484  0.28927  1.0000
  H   H29       1.0  0.96627  0.24914  0.18731  1.0000
  H   H30       1.0  0.96985  0.31132  0.20878  1.0000
  N   N10       1.0  0.01036  0.30185  0.28920  1.0000
  C   C30       1.0  0.00100  0.22056  0.32329  1.0000
  C   C31       1.0  0.30932  0.19280  0.35480  1.0000
  C   C32       1.0  0.29581  0.16400  0.29272  1.0000
  C   C33       1.0  0.28415  0.18312  0.21000  1.0000
  H   H31       1.0  0.26887  0.20691  0.22823  1.0000
  H   H32       1.0  0.27670  0.15419  0.16812  1.0000
  H   H33       1.0  0.29774  0.20312  0.17032  1.0000
  N   N11       1.0  0.29534  0.11541  0.30648  1.0000
  C   C34       1.0  0.70304  0.81926  0.35263  1.0000
  C   C35       1.0  0.71632  0.84813  0.29009  1.0000
  C   C36       1.0  0.72746  0.82920  0.20626  1.0000
  H   H34       1.0  0.74265  0.80492  0.22294  1.0000
  H   H35       1.0  0.73488  0.85820  0.16445  1.0000
  H   H36       1.0  0.71353  0.80977  0.16708  1.0000
  N   N12       1.0  0.71691  0.89666  0.30441  1.0000
  C   C37       1.0  0.18185  0.60465  0.16333  1.0000
  C   C38       1.0  0.19308  0.62147  0.24868  1.0000
  H   H37       1.0  0.16189  0.61127  0.16455  1.0000
  H   H38       1.0  0.18513  0.56650  0.15106  1.0000
  H   H39       1.0  0.18989  0.62460  0.10703  1.0000
  N   N13       1.0  0.19193  0.66966  0.26431  1.0000
  C   C39       1.0  0.20584  0.59232  0.31233  1.0000
  C   C40       1.0  0.82861  0.40695  0.16361  1.0000
  C   C41       1.0  0.81770  0.39025  0.24960  1.0000
  H   H40       1.0  0.84859  0.40050  0.16402  1.0000
  H   H41       1.0  0.82522  0.44506  0.15116  1.0000
  H   H42       1.0  0.82041  0.38681  0.10782  1.0000
  N   N14       1.0  0.81900  0.34215  0.26574  1.0000
  C   C42       1.0  0.80525  0.41949  0.31388  1.0000
  C   C43       1.0  0.28036  0.35866  0.33085  1.0000
  C   C44       1.0  0.25564  0.34937  0.30222  1.0000
  C   C45       1.0  0.24645  0.30358  0.26396  1.0000
  H   H43       1.0  0.25787  0.29337  0.20628  1.0000
  H   H44       1.0  0.22726  0.30674  0.24078  1.0000
  H   H45       1.0  0.24706  0.27535  0.31504  1.0000
  N   N15       1.0  0.23902  0.38604  0.30706  1.0000
  C   C46       1.0  0.73156  0.65345  0.32896  1.0000
  C   C47       1.0  0.75616  0.66240  0.29854  1.0000
  C   C48       1.0  0.76511  0.70770  0.25754  1.0000
  H   H46       1.0  0.75331  0.71731  0.20049  1.0000
  H   H47       1.0  0.78414  0.70419  0.23282  1.0000
  H   H48       1.0  0.76487  0.73652  0.30748  1.0000
  N   N16       1.0  0.77283  0.62585  0.30415  1.0000
  C   C49       1.0  0.23443  0.98617  0.28391  1.0000
  C   C50       1.0  0.24375  0.94094  0.32427  1.0000
  H   H49       1.0  0.22426  0.97808  0.22201  1.0000
  H   H50       1.0  0.24914  0.01123  0.26612  1.0000
  H   H51       1.0  0.22182  0.00375  0.33117  1.0000
  N   N17       1.0  0.22696  0.90419  0.32930  1.0000
  C   C51       1.0  0.26850  0.93144  0.35268  1.0000
  C   C52       1.0  0.77698  0.02709  0.28006  1.0000
  C   C53       1.0  0.76789  0.07175  0.32328  1.0000
  H   H52       1.0  0.78724  0.03606  0.21880  1.0000
  H   H53       1.0  0.76211  0.00276  0.26051  1.0000
  H   H54       1.0  0.78944  0.00834  0.32627  1.0000
  N   N18       1.0  0.78472  0.10838  0.32915  1.0000
  C   C54       1.0  0.74327  0.08089  0.35347  1.0000
  C   C55       1.0  0.15463  0.45068  0.31407  1.0000
  C   C56       1.0  0.13414  0.47023  0.26635  1.0000
  C   C57       1.0  0.13483  0.51227  0.20531  1.0000
  H   H55       1.0  0.13850  0.54486  0.24399  1.0000
  H   H56       1.0  0.11717  0.51716  0.17022  1.0000
  H   H57       1.0  0.14926  0.50720  0.15455  1.0000
  N   N19       1.0  0.11187  0.44843  0.27697  1.0000
  C   C58       1.0  0.85740  0.55957  0.31312  1.0000
  C   C59       1.0  0.87828  0.53717  0.27247  1.0000
  C   C60       1.0  0.87821  0.49189  0.22002  1.0000
  H   H58       1.0  0.87362  0.46163  0.26380  1.0000
  H   H59       1.0  0.89636  0.48463  0.19000  1.0000
  H   H60       1.0  0.86471  0.49448  0.16545  1.0000
  N   N20       1.0  0.90046  0.55950  0.28113  1.0000
  C   C61       1.0  0.38529  0.84631  0.25630  1.0000
  C   C62       1.0  0.38418  0.88781  0.31854  1.0000
  H   H61       1.0  0.37354  0.81741  0.28202  1.0000
  H   H62       1.0  0.40402  0.83231  0.24781  1.0000
  H   H63       1.0  0.37846  0.85715  0.19001  1.0000
  N   N21       1.0  0.36170  0.91016  0.32732  1.0000
  C   C63       1.0  0.40481  0.90887  0.36312  1.0000
  C   C64       1.0  0.62724  0.16963  0.27363  1.0000
  C   C65       1.0  0.62770  0.12496  0.32773  1.0000
  H   H64       1.0  0.63814  0.19732  0.30763  1.0000
  H   H65       1.0  0.60858  0.18340  0.26294  1.0000
  H   H66       1.0  0.63541  0.16274  0.20748  1.0000
  N   N22       1.0  0.65019  0.10245  0.33519  1.0000
  C   C66       1.0  0.60671  0.10162  0.36583  1.0000
  C   C67       1.0  0.95984  0.48118  0.24718  1.0000
  C   C68       1.0  0.98316  0.49584  0.29227  1.0000
  H   H67       1.0  0.96111  0.44452  0.22083  1.0000
  H   H68       1.0  0.95594  0.50529  0.19075  1.0000
  H   H69       1.0  0.94446  0.48237  0.29494  1.0000
  N   N23       1.0  0.00145  0.46242  0.29885  1.0000
  C   C69       1.0  0.98836  0.54263  0.32575  1.0000
  C   C70       1.0  0.48748  0.96993  0.35576  1.0000
  C   C71       1.0  0.48214  0.01695  0.32370  1.0000
  C   C72       1.0  0.45863  0.03188  0.28032  1.0000
  H   H70       1.0  0.45460  0.00843  0.22306  1.0000
  H   H71       1.0  0.45969  0.06888  0.25552  1.0000
  H   H72       1.0  0.44342  0.02993  0.32875  1.0000
  N   N24       1.0  0.50048  0.05031  0.32972  1.0000
  C   C73       1.0  0.44444  0.36530  0.34621  1.0000
  N   N25       1.0  0.45477  0.41004  0.34084  1.0000
  C   C74       1.0  0.47988  0.41710  0.34096  1.0000
  N   N26       1.0  0.49475  0.37758  0.34765  1.0000
  C   C75       1.0  0.48547  0.33240  0.35573  1.0000
  N   N27       1.0  0.46040  0.32759  0.35448  1.0000
  C   C76       1.0  0.56751  0.64605  0.34761  1.0000
  N   N28       1.0  0.55695  0.60153  0.33851  1.0000
  C   C77       1.0  0.53174  0.59489  0.33894  1.0000
  N   N29       1.0  0.51716  0.63468  0.34875  1.0000
  C   C78       1.0  0.52657  0.67965  0.35849  1.0000
  N   N30       1.0  0.55164  0.68378  0.35746  1.0000
  C   C79       1.0  0.06741  0.86530  0.34340  1.0000
  N   N31       1.0  0.05703  0.90999  0.34895  1.0000
  C   C80       1.0  0.03192  0.91702  0.34932  1.0000
  N   N32       1.0  0.01708  0.87744  0.34296  1.0000
  C   C81       1.0  0.02640  0.83229  0.33480  1.0000
  N   N33       1.0  0.05147  0.82756  0.33555  1.0000
  C   C82       1.0  0.94435  0.14611  0.34222  1.0000
  N   N34       1.0  0.95490  0.10161  0.35162  1.0000
  C   C83       1.0  0.98011  0.09494  0.35142  1.0000
  N   N35       1.0  0.99468  0.13473  0.34147  1.0000
  C   C84       1.0  0.98528  0.17968  0.33140  1.0000
  N   N36       1.0  0.96021  0.18383  0.33228  1.0000
  C   C85       1.0  0.31390  0.24291  0.34732  1.0000
  N   N37       1.0  0.29551  0.27597  0.33740  1.0000
  C   C86       1.0  0.30009  0.32428  0.33476  1.0000
  N   N38       1.0  0.32424  0.33883  0.34274  1.0000
  C   C87       1.0  0.34336  0.30708  0.35352  1.0000
  N   N39       1.0  0.33748  0.25949  0.35607  1.0000
  C   C88       1.0  0.69829  0.76930  0.34471  1.0000
  N   N40       1.0  0.71660  0.73608  0.33498  1.0000
  C   C89       1.0  0.71187  0.68785  0.33258  1.0000
  N   N41       1.0  0.68768  0.67355  0.34092  1.0000
  C   C90       1.0  0.66862  0.70550  0.35137  1.0000
  N   N42       1.0  0.67468  0.75300  0.35363  1.0000
  C   C91       1.0  0.19795  0.74289  0.34275  1.0000
  N   N43       1.0  0.21634  0.77595  0.35283  1.0000
  C   C92       1.0  0.21177  0.82426  0.35540  1.0000
  N   N44       1.0  0.18762  0.83882  0.34719  1.0000
  C   C93       1.0  0.16850  0.80708  0.33631  1.0000
  N   N45       1.0  0.17438  0.75948  0.33381  1.0000
  C   C94       1.0  0.81354  0.26935  0.34566  1.0000
  N   N46       1.0  0.79524  0.23614  0.35552  1.0000
  C   C95       1.0  0.79998  0.18791  0.35800  1.0000
  N   N47       1.0  0.82417  0.17362  0.34965  1.0000
  C   C96       1.0  0.84322  0.20559  0.33914  1.0000
  N   N48       1.0  0.83716  0.25308  0.33677  1.0000
  C   C97       1.0  0.04631  0.34497  0.33049  1.0000
  N   N49       1.0  0.07149  0.35165  0.33200  1.0000
  C   C98       1.0  0.08148  0.39694  0.33503  1.0000
  N   N50       1.0  0.06562  0.43501  0.33635  1.0000
  C   C99       1.0  0.04070  0.43016  0.33601  1.0000
  N   N51       1.0  0.03167  0.38483  0.33180  1.0000
  C   C100      1.0  0.96570  0.66703  0.32857  1.0000
  N   N52       1.0  0.94055  0.65980  0.32952  1.0000
  C   C101      1.0  0.93075  0.61431  0.32901  1.0000
  N   N53       1.0  0.94694  0.57672  0.32694  1.0000
  C   C102      1.0  0.97183  0.58207  0.32617  1.0000
  N   N54       1.0  0.98062  0.62759  0.32726  1.0000
  C   C103      1.0  0.46553  0.84495  0.36026  1.0000
  N   N55       1.0  0.44035  0.85164  0.35897  1.0000
  C   C104      1.0  0.43036  0.89693  0.35611  1.0000
  N   N56       1.0  0.44622  0.93499  0.35451  1.0000
  C   C105      1.0  0.47115  0.93015  0.35461  1.0000
  N   N57       1.0  0.48017  0.88482  0.35875  1.0000
  C   C106      1.0  0.54617  0.16706  0.36193  1.0000
  N   N58       1.0  0.57131  0.15982  0.36086  1.0000
  C   C107      1.0  0.58112  0.11431  0.36126  1.0000
  N   N59       1.0  0.56492  0.07675  0.36323  1.0000
  C   C108      1.0  0.54003  0.08209  0.36405  1.0000
  N   N60       1.0  0.53124  0.12762  0.36314  1.0000
  C   C109      1.0  0.20456  0.54135  0.31493  1.0000
  N   N61       1.0  0.22477  0.51250  0.32685  1.0000
  C   C110      1.0  0.22267  0.46358  0.33326  1.0000
  N   N62       1.0  0.19936  0.44439  0.32805  1.0000
  C   C111      1.0  0.17868  0.47168  0.31656  1.0000
  N   N63       1.0  0.18188  0.52009  0.31084  1.0000
  C   C112      1.0  0.80675  0.47038  0.31605  1.0000
  N   N64       1.0  0.78673  0.49971  0.32756  1.0000
  C   C113      1.0  0.78918  0.54858  0.33309  1.0000
  N   N65       1.0  0.81260  0.56724  0.32716  1.0000
  C   C114      1.0  0.83313  0.53939  0.31620  1.0000
  N   N66       1.0  0.82954  0.49108  0.31152  1.0000
  C   C115      1.0  0.30727  0.04139  0.37517  1.0000
  N   N67       1.0  0.28706  0.01252  0.36332  1.0000
  C   C116      1.0  0.28917  0.96359  0.35715  1.0000
  N   N68       1.0  0.31248  0.94442  0.36251  1.0000
  C   C117      1.0  0.33315  0.97173  0.37394  1.0000
  N   N69       1.0  0.32995  0.02013  0.37946  1.0000
  C   C118      1.0  0.70513  0.97033  0.37432  1.0000
  N   N70       1.0  0.72516  0.99967  0.36298  1.0000
  C   C119      1.0  0.72271  0.04854  0.35747  1.0000
  N   N71       1.0  0.69928  0.06718  0.36332  1.0000
  C   C120      1.0  0.67875  0.03932  0.37415  1.0000
  N   N72       1.0  0.68235  0.99101  0.37880  1.0000
  C   C121      1.0  0.45550  0.51329  0.40283  1.0000
  C   C122      1.0  0.48082  0.50752  0.36583  1.0000
  H   H73       1.0  0.45261  0.54959  0.42924  1.0000
  H   H74       1.0  0.45248  0.48788  0.45790  1.0000
  H   H75       1.0  0.44184  0.50690  0.34987  1.0000
  N   N73       1.0  0.49558  0.54727  0.36299  1.0000
  C   C123      1.0  0.49134  0.46322  0.33736  1.0000
  C   C124      1.0  0.99220  0.04920  0.35591  1.0000
  C   C125      1.0  0.98167  0.00471  0.38344  1.0000
  C   C126      1.0  0.95598  0.99815  0.41556  1.0000
  H   H76       1.0  0.95220  0.02266  0.47141  1.0000
  H   H77       1.0  0.95277  0.96140  0.43917  1.0000
  H   H78       1.0  0.94319  0.00516  0.36021  1.0000
  N   N74       1.0  0.99628  0.96479  0.37982  1.0000
  C   C127      1.0  0.36864  0.32232  0.35787  1.0000
  C   C128      1.0  0.38831  0.29608  0.39872  1.0000
  C   C129      1.0  0.38551  0.25115  0.45150  1.0000
  H   H79       1.0  0.37169  0.25624  0.50452  1.0000
  H   H80       1.0  0.40297  0.24071  0.48351  1.0000
  H   H81       1.0  0.37976  0.22171  0.40753  1.0000
  N   N75       1.0  0.41164  0.31414  0.39089  1.0000
  C   C130      1.0  0.64328  0.69054  0.35638  1.0000
  C   C131      1.0  0.62340  0.71824  0.39237  1.0000
  C   C132      1.0  0.62578  0.76549  0.43781  1.0000
  H   H82       1.0  0.63930  0.76308  0.49247  1.0000
  H   H83       1.0  0.60812  0.77718  0.46674  1.0000
  H   H84       1.0  0.63169  0.79284  0.38958  1.0000
  N   N76       1.0  0.60014  0.69960  0.38641  1.0000
  C   C133      1.0  0.11078  0.92641  0.43597  1.0000
  C   C134      1.0  0.11318  0.88227  0.38084  1.0000
  H   H85       1.0  0.12021  0.92125  0.50045  1.0000
  H   H86       1.0  0.09164  0.93592  0.45081  1.0000
  H   H87       1.0  0.11949  0.95646  0.40069  1.0000
  N   N77       1.0  0.13668  0.86410  0.37371  1.0000
  C   C135      1.0  0.09344  0.85539  0.34170  1.0000
  C   C136      1.0  0.90143  0.08154  0.41935  1.0000
  C   C137      1.0  0.89837  0.12865  0.37485  1.0000
  H   H88       1.0  0.88387  0.06841  0.44686  1.0000
  H   H89       1.0  0.91471  0.08444  0.47467  1.0000
  H   H90       1.0  0.90800  0.05541  0.37014  1.0000
  N   N78       1.0  0.87492  0.14725  0.37028  1.0000
  C   C138      1.0  0.91830  0.15655  0.34005  1.0000
  C   C139      1.0  0.47197  0.24112  0.46402  1.0000
  C   C140      1.0  0.49488  0.24896  0.41079  1.0000
  H   H91       1.0  0.45586  0.24012  0.41956  1.0000
  H   H92       1.0  0.46971  0.27004  0.51323  1.0000
  H   H93       1.0  0.47265  0.20702  0.50072  1.0000
  N   N79       1.0  0.51127  0.21205  0.40718  1.0000
  C   C141      1.0  0.50131  0.29185  0.36433  1.0000
  C   C142      1.0  0.54217  0.77577  0.44916  1.0000
  C   C143      1.0  0.51813  0.76526  0.40492  1.0000
  H   H94       1.0  0.55713  0.77488  0.39963  1.0000
  H   H95       1.0  0.54580  0.74928  0.50194  1.0000
  H   H96       1.0  0.54218  0.81143  0.48030  1.0000
  N   N80       1.0  0.50155  0.80186  0.40080  1.0000
  C   C144      1.0  0.51087  0.72054  0.36676  1.0000
  C   C145      1.0  0.97819  0.71206  0.32562  1.0000
  C   C146      1.0  0.97115  0.75576  0.36790  1.0000
  C   C147      1.0  0.94778  0.76196  0.41867  1.0000
  H   H97       1.0  0.93199  0.75760  0.37335  1.0000
  H   H98       1.0  0.94668  0.79773  0.44905  1.0000
  H   H99       1.0  0.94664  0.73524  0.47251  1.0000
  N   N81       1.0  0.98780  0.79285  0.36660  1.0000
  C   C148      1.0  0.03357  0.30019  0.32524  1.0000
  C   C149      1.0  0.04121  0.25498  0.35992  1.0000
  C   C150      1.0  0.06542  0.24674  0.40406  1.0000
  H   H100      1.0  0.08042  0.25310  0.35607  1.0000
  H   H101      1.0  0.06701  0.20980  0.42869  1.0000
  H   H102      1.0  0.06752  0.27106  0.46139  1.0000
  N   N82       1.0  0.02446  0.21807  0.35778  1.0000
  C   C151      1.0  0.32985  0.10466  0.52695  1.0000
  C   C152      1.0  0.31869  0.12150  0.44149  1.0000
  H   H103      1.0  0.34981  0.11126  0.52593  1.0000
  H   H104      1.0  0.32655  0.06651  0.53920  1.0000
  H   H105      1.0  0.32177  0.12462  0.58318  1.0000
  N   N83       1.0  0.31985  0.16969  0.42588  1.0000
  C   C153      1.0  0.30600  0.09236  0.37760  1.0000
  C   C154      1.0  0.68326  0.90692  0.52678  1.0000
  C   C155      1.0  0.69419  0.89019  0.44082  1.0000
  H   H106      1.0  0.66328  0.90049  0.52631  1.0000
  H   H107      1.0  0.68667  0.94502  0.53924  1.0000
  H   H108      1.0  0.69143  0.88676  0.58259  1.0000
  N   N84       1.0  0.69285  0.84210  0.42466  1.0000
  C   C156      1.0  0.70666  0.91945  0.37661  1.0000
  C   C157      1.0  0.20253  0.69277  0.33527  1.0000
  C   C158      1.0  0.21606  0.66396  0.39724  1.0000
  C   C159      1.0  0.22777  0.68304  0.47991  1.0000
  H   H109      1.0  0.24305  0.70682  0.46160  1.0000
  H   H110      1.0  0.23523  0.65410  0.52172  1.0000
  H   H111      1.0  0.21421  0.70304  0.51968  1.0000
  N   N85       1.0  0.21653  0.61537  0.38342  1.0000
  C   C160      1.0  0.80879  0.31931  0.33774  1.0000
  C   C161      1.0  0.79554  0.34821  0.40032  1.0000
  C   C162      1.0  0.78435  0.32926  0.48405  1.0000
  H   H112      1.0  0.76914  0.30504  0.46723  1.0000
  H   H113      1.0  0.77693  0.35825  0.52588  1.0000
  H   H114      1.0  0.79824  0.30976  0.52326  1.0000
  N   N86       1.0  0.79496  0.39674  0.38604  1.0000
  C   C163      1.0  0.27739  0.48617  0.40653  1.0000
  C   C164      1.0  0.26808  0.44092  0.36619  1.0000
  H   H115      1.0  0.28754  0.47809  0.46849  1.0000
  H   H116      1.0  0.26267  0.51123  0.42421  1.0000
  H   H117      1.0  0.29002  0.50373  0.35930  1.0000
  N   N87       1.0  0.28489  0.40419  0.36108  1.0000
  C   C165      1.0  0.24334  0.43144  0.33764  1.0000
  C   C166      1.0  0.73493  0.52708  0.41071  1.0000
  C   C167      1.0  0.74400  0.57176  0.36751  1.0000
  H   H118      1.0  0.72468  0.53604  0.47202  1.0000
  H   H119      1.0  0.74981  0.50275  0.43021  1.0000
  H   H120      1.0  0.72246  0.50834  0.36454  1.0000
  N   N88       1.0  0.72716  0.60836  0.36158  1.0000
  C   C168      1.0  0.76861  0.58092  0.33722  1.0000
  C   C169      1.0  0.23150  0.85863  0.35943  1.0000
  C   C170      1.0  0.25622  0.84935  0.38799  1.0000
  C   C171      1.0  0.26542  0.80354  0.42613  1.0000
  H   H121      1.0  0.25401  0.79328  0.48383  1.0000
  H   H122      1.0  0.28461  0.80669  0.44926  1.0000
  H   H123      1.0  0.26481  0.77534  0.37499  1.0000
  N   N89       1.0  0.27283  0.88603  0.38319  1.0000
  C   C172      1.0  0.78029  0.15348  0.36166  1.0000
  C   C173      1.0  0.75569  0.16242  0.39200  1.0000
  C   C174      1.0  0.74670  0.20776  0.43275  1.0000
  H   H124      1.0  0.75847  0.21745  0.48983  1.0000
  H   H125      1.0  0.72766  0.20425  0.45738  1.0000
  H   H126      1.0  0.74696  0.23651  0.38268  1.0000
  N   N90       1.0  0.73903  0.12584  0.38639  1.0000
  C   C175      1.0  0.12648  0.34667  0.43555  1.0000
  C   C176      1.0  0.12763  0.38800  0.37291  1.0000
  H   H127      1.0  0.13825  0.31769  0.41020  1.0000
  H   H128      1.0  0.10775  0.33270  0.44404  1.0000
  H   H129      1.0  0.13328  0.35770  0.50178  1.0000
  N   N91       1.0  0.15013  0.41028  0.36392  1.0000
  C   C177      1.0  0.10702  0.40890  0.32797  1.0000
  C   C178      1.0  0.88468  0.66953  0.41714  1.0000
  C   C179      1.0  0.88419  0.62493  0.36283  1.0000
  H   H130      1.0  0.87374  0.69726  0.38339  1.0000
  H   H131      1.0  0.90335  0.68331  0.42771  1.0000
  H   H132      1.0  0.87656  0.66254  0.48334  1.0000
  N   N92       1.0  0.86170  0.60245  0.35535  1.0000
  C   C180      1.0  0.90515  0.60169  0.32435  1.0000
  C   C181      1.0  0.35721  0.95073  0.37667  1.0000
  C   C182      1.0  0.37772  0.97049  0.42393  1.0000
  C   C183      1.0  0.37708  0.01280  0.48434  1.0000
  H   H133      1.0  0.37337  0.04523  0.44523  1.0000
  H   H134      1.0  0.39477  0.01786  0.51914  1.0000
  H   H135      1.0  0.36269  0.00793  0.53535  1.0000
  N   N93       1.0  0.39998  0.94864  0.41351  1.0000
  C   C184      1.0  0.65446  0.05950  0.37718  1.0000
  C   C185      1.0  0.63357  0.03704  0.41758  1.0000
  C   C186      1.0  0.63360  0.99167  0.46976  1.0000
  H   H136      1.0  0.63823  0.96148  0.42586  1.0000
  H   H137      1.0  0.61544  0.98436  0.49960  1.0000
  H   H138      1.0  0.64708  0.99419  0.52446  1.0000
  N   N94       1.0  0.61139  0.05938  0.40888  1.0000
  C   C187      1.0  0.02437  0.46994  0.33465  1.0000
  C   C188      1.0  0.02966  0.51689  0.36718  1.0000
  C   C189      1.0  0.05311  0.53174  0.41110  1.0000
  H   H139      1.0  0.05706  0.50818  0.46827  1.0000
  H   H140      1.0  0.05201  0.56869  0.43612  1.0000
  H   H141      1.0  0.06839  0.52989  0.36294  1.0000
  N   N95       1.0  0.01132  0.55027  0.36100  1.0000
  C   C190      1.0  0.55216  0.98094  0.44179  1.0000
  C   C191      1.0  0.52877  0.99575  0.39740  1.0000
  H   H142      1.0  0.55094  0.94421  0.46780  1.0000
  H   H143      1.0  0.55617  0.00488  0.49837  1.0000
  H   H144      1.0  0.56745  0.98226  0.39368  1.0000
  N   N96       1.0  0.51046  0.96235  0.39097  1.0000
  C   C192      1.0  0.52351  0.04262  0.36444  1.0000
