data_image0
_chemical_formula_structural       C2HCHNC2H3C2HCHNC2H4CHC6H2NCH3CH4CHC6H2NCH3CH3N2C3HC3H2C4HCHC3HC3H2C4HCHCH2CHC6H3N3C3H3CH2CHC3H3CHCH2CHC6H3N3C3H3CH2CHC3H3CHC3H2CHC3H2CHC3H2CHC6H3N3C6H3N3C4H3CH3CHC4H3CH3CHC4H3CH3CHC3H2CHC3H2CHC3H2CHC6H3N3C6H3N3C4H3CH3CHC4H3CH3CHC4H3CH3CH
_chemical_formula_sum              "C168 H144 N24"
_cell_length_a       45.5982
_cell_length_b       45.5982
_cell_length_c       14.8243
_cell_angle_alpha    90
_cell_angle_beta     90
_cell_angle_gamma    120

_space_group_name_H-M_alt    "P 1"
_space_group_IT_number       1

loop_
  _space_group_symop_operation_xyz
  'x, y, z'

loop_
  _atom_site_type_symbol
  _atom_site_label
  _atom_site_symmetry_multiplicity
  _atom_site_fract_x
  _atom_site_fract_y
  _atom_site_fract_z
  _atom_site_occupancy
  C   C1        1.0  0.04403  0.27110  0.37492  1.0000
  C   C2        1.0  0.01862  0.23744  0.35565  1.0000
  H   H1        1.0  0.02497  0.21953  0.33871  1.0000
  C   C3        1.0  0.07825  0.27871  0.36657  1.0000
  H   H2        1.0  0.08288  0.25931  0.35439  1.0000
  N   N1        1.0  0.10548  0.31044  0.36670  1.0000
  C   C4        1.0  0.03322  0.29446  0.40096  1.0000
  C   C5        1.0  0.05766  0.32655  0.44838  1.0000
  H   H3        1.0  0.07479  0.32268  0.49164  1.0000
  H   H4        1.0  0.04525  0.33568  0.49407  1.0000
  H   H5        1.0  0.07236  0.34629  0.39907  1.0000
  C   C6        1.0  0.04403  0.77110  0.37492  1.0000
  C   C7        1.0  0.01862  0.73744  0.35565  1.0000
  H   H6        1.0  0.02497  0.71953  0.33871  1.0000
  C   C8        1.0  0.07825  0.77871  0.36657  1.0000
  H   H7        1.0  0.08288  0.75931  0.35439  1.0000
  N   N2        1.0  0.10548  0.81044  0.36670  1.0000
  C   C9        1.0  0.03322  0.79446  0.40096  1.0000
  C   C10       1.0  0.05765  0.82655  0.44838  1.0000
  H   H8        1.0  0.07479  0.82268  0.49164  1.0000
  H   H9        1.0  0.04525  0.83568  0.49407  1.0000
  H   H10       1.0  0.07236  0.84628  0.39907  1.0000
  H   H11       1.0  0.20641  0.48984  0.33877  1.0000
  C   C11       1.0  0.21232  0.43657  0.36651  1.0000
  H   H12       1.0  0.18829  0.43194  0.35441  1.0000
  C   C12       1.0  0.19129  0.31900  0.36233  1.0000
  C   C13       1.0  0.15563  0.30381  0.36213  1.0000
  C   C14       1.0  0.13956  0.32352  0.36227  1.0000
  C   C15       1.0  0.16003  0.35918  0.36207  1.0000
  C   C16       1.0  0.19581  0.37525  0.36223  1.0000
  C   C17       1.0  0.21100  0.35478  0.36203  1.0000
  H   H13       1.0  0.14860  0.37357  0.36413  1.0000
  H   H14       1.0  0.14123  0.27799  0.36423  1.0000
  N   N3        1.0  0.20437  0.29800  0.36674  1.0000
  C   C18       1.0  0.20352  0.17928  0.40017  1.0000
  H   H15       1.0  0.20584  0.16547  0.34307  1.0000
  H   H16       1.0  0.17754  0.17422  0.39751  1.0000
  H   H17       1.0  0.20687  0.16868  0.46281  1.0000
  C   C19       1.0  0.18827  0.23408  0.44845  1.0000
  H   H18       1.0  0.19215  0.25509  0.49170  1.0000
  H   H19       1.0  0.17915  0.21254  0.49416  1.0000
  H   H20       1.0  0.16854  0.22905  0.39916  1.0000
  H   H21       1.0  0.20641  0.98985  0.33877  1.0000
  C   C20       1.0  0.21232  0.93657  0.36651  1.0000
  H   H22       1.0  0.18828  0.93194  0.35441  1.0000
  C   C21       1.0  0.19129  0.81900  0.36233  1.0000
  C   C22       1.0  0.15563  0.80381  0.36213  1.0000
  C   C23       1.0  0.13956  0.82352  0.36227  1.0000
  C   C24       1.0  0.16003  0.85918  0.36207  1.0000
  C   C25       1.0  0.19581  0.87525  0.36223  1.0000
  C   C26       1.0  0.21100  0.85478  0.36203  1.0000
  H   H23       1.0  0.14860  0.87357  0.36413  1.0000
  H   H24       1.0  0.14124  0.77799  0.36423  1.0000
  N   N4        1.0  0.20437  0.79800  0.36674  1.0000
  C   C27       1.0  0.20352  0.67927  0.40017  1.0000
  H   H25       1.0  0.20584  0.66547  0.34307  1.0000
  H   H26       1.0  0.17754  0.67423  0.39751  1.0000
  H   H27       1.0  0.20687  0.66868  0.46281  1.0000
  C   C28       1.0  0.18827  0.73408  0.44845  1.0000
  H   H28       1.0  0.19215  0.75509  0.49170  1.0000
  H   H29       1.0  0.17915  0.71254  0.49416  1.0000
  H   H30       1.0  0.16854  0.72905  0.39916  1.0000
  N   N5        1.0  0.21681  0.40933  0.36664  1.0000
  N   N6        1.0  0.21682  0.90933  0.36664  1.0000
  C   C29       1.0  0.24372  0.27590  0.37494  1.0000
  C   C30       1.0  0.27737  0.28415  0.35565  1.0000
  C   C31       1.0  0.23610  0.30250  0.36655  1.0000
  H   H31       1.0  0.25550  0.32653  0.35437  1.0000
  C   C32       1.0  0.23892  0.47078  0.37490  1.0000
  C   C33       1.0  0.23067  0.49619  0.35569  1.0000
  C   C34       1.0  0.25493  0.03074  0.35917  1.0000
  H   H32       1.0  0.24706  0.04768  0.34490  1.0000
  H   H33       1.0  0.23682  0.36621  0.36417  1.0000
  C   C35       1.0  0.26435  0.22540  0.37642  1.0000
  C   C36       1.0  0.22980  0.21609  0.39373  1.0000
  C   C37       1.0  0.22036  0.24173  0.40101  1.0000
  C   C38       1.0  0.27605  0.20172  0.37661  1.0000
  H   H34       1.0  0.25915  0.17688  0.38850  1.0000
  C   C39       1.0  0.27310  0.48159  0.40089  1.0000
  H   H35       1.0  0.25976  0.44002  0.49157  1.0000
  C   C40       1.0  0.24372  0.77590  0.37494  1.0000
  C   C41       1.0  0.27737  0.78415  0.35565  1.0000
  C   C42       1.0  0.23610  0.80250  0.36655  1.0000
  H   H36       1.0  0.25550  0.82653  0.35437  1.0000
  C   C43       1.0  0.23892  0.97078  0.37490  1.0000
  C   C44       1.0  0.23067  0.99619  0.35569  1.0000
  C   C45       1.0  0.25493  0.53074  0.35917  1.0000
  H   H37       1.0  0.24706  0.54768  0.34490  1.0000
  H   H38       1.0  0.23682  0.86621  0.36417  1.0000
  C   C46       1.0  0.26435  0.72540  0.37642  1.0000
  C   C47       1.0  0.22980  0.71609  0.39373  1.0000
  C   C48       1.0  0.22036  0.74173  0.40101  1.0000
  C   C49       1.0  0.27605  0.70172  0.37661  1.0000
  H   H39       1.0  0.25915  0.67688  0.38850  1.0000
  C   C50       1.0  0.27310  0.98159  0.40089  1.0000
  H   H40       1.0  0.25976  0.94002  0.49157  1.0000
  C   C51       1.0  0.28764  0.25987  0.35904  1.0000
  H   H41       1.0  0.31246  0.26774  0.34480  1.0000
  H   H42       1.0  0.29528  0.30840  0.33867  1.0000
  C   C52       1.0  0.48408  0.22717  0.35904  1.0000
  H   H43       1.0  0.46713  0.20235  0.34482  1.0000
  C   C53       1.0  0.32422  0.19075  0.36717  1.0000
  C   C54       1.0  0.35999  0.20810  0.36684  1.0000
  C   C55       1.0  0.37838  0.19060  0.36717  1.0000
  C   C56       1.0  0.35996  0.15483  0.36686  1.0000
  C   C57       1.0  0.32407  0.13644  0.36718  1.0000
  C   C58       1.0  0.30672  0.15486  0.36687  1.0000
  H   H44       1.0  0.37311  0.14211  0.36679  1.0000
  H   H45       1.0  0.28085  0.14171  0.36680  1.0000
  H   H46       1.0  0.37271  0.23397  0.36676  1.0000
  N   N7        1.0  0.30896  0.20992  0.36875  1.0000
  N   N8        1.0  0.41281  0.20586  0.36873  1.0000
  N   N9        1.0  0.30489  0.10201  0.36878  1.0000
  C   C59       1.0  0.28941  0.04191  0.37641  1.0000
  C   C60       1.0  0.29874  0.01668  0.39360  1.0000
  C   C61       1.0  0.33555  0.02720  0.39996  1.0000
  H   H47       1.0  0.34934  0.04333  0.34284  1.0000
  H   H48       1.0  0.34060  0.00628  0.39724  1.0000
  H   H49       1.0  0.34617  0.04115  0.46259  1.0000
  C   C62       1.0  0.28075  0.45715  0.44826  1.0000
  H   H50       1.0  0.30231  0.46955  0.49390  1.0000
  H   H51       1.0  0.28574  0.44243  0.39892  1.0000
  C   C63       1.0  0.31309  0.07730  0.37662  1.0000
  H   H52       1.0  0.33794  0.08523  0.38833  1.0000
  C   C64       1.0  0.47290  0.25047  0.37639  1.0000
  C   C65       1.0  0.49814  0.28502  0.39366  1.0000
  C   C66       1.0  0.48761  0.31130  0.40007  1.0000
  H   H53       1.0  0.47149  0.30898  0.34296  1.0000
  H   H54       1.0  0.50853  0.33728  0.39739  1.0000
  H   H55       1.0  0.47366  0.30796  0.46271  1.0000
  C   C67       1.0  0.43751  0.23877  0.37658  1.0000
  H   H56       1.0  0.42958  0.25567  0.38844  1.0000
  C   C68       1.0  0.28765  0.75987  0.35904  1.0000
  H   H57       1.0  0.31246  0.76774  0.34480  1.0000
  H   H58       1.0  0.29528  0.80840  0.33867  1.0000
  C   C69       1.0  0.48408  0.72717  0.35904  1.0000
  H   H59       1.0  0.46713  0.70235  0.34482  1.0000
  C   C70       1.0  0.32422  0.69075  0.36717  1.0000
  C   C71       1.0  0.35999  0.70810  0.36684  1.0000
  C   C72       1.0  0.37838  0.69060  0.36717  1.0000
  C   C73       1.0  0.35996  0.65483  0.36686  1.0000
  C   C74       1.0  0.32407  0.63644  0.36718  1.0000
  C   C75       1.0  0.30672  0.65486  0.36687  1.0000
  H   H60       1.0  0.37311  0.64211  0.36679  1.0000
  H   H61       1.0  0.28085  0.64171  0.36680  1.0000
  H   H62       1.0  0.37271  0.73397  0.36676  1.0000
  N   N10       1.0  0.30896  0.70992  0.36875  1.0000
  N   N11       1.0  0.41281  0.70586  0.36873  1.0000
  N   N12       1.0  0.30489  0.60201  0.36878  1.0000
  C   C76       1.0  0.28941  0.54191  0.37641  1.0000
  C   C77       1.0  0.29873  0.51668  0.39360  1.0000
  C   C78       1.0  0.33555  0.52720  0.39996  1.0000
  H   H63       1.0  0.34934  0.54333  0.34284  1.0000
  H   H64       1.0  0.34060  0.50628  0.39724  1.0000
  H   H65       1.0  0.34617  0.54115  0.46259  1.0000
  C   C79       1.0  0.28075  0.95715  0.44826  1.0000
  H   H66       1.0  0.30231  0.96955  0.49390  1.0000
  H   H67       1.0  0.28575  0.94243  0.39892  1.0000
  C   C80       1.0  0.31309  0.57730  0.37662  1.0000
  H   H68       1.0  0.33794  0.58523  0.38833  1.0000
  C   C81       1.0  0.47290  0.75047  0.37639  1.0000
  C   C82       1.0  0.49814  0.78502  0.39366  1.0000
  C   C83       1.0  0.48761  0.81131  0.40007  1.0000
  H   H69       1.0  0.47149  0.80898  0.34296  1.0000
  H   H70       1.0  0.50853  0.83728  0.39739  1.0000
  H   H71       1.0  0.47366  0.80796  0.46271  1.0000
  C   C84       1.0  0.43752  0.73877  0.37658  1.0000
  H   H72       1.0  0.42958  0.75567  0.38844  1.0000
  C   C85       1.0  0.74372  0.27590  0.37494  1.0000
  C   C86       1.0  0.77737  0.28415  0.35565  1.0000
  C   C87       1.0  0.78765  0.25987  0.35904  1.0000
  H   H73       1.0  0.81246  0.26774  0.34480  1.0000
  H   H74       1.0  0.79528  0.30840  0.33867  1.0000
  C   C88       1.0  0.73610  0.30250  0.36655  1.0000
  H   H75       1.0  0.75550  0.32653  0.35437  1.0000
  C   C89       1.0  0.73892  0.47078  0.37490  1.0000
  C   C90       1.0  0.73067  0.49619  0.35569  1.0000
  C   C91       1.0  0.75493  0.03074  0.35917  1.0000
  H   H76       1.0  0.74706  0.04768  0.34490  1.0000
  H   H77       1.0  0.70641  0.48984  0.33877  1.0000
  C   C92       1.0  0.71232  0.43657  0.36651  1.0000
  H   H78       1.0  0.68829  0.43194  0.35441  1.0000
  C   C93       1.0  0.54403  0.27110  0.37492  1.0000
  C   C94       1.0  0.51862  0.23744  0.35565  1.0000
  C   C95       1.0  0.98408  0.22717  0.35904  1.0000
  H   H79       1.0  0.96713  0.20235  0.34482  1.0000
  H   H80       1.0  0.52497  0.21953  0.33871  1.0000
  C   C96       1.0  0.57825  0.27871  0.36657  1.0000
  H   H81       1.0  0.58288  0.25931  0.35439  1.0000
  C   C97       1.0  0.69129  0.31900  0.36233  1.0000
  C   C98       1.0  0.65563  0.30381  0.36213  1.0000
  C   C99       1.0  0.63956  0.32352  0.36227  1.0000
  C   C100      1.0  0.66003  0.35918  0.36207  1.0000
  C   C101      1.0  0.69581  0.37525  0.36223  1.0000
  C   C102      1.0  0.71100  0.35478  0.36203  1.0000
  H   H82       1.0  0.64860  0.37357  0.36413  1.0000
  H   H83       1.0  0.73682  0.36621  0.36417  1.0000
  H   H84       1.0  0.64124  0.27799  0.36423  1.0000
  N   N13       1.0  0.70437  0.29800  0.36674  1.0000
  N   N14       1.0  0.60548  0.31044  0.36670  1.0000
  N   N15       1.0  0.71681  0.40933  0.36664  1.0000
  C   C103      1.0  0.82422  0.19075  0.36717  1.0000
  C   C104      1.0  0.85999  0.20810  0.36684  1.0000
  C   C105      1.0  0.87838  0.19060  0.36717  1.0000
  C   C106      1.0  0.85996  0.15483  0.36686  1.0000
  C   C107      1.0  0.82407  0.13644  0.36718  1.0000
  C   C108      1.0  0.80672  0.15486  0.36687  1.0000
  H   H85       1.0  0.87311  0.14211  0.36679  1.0000
  H   H86       1.0  0.78085  0.14171  0.36680  1.0000
  H   H87       1.0  0.87271  0.23397  0.36676  1.0000
  N   N16       1.0  0.80896  0.20992  0.36875  1.0000
  N   N17       1.0  0.91281  0.20586  0.36873  1.0000
  N   N18       1.0  0.80489  0.10201  0.36878  1.0000
  C   C109      1.0  0.76435  0.22540  0.37642  1.0000
  C   C110      1.0  0.72980  0.21609  0.39373  1.0000
  C   C111      1.0  0.72036  0.24173  0.40101  1.0000
  C   C112      1.0  0.70352  0.17928  0.40017  1.0000
  H   H88       1.0  0.70584  0.16547  0.34307  1.0000
  H   H89       1.0  0.67754  0.17422  0.39751  1.0000
  H   H90       1.0  0.70687  0.16868  0.46281  1.0000
  C   C113      1.0  0.68827  0.23408  0.44845  1.0000
  H   H91       1.0  0.69215  0.25509  0.49170  1.0000
  H   H92       1.0  0.67915  0.21254  0.49416  1.0000
  H   H93       1.0  0.66854  0.22905  0.39916  1.0000
  C   C114      1.0  0.77605  0.20172  0.37661  1.0000
  H   H94       1.0  0.75915  0.17688  0.38850  1.0000
  C   C115      1.0  0.78941  0.04191  0.37641  1.0000
  C   C116      1.0  0.79874  0.01668  0.39360  1.0000
  C   C117      1.0  0.77310  0.48159  0.40089  1.0000
  C   C118      1.0  0.83555  0.02720  0.39996  1.0000
  H   H95       1.0  0.84934  0.04333  0.34284  1.0000
  H   H96       1.0  0.84060  0.00628  0.39724  1.0000
  H   H97       1.0  0.84617  0.04115  0.46259  1.0000
  C   C119      1.0  0.78075  0.45715  0.44826  1.0000
  H   H98       1.0  0.75975  0.44002  0.49157  1.0000
  H   H99       1.0  0.80231  0.46955  0.49390  1.0000
  H   H100      1.0  0.78574  0.44243  0.39892  1.0000
  C   C120      1.0  0.81309  0.07730  0.37662  1.0000
  H   H101      1.0  0.83794  0.08523  0.38833  1.0000
  C   C121      1.0  0.97290  0.25047  0.37639  1.0000
  C   C122      1.0  0.99814  0.28502  0.39366  1.0000
  C   C123      1.0  0.53322  0.29446  0.40096  1.0000
  C   C124      1.0  0.98761  0.31130  0.40007  1.0000
  H   H102      1.0  0.97149  0.30898  0.34296  1.0000
  H   H103      1.0  0.00853  0.33728  0.39739  1.0000
  H   H104      1.0  0.97366  0.30796  0.46271  1.0000
  C   C125      1.0  0.55766  0.32655  0.44838  1.0000
  H   H105      1.0  0.57479  0.32268  0.49164  1.0000
  H   H106      1.0  0.54524  0.33568  0.49407  1.0000
  H   H107      1.0  0.57236  0.34629  0.39907  1.0000
  C   C126      1.0  0.93751  0.23877  0.37658  1.0000
  H   H108      1.0  0.92958  0.25567  0.38844  1.0000
  C   C127      1.0  0.74372  0.77590  0.37494  1.0000
  C   C128      1.0  0.77737  0.78415  0.35565  1.0000
  C   C129      1.0  0.78765  0.75987  0.35904  1.0000
  H   H109      1.0  0.81246  0.76774  0.34480  1.0000
  H   H110      1.0  0.79528  0.80840  0.33867  1.0000
  C   C130      1.0  0.73610  0.80250  0.36655  1.0000
  H   H111      1.0  0.75550  0.82653  0.35437  1.0000
  C   C131      1.0  0.73892  0.97078  0.37490  1.0000
  C   C132      1.0  0.73067  0.99619  0.35569  1.0000
  C   C133      1.0  0.75493  0.53074  0.35917  1.0000
  H   H112      1.0  0.74706  0.54768  0.34490  1.0000
  H   H113      1.0  0.70641  0.98985  0.33877  1.0000
  C   C134      1.0  0.71232  0.93657  0.36651  1.0000
  H   H114      1.0  0.68828  0.93194  0.35441  1.0000
  C   C135      1.0  0.54403  0.77110  0.37492  1.0000
  C   C136      1.0  0.51862  0.73744  0.35565  1.0000
  C   C137      1.0  0.98408  0.72717  0.35904  1.0000
  H   H115      1.0  0.96713  0.70235  0.34482  1.0000
  H   H116      1.0  0.52497  0.71953  0.33871  1.0000
  C   C138      1.0  0.57825  0.77871  0.36657  1.0000
  H   H117      1.0  0.58288  0.75931  0.35439  1.0000
  C   C139      1.0  0.69129  0.81900  0.36233  1.0000
  C   C140      1.0  0.65563  0.80381  0.36213  1.0000
  C   C141      1.0  0.63956  0.82352  0.36227  1.0000
  C   C142      1.0  0.66003  0.85918  0.36207  1.0000
  C   C143      1.0  0.69581  0.87525  0.36223  1.0000
  C   C144      1.0  0.71100  0.85478  0.36203  1.0000
  H   H118      1.0  0.64860  0.87357  0.36413  1.0000
  H   H119      1.0  0.73682  0.86621  0.36417  1.0000
  H   H120      1.0  0.64123  0.77799  0.36423  1.0000
  N   N19       1.0  0.70437  0.79800  0.36674  1.0000
  N   N20       1.0  0.60548  0.81044  0.36670  1.0000
  N   N21       1.0  0.71681  0.90933  0.36664  1.0000
  C   C145      1.0  0.82422  0.69075  0.36717  1.0000
  C   C146      1.0  0.85999  0.70810  0.36684  1.0000
  C   C147      1.0  0.87838  0.69060  0.36717  1.0000
  C   C148      1.0  0.85996  0.65483  0.36686  1.0000
  C   C149      1.0  0.82407  0.63644  0.36718  1.0000
  C   C150      1.0  0.80672  0.65486  0.36687  1.0000
  H   H121      1.0  0.87311  0.64211  0.36679  1.0000
  H   H122      1.0  0.78085  0.64171  0.36680  1.0000
  H   H123      1.0  0.87271  0.73397  0.36676  1.0000
  N   N22       1.0  0.80896  0.70992  0.36875  1.0000
  N   N23       1.0  0.91281  0.70586  0.36873  1.0000
  N   N24       1.0  0.80489  0.60201  0.36878  1.0000
  C   C151      1.0  0.76435  0.72540  0.37642  1.0000
  C   C152      1.0  0.72980  0.71609  0.39373  1.0000
  C   C153      1.0  0.72036  0.74173  0.40101  1.0000
  C   C154      1.0  0.70352  0.67927  0.40017  1.0000
  H   H124      1.0  0.70583  0.66547  0.34307  1.0000
  H   H125      1.0  0.67754  0.67423  0.39751  1.0000
  H   H126      1.0  0.70687  0.66868  0.46281  1.0000
  C   C155      1.0  0.68827  0.73408  0.44845  1.0000
  H   H127      1.0  0.69215  0.75509  0.49170  1.0000
  H   H128      1.0  0.67915  0.71254  0.49416  1.0000
  H   H129      1.0  0.66854  0.72905  0.39916  1.0000
  C   C156      1.0  0.77605  0.70172  0.37661  1.0000
  H   H130      1.0  0.75915  0.67688  0.38850  1.0000
  C   C157      1.0  0.78941  0.54191  0.37641  1.0000
  C   C158      1.0  0.79873  0.51668  0.39360  1.0000
  C   C159      1.0  0.77310  0.98159  0.40089  1.0000
  C   C160      1.0  0.83555  0.52720  0.39996  1.0000
  H   H131      1.0  0.84934  0.54333  0.34284  1.0000
  H   H132      1.0  0.84060  0.50628  0.39724  1.0000
  H   H133      1.0  0.84617  0.54115  0.46259  1.0000
  C   C161      1.0  0.78075  0.95715  0.44826  1.0000
  H   H134      1.0  0.75975  0.94002  0.49157  1.0000
  H   H135      1.0  0.80231  0.96955  0.49390  1.0000
  H   H136      1.0  0.78575  0.94243  0.39892  1.0000
  C   C162      1.0  0.81309  0.57730  0.37662  1.0000
  H   H137      1.0  0.83794  0.58523  0.38833  1.0000
  C   C163      1.0  0.97290  0.75047  0.37639  1.0000
  C   C164      1.0  0.99814  0.78502  0.39366  1.0000
  C   C165      1.0  0.53322  0.79446  0.40096  1.0000
  C   C166      1.0  0.98761  0.81131  0.40007  1.0000
  H   H138      1.0  0.97149  0.80898  0.34296  1.0000
  H   H139      1.0  0.00854  0.83728  0.39739  1.0000
  H   H140      1.0  0.97366  0.80796  0.46271  1.0000
  C   C167      1.0  0.55766  0.82655  0.44838  1.0000
  H   H141      1.0  0.57479  0.82268  0.49164  1.0000
  H   H142      1.0  0.54524  0.83568  0.49407  1.0000
  H   H143      1.0  0.57236  0.84628  0.39907  1.0000
  C   C168      1.0  0.93752  0.73877  0.37658  1.0000
  H   H144      1.0  0.92958  0.75567  0.38844  1.0000
