data_image0
_chemical_formula_structural       C4H2C4H2C4H2N6CNCNCNC18H12CNCNCNC18H12CNCNCNC18H12CNCNCNC18H12N6C4H2C4H2C4H2
_chemical_formula_sum              "C108 H60 N24"
_cell_length_a       44.8259
_cell_length_b       44.8258
_cell_length_c       15.033
_cell_angle_alpha    90
_cell_angle_beta     90
_cell_angle_gamma    120

_space_group_name_H-M_alt    "P 1"
_space_group_IT_number       1

loop_
  _space_group_symop_operation_xyz
  'x, y, z'

loop_
  _atom_site_type_symbol
  _atom_site_label
  _atom_site_symmetry_multiplicity
  _atom_site_fract_x
  _atom_site_fract_y
  _atom_site_fract_z
  _atom_site_occupancy
  C   C1        1.0  0.17278  0.07812  0.33857  1.0000
  C   C2        1.0  0.19223  0.06619  0.29224  1.0000
  C   C3        1.0  0.22826  0.08404  0.29994  1.0000
  C   C4        1.0  0.24476  0.11378  0.35394  1.0000
  H   H1        1.0  0.24209  0.07566  0.26428  1.0000
  H   H2        1.0  0.18067  0.04519  0.25130  1.0000
  C   C5        1.0  0.90703  0.09409  0.33834  1.0000
  C   C6        1.0  0.91898  0.12549  0.29212  1.0000
  C   C7        1.0  0.90114  0.14368  0.29983  1.0000
  C   C8        1.0  0.87137  0.13042  0.35373  1.0000
  H   H3        1.0  0.90954  0.16592  0.26425  1.0000
  H   H4        1.0  0.94001  0.13496  0.25127  1.0000
  C   C9        1.0  0.89105  0.81237  0.33835  1.0000
  C   C10       1.0  0.85967  0.79293  0.29206  1.0000
  C   C11       1.0  0.84148  0.75690  0.29981  1.0000
  C   C12       1.0  0.85472  0.74039  0.35380  1.0000
  H   H5        1.0  0.81926  0.74305  0.26419  1.0000
  H   H6        1.0  0.85022  0.80448  0.25113  1.0000
  N   N1        1.0  0.54927  0.13943  0.23181  1.0000
  N   N2        1.0  0.57807  0.13884  0.23074  1.0000
  N   N3        1.0  0.84576  0.40932  0.23190  1.0000
  N   N4        1.0  0.84635  0.43871  0.23084  1.0000
  N   N5        1.0  0.57586  0.43590  0.23182  1.0000
  N   N6        1.0  0.54648  0.40710  0.23074  1.0000
  C   C13       1.0  0.97105  0.95941  0.33125  1.0000
  N   N7        1.0  0.00603  0.97617  0.33137  1.0000
  C   C14       1.0  0.02575  0.01108  0.33134  1.0000
  N   N8        1.0  0.00898  0.02930  0.33140  1.0000
  C   C15       1.0  0.97407  0.01411  0.33128  1.0000
  N   N9        1.0  0.95585  0.97912  0.33130  1.0000
  C   C16       1.0  0.06238  0.02782  0.33218  1.0000
  C   C17       1.0  0.07964  0.00870  0.32598  1.0000
  C   C18       1.0  0.11578  0.02511  0.32743  1.0000
  C   C19       1.0  0.13618  0.06133  0.33539  1.0000
  C   C20       1.0  0.11901  0.08048  0.34237  1.0000
  C   C21       1.0  0.08284  0.06407  0.34018  1.0000
  C   C22       1.0  0.95115  0.92277  0.33200  1.0000
  C   C23       1.0  0.96694  0.90231  0.33994  1.0000
  C   C24       1.0  0.94718  0.86615  0.34212  1.0000
  C   C25       1.0  0.91086  0.84897  0.33515  1.0000
  C   C26       1.0  0.89504  0.86938  0.32721  1.0000
  C   C27       1.0  0.91477  0.90552  0.32581  1.0000
  C   C28       1.0  0.95734  0.03400  0.33205  1.0000
  C   C29       1.0  0.92107  0.01820  0.33990  1.0000
  C   C30       1.0  0.90466  0.03796  0.34204  1.0000
  C   C31       1.0  0.92381  0.07428  0.33517  1.0000
  C   C32       1.0  0.96004  0.09011  0.32734  1.0000
  C   C33       1.0  0.97646  0.07038  0.32596  1.0000
  H   H7        1.0  0.95978  0.85246  0.34762  1.0000
  H   H8        1.0  0.99313  0.91345  0.34505  1.0000
  H   H9        1.0  0.86881  0.85823  0.32468  1.0000
  H   H10       1.0  0.90201  0.91902  0.32051  1.0000
  H   H11       1.0  0.90603  0.99202  0.34490  1.0000
  H   H12       1.0  0.87839  0.02536  0.34746  1.0000
  H   H13       1.0  0.00274  0.08315  0.32076  1.0000
  H   H14       1.0  0.97513  0.11634  0.32491  1.0000
  H   H15       1.0  0.07170  0.07911  0.34529  1.0000
  H   H16       1.0  0.13268  0.10675  0.34791  1.0000
  H   H17       1.0  0.12692  0.01003  0.32486  1.0000
  H   H18       1.0  0.06613  0.98242  0.32063  1.0000
  C   C34       1.0  0.44431  0.19480  0.32835  1.0000
  N   N10       1.0  0.41021  0.17739  0.34793  1.0000
  C   C35       1.0  0.39129  0.19337  0.35667  1.0000
  N   N11       1.0  0.40784  0.22819  0.34511  1.0000
  C   C36       1.0  0.44193  0.24667  0.32518  1.0000
  N   N12       1.0  0.45942  0.22935  0.31667  1.0000
  C   C37       1.0  0.35485  0.17366  0.36721  1.0000
  C   C38       1.0  0.33757  0.13717  0.36796  1.0000
  C   C39       1.0  0.30146  0.11749  0.36580  1.0000
  C   C40       1.0  0.28113  0.13348  0.36360  1.0000
  C   C41       1.0  0.29816  0.16984  0.36852  1.0000
  C   C42       1.0  0.33436  0.18956  0.36969  1.0000
  C   C43       1.0  0.46369  0.17791  0.31805  1.0000
  C   C44       1.0  0.45592  0.14787  0.36686  1.0000
  C   C45       1.0  0.47746  0.13336  0.36201  1.0000
  C   C46       1.0  0.50669  0.14771  0.30579  1.0000
  C   C47       1.0  0.51338  0.17678  0.25394  1.0000
  C   C48       1.0  0.49251  0.19179  0.26061  1.0000
  C   C49       1.0  0.45954  0.28281  0.31225  1.0000
  C   C50       1.0  0.48696  0.29807  0.25061  1.0000
  C   C51       1.0  0.50762  0.33398  0.24452  1.0000
  C   C52       1.0  0.50216  0.35607  0.30110  1.0000
  C   C53       1.0  0.47370  0.34080  0.35997  1.0000
  C   C54       1.0  0.45233  0.30470  0.36449  1.0000
  H   H19       1.0  0.47194  0.11254  0.40112  1.0000
  H   H20       1.0  0.43558  0.13735  0.41015  1.0000
  H   H21       1.0  0.53480  0.18873  0.21435  1.0000
  H   H22       1.0  0.49905  0.21342  0.22379  1.0000
  H   H23       1.0  0.49301  0.28317  0.21137  1.0000
  H   H24       1.0  0.52836  0.34358  0.20253  1.0000
  H   H25       1.0  0.43314  0.29456  0.41113  1.0000
  H   H26       1.0  0.46900  0.35579  0.40252  1.0000
  H   H27       1.0  0.34550  0.21581  0.36881  1.0000
  H   H28       1.0  0.28444  0.18246  0.36630  1.0000
  H   H29       1.0  0.29023  0.09122  0.36465  1.0000
  H   H30       1.0  0.35101  0.12427  0.36627  1.0000
  C   C55       1.0  0.79035  0.24896  0.32836  1.0000
  N   N13       1.0  0.80777  0.23227  0.34787  1.0000
  C   C56       1.0  0.79179  0.19738  0.35655  1.0000
  N   N14       1.0  0.75696  0.17910  0.34505  1.0000
  C   C57       1.0  0.73849  0.19472  0.32520  1.0000
  N   N15       1.0  0.75580  0.22953  0.31671  1.0000
  C   C58       1.0  0.81150  0.18064  0.36705  1.0000
  C   C59       1.0  0.84798  0.19984  0.36781  1.0000
  C   C60       1.0  0.86766  0.18341  0.36571  1.0000
  C   C61       1.0  0.85167  0.14709  0.36335  1.0000
  C   C62       1.0  0.81531  0.12776  0.36813  1.0000
  C   C63       1.0  0.79559  0.14424  0.36940  1.0000
  C   C64       1.0  0.80725  0.28524  0.31807  1.0000
  C   C65       1.0  0.83730  0.30751  0.36685  1.0000
  C   C66       1.0  0.85178  0.34355  0.36211  1.0000
  C   C67       1.0  0.83742  0.35843  0.30590  1.0000
  C   C68       1.0  0.80841  0.33606  0.25389  1.0000
  C   C69       1.0  0.79338  0.30018  0.26057  1.0000
  C   C70       1.0  0.70235  0.17619  0.31227  1.0000
  C   C71       1.0  0.68708  0.18836  0.25067  1.0000
  C   C72       1.0  0.65117  0.17308  0.24449  1.0000
  C   C73       1.0  0.62908  0.14553  0.30106  1.0000
  C   C74       1.0  0.64436  0.13238  0.36001  1.0000
  C   C75       1.0  0.68046  0.14708  0.36448  1.0000
  H   H31       1.0  0.87257  0.35885  0.40132  1.0000
  H   H32       1.0  0.84776  0.29768  0.41034  1.0000
  H   H33       1.0  0.79647  0.34553  0.21423  1.0000
  H   H34       1.0  0.77178  0.28508  0.22367  1.0000
  H   H35       1.0  0.70198  0.20932  0.21143  1.0000
  H   H36       1.0  0.64158  0.18426  0.20259  1.0000
  H   H37       1.0  0.69059  0.13803  0.41114  1.0000
  H   H38       1.0  0.62936  0.11267  0.40251  1.0000
  H   H39       1.0  0.76934  0.12913  0.36844  1.0000
  H   H40       1.0  0.80268  0.10142  0.36587  1.0000
  H   H41       1.0  0.89393  0.19844  0.36467  1.0000
  H   H42       1.0  0.86088  0.22618  0.36635  1.0000
  C   C76       1.0  0.73619  0.54085  0.32848  1.0000
  N   N16       1.0  0.75287  0.57495  0.34803  1.0000
  C   C77       1.0  0.78777  0.59386  0.35677  1.0000
  N   N17       1.0  0.80605  0.57731  0.34524  1.0000
  C   C78       1.0  0.79043  0.54322  0.32535  1.0000
  N   N18       1.0  0.75562  0.52573  0.31683  1.0000
  C   C79       1.0  0.80450  0.63031  0.36725  1.0000
  C   C80       1.0  0.78530  0.64759  0.36797  1.0000
  C   C81       1.0  0.80172  0.68370  0.36576  1.0000
  C   C82       1.0  0.83805  0.70402  0.36351  1.0000
  C   C83       1.0  0.85737  0.68700  0.36845  1.0000
  C   C84       1.0  0.84090  0.65080  0.36969  1.0000
  C   C85       1.0  0.69991  0.52146  0.31816  1.0000
  C   C86       1.0  0.67763  0.52923  0.36694  1.0000
  C   C87       1.0  0.64159  0.50770  0.36207  1.0000
  C   C88       1.0  0.62672  0.47847  0.30584  1.0000
  C   C89       1.0  0.64909  0.47177  0.25402  1.0000
  C   C90       1.0  0.68498  0.49264  0.26072  1.0000
  C   C91       1.0  0.80896  0.52561  0.31243  1.0000
  C   C92       1.0  0.79682  0.49820  0.25075  1.0000
  C   C93       1.0  0.81206  0.47754  0.24468  1.0000
  C   C94       1.0  0.83961  0.48301  0.30125  1.0000
  C   C95       1.0  0.85280  0.51146  0.36014  1.0000
  C   C96       1.0  0.83804  0.53280  0.36474  1.0000
  H   H43       1.0  0.62629  0.51322  0.40116  1.0000
  H   H44       1.0  0.68746  0.54957  0.41023  1.0000
  H   H45       1.0  0.63963  0.45036  0.21443  1.0000
  H   H46       1.0  0.70008  0.48611  0.22392  1.0000
  H   H47       1.0  0.77586  0.49214  0.21153  1.0000
  H   H48       1.0  0.80092  0.45680  0.20269  1.0000
  H   H49       1.0  0.84712  0.55202  0.41129  1.0000
  H   H50       1.0  0.87250  0.51616  0.40267  1.0000
  H   H51       1.0  0.85600  0.63966  0.36882  1.0000
  H   H52       1.0  0.88372  0.70072  0.36620  1.0000
  H   H53       1.0  0.78670  0.69494  0.36459  1.0000
  H   H54       1.0  0.75895  0.63415  0.36631  1.0000
  N   N19       1.0  0.22430  0.12399  0.39494  1.0000
  N   N20       1.0  0.19073  0.10728  0.38786  1.0000
  N   N21       1.0  0.86113  0.09973  0.39460  1.0000
  N   N22       1.0  0.87784  0.08285  0.38751  1.0000
  N   N23       1.0  0.88540  0.76086  0.39475  1.0000
  N   N24       1.0  0.90227  0.79443  0.38763  1.0000
  C   C97       1.0  0.59355  0.13570  0.30515  1.0000
  C   C98       1.0  0.57603  0.13127  0.38662  1.0000
  C   C99       1.0  0.54492  0.13187  0.38784  1.0000
  C   C100      1.0  0.53158  0.13688  0.30759  1.0000
  H   H55       1.0  0.53433  0.13227  0.44780  1.0000
  H   H56       1.0  0.58728  0.13133  0.44586  1.0000
  C   C101      1.0  0.84949  0.45734  0.30523  1.0000
  C   C102      1.0  0.85387  0.44420  0.38670  1.0000
  C   C103      1.0  0.85327  0.41250  0.38791  1.0000
  C   C104      1.0  0.84829  0.39416  0.30765  1.0000
  H   H57       1.0  0.85284  0.40149  0.44787  1.0000
  H   H58       1.0  0.85379  0.45538  0.44595  1.0000
  C   C105      1.0  0.52783  0.39160  0.30511  1.0000
  C   C106      1.0  0.54094  0.40912  0.38659  1.0000
  C   C107      1.0  0.57264  0.44024  0.38785  1.0000
  C   C108      1.0  0.59099  0.45358  0.30761  1.0000
  H   H59       1.0  0.58363  0.45082  0.44782  1.0000
  H   H60       1.0  0.52974  0.39787  0.44582  1.0000
