data_image0
_chemical_formula_structural       C2H2C4H2C2H2C4H2C2H2C4H2C6H4C6H4C6H4C24H15C24H15C24H15C24H15C6H4C6H4C6H4C2H2C4H2C2H2C4H2C2H2C4H2
_chemical_formula_sum              "C168 H108"
_cell_length_a       57.695
_cell_length_b       57.695
_cell_length_c       14.9465
_cell_angle_alpha    90
_cell_angle_beta     90
_cell_angle_gamma    120

_space_group_name_H-M_alt    "P 1"
_space_group_IT_number       1

loop_
  _space_group_symop_operation_xyz
  'x, y, z'

loop_
  _atom_site_type_symbol
  _atom_site_label
  _atom_site_symmetry_multiplicity
  _atom_site_fract_x
  _atom_site_fract_y
  _atom_site_fract_z
  _atom_site_occupancy
  C   C1        1.0  0.24179  0.12768  0.26270  1.0000
  C   C2        1.0  0.26998  0.14160  0.26189  1.0000
  H   H1        1.0  0.23213  0.12798  0.20572  1.0000
  H   H2        1.0  0.27944  0.15056  0.20344  1.0000
  C   C3        1.0  0.19827  0.09967  0.34065  1.0000
  C   C4        1.0  0.14036  0.07067  0.34178  1.0000
  C   C5        1.0  0.15510  0.07152  0.26476  1.0000
  C   C6        1.0  0.18328  0.08550  0.26436  1.0000
  H   H3        1.0  0.14545  0.06217  0.20700  1.0000
  H   H4        1.0  0.19275  0.08486  0.20735  1.0000
  C   C7        1.0  0.86594  0.11394  0.25671  1.0000
  C   C8        1.0  0.85193  0.12812  0.25715  1.0000
  H   H5        1.0  0.86518  0.10370  0.19990  1.0000
  H   H6        1.0  0.84242  0.12832  0.19964  1.0000
  C   C9        1.0  0.89475  0.09896  0.33224  1.0000
  C   C10       1.0  0.92380  0.07012  0.33150  1.0000
  C   C11       1.0  0.92248  0.08375  0.25451  1.0000
  C   C12       1.0  0.90842  0.09789  0.25497  1.0000
  H   H7        1.0  0.93146  0.08324  0.19614  1.0000
  H   H8        1.0  0.90864  0.10777  0.19788  1.0000
  C   C13       1.0  0.86695  0.75271  0.25930  1.0000
  C   C14       1.0  0.85296  0.72453  0.25871  1.0000
  H   H9        1.0  0.86659  0.76237  0.20239  1.0000
  H   H10       1.0  0.84386  0.71503  0.20046  1.0000
  C   C15       1.0  0.89519  0.79625  0.33685  1.0000
  C   C16       1.0  0.92419  0.85413  0.33762  1.0000
  C   C17       1.0  0.92343  0.83937  0.26080  1.0000
  C   C18       1.0  0.90941  0.81118  0.26056  1.0000
  H   H11       1.0  0.93284  0.84901  0.20309  1.0000
  H   H12       1.0  0.91005  0.80166  0.20367  1.0000
  C   C19       1.0  0.51415  0.15773  0.31975  1.0000
  C   C20       1.0  0.53039  0.16037  0.24494  1.0000
  C   C21       1.0  0.55298  0.15727  0.25289  1.0000
  C   C22       1.0  0.56011  0.15043  0.33545  1.0000
  C   C23       1.0  0.59796  0.14578  0.27371  1.0000
  C   C24       1.0  0.62431  0.15046  0.28060  1.0000
  H   H13       1.0  0.58851  0.13935  0.21341  1.0000
  H   H14       1.0  0.63301  0.14828  0.22404  1.0000
  H   H15       1.0  0.52673  0.16586  0.18384  1.0000
  H   H16       1.0  0.56505  0.16179  0.19801  1.0000
  C   C25       1.0  0.83720  0.35663  0.31919  1.0000
  C   C26       1.0  0.82630  0.36480  0.24958  1.0000
  C   C27       1.0  0.82922  0.39053  0.24966  1.0000
  C   C28       1.0  0.84342  0.40923  0.31854  1.0000
  C   C29       1.0  0.84389  0.44851  0.24669  1.0000
  C   C30       1.0  0.84008  0.47076  0.25206  1.0000
  H   H17       1.0  0.84607  0.44236  0.18464  1.0000
  H   H18       1.0  0.83875  0.47922  0.19354  1.0000
  H   H19       1.0  0.81450  0.35148  0.20146  1.0000
  H   H20       1.0  0.81927  0.39473  0.20148  1.0000
  C   C31       1.0  0.63740  0.48144  0.35959  1.0000
  C   C32       1.0  0.62228  0.47552  0.27967  1.0000
  C   C33       1.0  0.59600  0.45366  0.27428  1.0000
  C   C34       1.0  0.58365  0.43607  0.34758  1.0000
  C   C35       1.0  0.55151  0.39687  0.25649  1.0000
  C   C36       1.0  0.52925  0.37095  0.24985  1.0000
  H   H21       1.0  0.56324  0.40445  0.20088  1.0000
  H   H22       1.0  0.52547  0.36164  0.18899  1.0000
  H   H23       1.0  0.63076  0.48607  0.22235  1.0000
  H   H24       1.0  0.58637  0.45019  0.21416  1.0000
  C   C37       1.0  0.98174  0.01259  0.33334  1.0000
  C   C38       1.0  0.01009  0.02628  0.33709  1.0000
  C   C39       1.0  0.02485  0.01271  0.34128  1.0000
  C   C40       1.0  0.01013  0.98436  0.34312  1.0000
  C   C41       1.0  0.98183  0.96957  0.33790  1.0000
  C   C42       1.0  0.96821  0.98424  0.33233  1.0000
  C   C43       1.0  0.05366  0.02707  0.34272  1.0000
  C   C44       1.0  0.06846  0.05141  0.39028  1.0000
  C   C45       1.0  0.09665  0.06564  0.38976  1.0000
  C   C46       1.0  0.11155  0.05616  0.34236  1.0000
  C   C47       1.0  0.09672  0.03171  0.29535  1.0000
  C   C48       1.0  0.06854  0.01763  0.29507  1.0000
  C   C49       1.0  0.96719  0.02684  0.33151  1.0000
  C   C50       1.0  0.97650  0.05097  0.28289  1.0000
  C   C51       1.0  0.96242  0.06508  0.28300  1.0000
  C   C52       1.0  0.93819  0.05571  0.33118  1.0000
  C   C53       1.0  0.92880  0.03147  0.37928  1.0000
  C   C54       1.0  0.94300  0.01749  0.37988  1.0000
  C   C55       1.0  0.96749  0.94078  0.33808  1.0000
  C   C56       1.0  0.94293  0.92594  0.38442  1.0000
  C   C57       1.0  0.92880  0.89775  0.38403  1.0000
  C   C58       1.0  0.93861  0.88293  0.33792  1.0000
  C   C59       1.0  0.96325  0.89780  0.29199  1.0000
  C   C60       1.0  0.97727  0.92599  0.29177  1.0000
  H   H25       1.0  0.97046  0.08270  0.24830  1.0000
  H   H26       1.0  0.99364  0.05849  0.24569  1.0000
  H   H27       1.0  0.91119  0.02343  0.41408  1.0000
  H   H28       1.0  0.93555  0.00046  0.41763  1.0000
  H   H29       1.0  0.93510  0.93554  0.42018  1.0000
  H   H30       1.0  0.91090  0.88814  0.41711  1.0000
  H   H31       1.0  0.99468  0.93562  0.25592  1.0000
  H   H32       1.0  0.97157  0.88824  0.25879  1.0000
  H   H33       1.0  0.05898  0.00045  0.25805  1.0000
  H   H34       1.0  0.10630  0.02358  0.26116  1.0000
  H   H35       1.0  0.10620  0.08340  0.42368  1.0000
  H   H36       1.0  0.05883  0.05903  0.42695  1.0000
  H   H37       1.0  0.02027  0.04674  0.33675  1.0000
  H   H38       1.0  0.94785  0.97398  0.32493  1.0000
  H   H39       1.0  0.02030  0.97418  0.35079  1.0000
  C   C61       1.0  0.44351  0.24345  0.33492  1.0000
  C   C62       1.0  0.41522  0.22900  0.33700  1.0000
  C   C63       1.0  0.40043  0.20056  0.33596  1.0000
  C   C64       1.0  0.41502  0.18673  0.33149  1.0000
  C   C65       1.0  0.44331  0.20041  0.33043  1.0000
  C   C66       1.0  0.45692  0.22861  0.33606  1.0000
  C   C67       1.0  0.37164  0.18618  0.33643  1.0000
  C   C68       1.0  0.35670  0.19550  0.28856  1.0000
  C   C69       1.0  0.32852  0.18148  0.28969  1.0000
  C   C70       1.0  0.31378  0.15727  0.33801  1.0000
  C   C71       1.0  0.32874  0.14788  0.38551  1.0000
  C   C72       1.0  0.35693  0.16203  0.38505  1.0000
  C   C73       1.0  0.45886  0.27203  0.32751  1.0000
  C   C74       1.0  0.45359  0.28930  0.37983  1.0000
  C   C75       1.0  0.47084  0.31730  0.37724  1.0000
  C   C76       1.0  0.49405  0.32921  0.32242  1.0000
  C   C77       1.0  0.49852  0.31176  0.26779  1.0000
  C   C78       1.0  0.48115  0.28399  0.26913  1.0000
  C   C79       1.0  0.45852  0.18712  0.32054  1.0000
  C   C80       1.0  0.48098  0.19792  0.26284  1.0000
  C   C81       1.0  0.49861  0.18783  0.26155  1.0000
  C   C82       1.0  0.49425  0.16579  0.31546  1.0000
  C   C83       1.0  0.47080  0.15396  0.36909  1.0000
  C   C84       1.0  0.45328  0.16440  0.37176  1.0000
  H   H40       1.0  0.46645  0.32891  0.41754  1.0000
  H   H41       1.0  0.43786  0.28159  0.42363  1.0000
  H   H42       1.0  0.51528  0.31881  0.22887  1.0000
  H   H43       1.0  0.48563  0.27245  0.22860  1.0000
  H   H44       1.0  0.48552  0.21420  0.22366  1.0000
  H   H45       1.0  0.51553  0.19790  0.22358  1.0000
  H   H46       1.0  0.43745  0.15611  0.41517  1.0000
  H   H47       1.0  0.46650  0.13790  0.40894  1.0000
  H   H48       1.0  0.36664  0.15455  0.42198  1.0000
  H   H49       1.0  0.31925  0.13028  0.42034  1.0000
  H   H50       1.0  0.31887  0.18952  0.25538  1.0000
  H   H51       1.0  0.36620  0.21257  0.25093  1.0000
  H   H52       1.0  0.40527  0.23951  0.33814  1.0000
  H   H53       1.0  0.47739  0.23876  0.33966  1.0000
  H   H54       1.0  0.40492  0.16633  0.32516  1.0000
  C   C85       1.0  0.75280  0.20254  0.34908  1.0000
  C   C86       1.0  0.76681  0.18822  0.34530  1.0000
  C   C87       1.0  0.79509  0.20132  0.33582  1.0000
  C   C88       1.0  0.80929  0.22967  0.32951  1.0000
  C   C89       1.0  0.79603  0.24459  0.33434  1.0000
  C   C90       1.0  0.76794  0.23074  0.34239  1.0000
  C   C91       1.0  0.80904  0.18650  0.33521  1.0000
  C   C92       1.0  0.79871  0.16174  0.28975  1.0000
  C   C93       1.0  0.81246  0.14729  0.28944  1.0000
  C   C94       1.0  0.83725  0.15691  0.33428  1.0000
  C   C95       1.0  0.84755  0.18170  0.37965  1.0000
  C   C96       1.0  0.83374  0.19605  0.38047  1.0000
  C   C97       1.0  0.72432  0.18963  0.35954  1.0000
  C   C98       1.0  0.70667  0.16648  0.31028  1.0000
  C   C99       1.0  0.67874  0.15607  0.31305  1.0000
  C   C100      1.0  0.66722  0.16835  0.36483  1.0000
  C   C101      1.0  0.68500  0.19091  0.41656  1.0000
  C   C102      1.0  0.71275  0.20102  0.41507  1.0000
  C   C103      1.0  0.81007  0.27302  0.33450  1.0000
  C   C104      1.0  0.80742  0.28690  0.40817  1.0000
  C   C105      1.0  0.81767  0.31468  0.40444  1.0000
  C   C106      1.0  0.83049  0.32936  0.32633  1.0000
  C   C107      1.0  0.83367  0.31553  0.25341  1.0000
  C   C108      1.0  0.82383  0.28774  0.25770  1.0000
  H   H55       1.0  0.66691  0.13959  0.27494  1.0000
  H   H56       1.0  0.71406  0.15776  0.26809  1.0000
  H   H57       1.0  0.67820  0.20128  0.45309  1.0000
  H   H58       1.0  0.72456  0.21760  0.45290  1.0000
  H   H59       1.0  0.79702  0.27669  0.46398  1.0000
  H   H60       1.0  0.81410  0.32377  0.45726  1.0000
  H   H61       1.0  0.82533  0.27812  0.20236  1.0000
  H   H62       1.0  0.84250  0.32548  0.19544  1.0000
  H   H63       1.0  0.84192  0.21357  0.41583  1.0000
  H   H64       1.0  0.86559  0.18990  0.41188  1.0000
  H   H65       1.0  0.80381  0.12930  0.25682  1.0000
  H   H66       1.0  0.78111  0.15406  0.25501  1.0000
  H   H67       1.0  0.75624  0.16789  0.35343  1.0000
  H   H68       1.0  0.75832  0.24162  0.34242  1.0000
  H   H69       1.0  0.82967  0.23979  0.32240  1.0000
  C   C109      1.0  0.79377  0.55102  0.33376  1.0000
  C   C110      1.0  0.80771  0.57930  0.33129  1.0000
  C   C111      1.0  0.79413  0.59415  0.33428  1.0000
  C   C112      1.0  0.76575  0.57964  0.34052  1.0000
  C   C113      1.0  0.75106  0.55134  0.34194  1.0000
  C   C114      1.0  0.76554  0.53765  0.33508  1.0000
  C   C115      1.0  0.80861  0.62294  0.33434  1.0000
  C   C116      1.0  0.83298  0.63773  0.38173  1.0000
  C   C117      1.0  0.84710  0.66591  0.38173  1.0000
  C   C118      1.0  0.83748  0.68078  0.33495  1.0000
  C   C119      1.0  0.81306  0.66596  0.28776  1.0000
  C   C120      1.0  0.79904  0.63777  0.28717  1.0000
  C   C121      1.0  0.80693  0.53563  0.33936  1.0000
  C   C122      1.0  0.82789  0.53966  0.28087  1.0000
  C   C123      1.0  0.83815  0.52199  0.28117  1.0000
  C   C124      1.0  0.82799  0.49976  0.34012  1.0000
  C   C125      1.0  0.80776  0.49657  0.40089  1.0000
  C   C126      1.0  0.79771  0.51424  0.40121  1.0000
  C   C127      1.0  0.72261  0.53627  0.35330  1.0000
  C   C128      1.0  0.71108  0.51376  0.41077  1.0000
  C   C129      1.0  0.68332  0.49637  0.41378  1.0000
  C   C130      1.0  0.66549  0.50103  0.36185  1.0000
  C   C131      1.0  0.67702  0.52447  0.30818  1.0000
  C   C132      1.0  0.70499  0.54174  0.30385  1.0000
  H   H70       1.0  0.85285  0.52526  0.23625  1.0000
  H   H71       1.0  0.83494  0.55469  0.23441  1.0000
  H   H72       1.0  0.79896  0.48044  0.44298  1.0000
  H   H73       1.0  0.78270  0.51061  0.44537  1.0000
  H   H74       1.0  0.72291  0.50908  0.44889  1.0000
  H   H75       1.0  0.67653  0.47943  0.45162  1.0000
  H   H76       1.0  0.71242  0.55761  0.26061  1.0000
  H   H77       1.0  0.66514  0.52899  0.26979  1.0000
  H   H78       1.0  0.78174  0.62816  0.25075  1.0000
  H   H79       1.0  0.80486  0.67556  0.25404  1.0000
  H   H80       1.0  0.86484  0.67548  0.41575  1.0000
  H   H81       1.0  0.84062  0.62811  0.41836  1.0000
  H   H82       1.0  0.82817  0.58917  0.32864  1.0000
  H   H83       1.0  0.75519  0.51715  0.33231  1.0000
  H   H84       1.0  0.75556  0.58981  0.34806  1.0000
  C   C133      1.0  0.28498  0.14288  0.33871  1.0000
  C   C134      1.0  0.27027  0.12936  0.41621  1.0000
  C   C135      1.0  0.24208  0.11522  0.41674  1.0000
  C   C136      1.0  0.22708  0.11405  0.34006  1.0000
  C   C137      1.0  0.18354  0.09896  0.41749  1.0000
  C   C138      1.0  0.15534  0.08474  0.41817  1.0000
  H   H85       1.0  0.19320  0.10918  0.47412  1.0000
  H   H86       1.0  0.14587  0.08451  0.47629  1.0000
  H   H87       1.0  0.27996  0.12993  0.47420  1.0000
  H   H88       1.0  0.23262  0.10539  0.47414  1.0000
  C   C139      1.0  0.85140  0.14228  0.33386  1.0000
  C   C140      1.0  0.86562  0.14152  0.41007  1.0000
  C   C141      1.0  0.87980  0.12752  0.40938  1.0000
  C   C142      1.0  0.88031  0.11332  0.33273  1.0000
  C   C143      1.0  0.89599  0.08525  0.40913  1.0000
  C   C144      1.0  0.91025  0.07133  0.40891  1.0000
  H   H89       1.0  0.88615  0.08491  0.46650  1.0000
  H   H90       1.0  0.91087  0.06232  0.46707  1.0000
  H   H91       1.0  0.86560  0.15097  0.46794  1.0000
  H   H92       1.0  0.89018  0.12823  0.46577  1.0000
  C   C145      1.0  0.85183  0.70957  0.33545  1.0000
  C   C146      1.0  0.86551  0.72431  0.41272  1.0000
  C   C147      1.0  0.87970  0.75250  0.41307  1.0000
  C   C148      1.0  0.88075  0.76745  0.33642  1.0000
  C   C149      1.0  0.89586  0.81102  0.41355  1.0000
  C   C150      1.0  0.91007  0.83921  0.41404  1.0000
  H   H93       1.0  0.88560  0.80138  0.47016  1.0000
  H   H94       1.0  0.91026  0.84873  0.47199  1.0000
  H   H95       1.0  0.86504  0.71464  0.47066  1.0000
  H   H96       1.0  0.88964  0.76199  0.47028  1.0000
  C   C151      1.0  0.54250  0.14555  0.40838  1.0000
  C   C152      1.0  0.52030  0.14939  0.40111  1.0000
  H   H97       1.0  0.54615  0.14004  0.46944  1.0000
  H   H98       1.0  0.50972  0.14764  0.45805  1.0000
  C   C153      1.0  0.58524  0.15096  0.34596  1.0000
  C   C154      1.0  0.63916  0.15997  0.36095  1.0000
  C   C155      1.0  0.62569  0.16308  0.43522  1.0000
  C   C156      1.0  0.59967  0.15915  0.42755  1.0000
  H   H99       1.0  0.63512  0.16942  0.49564  1.0000
  H   H100      1.0  0.59213  0.16395  0.48182  1.0000
  C   C157      1.0  0.85536  0.40127  0.38574  1.0000
  C   C158      1.0  0.85208  0.37540  0.38670  1.0000
  H   H101      1.0  0.86605  0.41403  0.43658  1.0000
  H   H102      1.0  0.86015  0.37015  0.43848  1.0000
  C   C159      1.0  0.84341  0.43410  0.32412  1.0000
  C   C160      1.0  0.83593  0.47984  0.33534  1.0000
  C   C161      1.0  0.83719  0.46648  0.41314  1.0000
  C   C162      1.0  0.84054  0.44400  0.40765  1.0000
  H   H103      1.0  0.83460  0.47233  0.47519  1.0000
  H   H104      1.0  0.83935  0.43410  0.46575  1.0000
  C   C163      1.0  0.59832  0.44296  0.42875  1.0000
  C   C164      1.0  0.62422  0.46530  0.43504  1.0000
  H   H105      1.0  0.59109  0.43093  0.48384  1.0000
  H   H106      1.0  0.63384  0.46881  0.49523  1.0000
  C   C165      1.0  0.55876  0.41113  0.33852  1.0000
  C   C166      1.0  0.51355  0.35732  0.32561  1.0000
  C   C167      1.0  0.51977  0.37204  0.40649  1.0000
  C   C168      1.0  0.54157  0.39835  0.41237  1.0000
  H   H107      1.0  0.50955  0.36323  0.46402  1.0000
  H   H108      1.0  0.54528  0.40767  0.47314  1.0000
