data_image0
_chemical_formula_structural       C8H7NC8H7NC8H7NC8H7NC8H7NC8H7NC4H3CH3CHC4H3CH3CHC4H3CH3CHC3H2CHC3H2CHC3H2CHC3H2CHC3H2CHC3H2CHC10H5C6H3N2C10H5C6H3N2C10H5C6H3N2C10H5C6H3N2C10H5C6H3N2C10H5C6H3N2C3H2CHC3H2CHC3H2CHC4H3CH3CHC4H3CH3CHC4H3CH3CHC4H3CH3CHC4H3CH3CHC4H3CH3CH
_chemical_formula_sum              "C234 H180 N18"
_cell_length_a       77.7643
_cell_length_b       77.7643
_cell_length_c       14.9075
_cell_angle_alpha    90
_cell_angle_beta     90
_cell_angle_gamma    120

_space_group_name_H-M_alt    "P 1"
_space_group_IT_number       1

loop_
  _space_group_symop_operation_xyz
  'x, y, z'

loop_
  _atom_site_type_symbol
  _atom_site_label
  _atom_site_symmetry_multiplicity
  _atom_site_fract_x
  _atom_site_fract_y
  _atom_site_fract_z
  _atom_site_occupancy
  C   C1        1.0  0.12211  0.56177  0.35178  1.0000
  C   C2        1.0  0.20054  0.54451  0.30526  1.0000
  C   C3        1.0  0.18634  0.55073  0.30727  1.0000
  C   C4        1.0  0.11159  0.54412  0.30076  1.0000
  C   C5        1.0  0.09065  0.53335  0.29894  1.0000
  C   C6        1.0  0.07934  0.53976  0.34783  1.0000
  C   C7        1.0  0.21132  0.65582  0.26829  1.0000
  C   C8        1.0  0.19680  0.63555  0.26702  1.0000
  H   H1        1.0  0.19975  0.53523  0.25495  1.0000
  H   H2        1.0  0.17581  0.54594  0.25784  1.0000
  H   H3        1.0  0.11911  0.53908  0.26273  1.0000
  H   H4        1.0  0.08367  0.52075  0.26073  1.0000
  H   H5        1.0  0.21980  0.66196  0.21228  1.0000
  H   H6        1.0  0.19517  0.62746  0.21022  1.0000
  H   H7        1.0  0.14618  0.60142  0.34261  1.0000
  N   N1        1.0  0.05950  0.52865  0.34308  1.0000
  C   C9        1.0  0.44599  0.56188  0.35170  1.0000
  C   C10       1.0  0.46320  0.65757  0.30519  1.0000
  C   C11       1.0  0.45699  0.63715  0.30713  1.0000
  C   C12       1.0  0.46364  0.56901  0.30069  1.0000
  C   C13       1.0  0.47441  0.55884  0.29886  1.0000
  C   C14       1.0  0.46800  0.54112  0.34778  1.0000
  C   C15       1.0  0.35196  0.55712  0.26844  1.0000
  C   C16       1.0  0.37223  0.56285  0.26717  1.0000
  H   H8        1.0  0.47248  0.66608  0.25488  1.0000
  H   H9        1.0  0.46180  0.63142  0.25772  1.0000
  H   H10       1.0  0.46867  0.58156  0.26259  1.0000
  H   H11       1.0  0.48701  0.56446  0.26062  1.0000
  H   H12       1.0  0.34583  0.55949  0.21247  1.0000
  H   H13       1.0  0.38032  0.56931  0.21039  1.0000
  H   H14       1.0  0.40634  0.54630  0.34261  1.0000
  N   N2        1.0  0.47911  0.53240  0.34304  1.0000
  C   C17       1.0  0.44586  0.88566  0.35180  1.0000
  C   C18       1.0  0.35019  0.80721  0.30515  1.0000
  C   C19       1.0  0.37061  0.82143  0.30725  1.0000
  C   C20       1.0  0.43874  0.89618  0.30074  1.0000
  C   C21       1.0  0.44890  0.91711  0.29888  1.0000
  C   C22       1.0  0.46662  0.92843  0.34783  1.0000
  C   C23       1.0  0.45063  0.79640  0.26857  1.0000
  C   C24       1.0  0.44492  0.81094  0.26724  1.0000
  H   H15       1.0  0.34170  0.80801  0.25487  1.0000
  H   H16       1.0  0.37635  0.83196  0.25780  1.0000
  H   H17       1.0  0.42619  0.88865  0.26261  1.0000
  H   H18       1.0  0.44329  0.92409  0.26060  1.0000
  H   H19       1.0  0.44822  0.78786  0.21267  1.0000
  H   H20       1.0  0.43838  0.81251  0.21059  1.0000
  H   H21       1.0  0.46145  0.86160  0.34273  1.0000
  N   N3        1.0  0.47534  0.94826  0.34305  1.0000
  C   C25       1.0  0.88728  0.44507  0.35005  1.0000
  C   C26       1.0  0.80850  0.46177  0.30526  1.0000
  C   C27       1.0  0.82278  0.45565  0.30709  1.0000
  C   C28       1.0  0.89768  0.46310  0.30149  1.0000
  C   C29       1.0  0.91861  0.47411  0.30007  1.0000
  C   C30       1.0  0.93003  0.46746  0.34638  1.0000
  C   C31       1.0  0.79822  0.35071  0.26597  1.0000
  C   C32       1.0  0.81273  0.37099  0.26450  1.0000
  H   H22       1.0  0.80928  0.47111  0.25525  1.0000
  H   H23       1.0  0.83338  0.46061  0.25794  1.0000
  H   H24       1.0  0.89009  0.46830  0.26510  1.0000
  H   H25       1.0  0.92551  0.48701  0.26390  1.0000
  H   H26       1.0  0.78964  0.34456  0.21022  1.0000
  H   H27       1.0  0.81424  0.37906  0.20783  1.0000
  H   H28       1.0  0.86339  0.40536  0.33954  1.0000
  N   N4        1.0  0.94985  0.47880  0.34326  1.0000
  C   C33       1.0  0.56269  0.44375  0.35005  1.0000
  C   C34       1.0  0.54593  0.34826  0.30501  1.0000
  C   C35       1.0  0.55206  0.36867  0.30692  1.0000
  C   C36       1.0  0.54466  0.43613  0.30143  1.0000
  C   C37       1.0  0.53366  0.44607  0.30000  1.0000
  C   C38       1.0  0.54031  0.46413  0.34629  1.0000
  C   C39       1.0  0.65703  0.44904  0.26609  1.0000
  C   C40       1.0  0.63675  0.44325  0.26465  1.0000
  H   H29       1.0  0.53654  0.33970  0.25510  1.0000
  H   H30       1.0  0.54710  0.37432  0.25782  1.0000
  H   H31       1.0  0.53946  0.42334  0.26502  1.0000
  H   H32       1.0  0.52076  0.44006  0.26379  1.0000
  H   H33       1.0  0.66319  0.44665  0.21026  1.0000
  H   H34       1.0  0.62868  0.43672  0.20794  1.0000
  H   H35       1.0  0.60239  0.45955  0.33969  1.0000
  N   N5        1.0  0.52897  0.47261  0.34318  1.0000
  C   C41       1.0  0.56399  0.12049  0.34999  1.0000
  C   C42       1.0  0.65948  0.19926  0.30502  1.0000
  C   C43       1.0  0.63908  0.18499  0.30685  1.0000
  C   C44       1.0  0.57161  0.11008  0.30139  1.0000
  C   C45       1.0  0.56168  0.08915  0.29993  1.0000
  C   C46       1.0  0.54361  0.07773  0.34625  1.0000
  C   C47       1.0  0.55875  0.20957  0.26626  1.0000
  C   C48       1.0  0.56452  0.19507  0.26486  1.0000
  H   H36       1.0  0.66805  0.19847  0.25511  1.0000
  H   H37       1.0  0.63343  0.17437  0.25778  1.0000
  H   H38       1.0  0.58440  0.11768  0.26493  1.0000
  H   H39       1.0  0.56768  0.08226  0.26371  1.0000
  H   H40       1.0  0.56115  0.21812  0.21042  1.0000
  H   H41       1.0  0.57104  0.19352  0.20814  1.0000
  H   H42       1.0  0.54819  0.14440  0.33975  1.0000
  N   N6        1.0  0.53514  0.05792  0.34316  1.0000
  C   C49       1.0  0.98384  0.48925  0.35050  1.0000
  C   C50       1.0  0.99411  0.49911  0.27022  1.0000
  C   C51       1.0  0.01498  0.51348  0.27374  1.0000
  C   C52       1.0  0.98334  0.49447  0.18228  1.0000
  H   H43       1.0  0.96782  0.48285  0.18561  1.0000
  H   H44       1.0  0.99043  0.48943  0.13405  1.0000
  H   H45       1.0  0.98365  0.50771  0.15598  1.0000
  C   C53       1.0  0.02559  0.52449  0.19048  1.0000
  H   H46       1.0  0.04119  0.53545  0.20046  1.0000
  H   H47       1.0  0.01854  0.53250  0.16356  1.0000
  H   H48       1.0  0.02505  0.51408  0.13998  1.0000
  C   C54       1.0  0.96385  0.47472  0.35469  1.0000
  H   H49       1.0  0.96053  0.46090  0.36881  1.0000
  C   C55       1.0  0.51854  0.49616  0.35044  1.0000
  C   C56       1.0  0.50865  0.49654  0.27020  1.0000
  C   C57       1.0  0.49428  0.50304  0.27374  1.0000
  C   C58       1.0  0.51329  0.49041  0.18225  1.0000
  H   H50       1.0  0.52492  0.48653  0.18556  1.0000
  H   H51       1.0  0.51830  0.50253  0.13398  1.0000
  H   H52       1.0  0.50004  0.47746  0.15603  1.0000
  C   C59       1.0  0.48325  0.50262  0.19052  1.0000
  H   H53       1.0  0.47228  0.50725  0.20051  1.0000
  H   H54       1.0  0.47525  0.48756  0.16364  1.0000
  H   H55       1.0  0.49365  0.51249  0.13997  1.0000
  C   C60       1.0  0.53306  0.49069  0.35461  1.0000
  H   H56       1.0  0.54688  0.50119  0.36872  1.0000
  C   C61       1.0  0.51160  0.02393  0.35044  1.0000
  C   C62       1.0  0.51120  0.01366  0.27019  1.0000
  C   C63       1.0  0.50469  0.99279  0.27374  1.0000
  C   C64       1.0  0.51732  0.02442  0.18224  1.0000
  H   H57       1.0  0.52122  0.03994  0.18554  1.0000
  H   H58       1.0  0.50520  0.01733  0.13400  1.0000
  H   H59       1.0  0.53026  0.02411  0.15597  1.0000
  C   C65       1.0  0.50511  0.98217  0.19050  1.0000
  H   H60       1.0  0.50047  0.96658  0.20050  1.0000
  H   H61       1.0  0.52016  0.98923  0.16359  1.0000
  H   H62       1.0  0.49523  0.98271  0.13998  1.0000
  C   C66       1.0  0.51706  0.04392  0.35461  1.0000
  H   H63       1.0  0.50656  0.04724  0.36870  1.0000
  C   C67       1.0  0.28979  0.53781  0.31537  1.0000
  C   C68       1.0  0.28445  0.54784  0.25226  1.0000
  C   C69       1.0  0.26624  0.54732  0.25803  1.0000
  H   H64       1.0  0.26281  0.55443  0.20935  1.0000
  H   H65       1.0  0.29364  0.55543  0.19970  1.0000
  C   C70       1.0  0.30771  0.53846  0.29932  1.0000
  H   H66       1.0  0.30958  0.53352  0.24057  1.0000
  C   C71       1.0  0.46993  0.75352  0.31553  1.0000
  C   C72       1.0  0.45982  0.73810  0.25271  1.0000
  C   C73       1.0  0.46034  0.72042  0.25857  1.0000
  H   H67       1.0  0.45320  0.70985  0.21002  1.0000
  H   H68       1.0  0.45221  0.73970  0.20019  1.0000
  C   C74       1.0  0.46928  0.77079  0.29939  1.0000
  H   H69       1.0  0.47416  0.77755  0.24050  1.0000
  C   C75       1.0  0.25422  0.71798  0.31537  1.0000
  C   C76       1.0  0.26959  0.72330  0.25224  1.0000
  C   C77       1.0  0.28728  0.74150  0.25796  1.0000
  H   H70       1.0  0.29782  0.74492  0.20926  1.0000
  H   H71       1.0  0.26796  0.71410  0.19968  1.0000
  C   C78       1.0  0.23694  0.70007  0.29933  1.0000
  H   H72       1.0  0.23013  0.69822  0.24060  1.0000
  C   C79       1.0  0.71918  0.46826  0.31418  1.0000
  C   C80       1.0  0.72453  0.45802  0.25224  1.0000
  C   C81       1.0  0.74273  0.45857  0.25880  1.0000
  H   H73       1.0  0.74620  0.45134  0.21081  1.0000
  H   H74       1.0  0.71535  0.45031  0.19982  1.0000
  C   C82       1.0  0.70127  0.46757  0.29735  1.0000
  H   H75       1.0  0.69942  0.47233  0.23808  1.0000
  C   C83       1.0  0.53945  0.25245  0.31400  1.0000
  C   C84       1.0  0.54959  0.26798  0.25169  1.0000
  C   C85       1.0  0.54903  0.28563  0.25807  1.0000
  H   H76       1.0  0.55621  0.29628  0.20989  1.0000
  H   H77       1.0  0.55728  0.26649  0.19922  1.0000
  C   C86       1.0  0.54015  0.23523  0.29737  1.0000
  H   H78       1.0  0.53534  0.22856  0.23825  1.0000
  C   C87       1.0  0.75530  0.28857  0.31408  1.0000
  C   C88       1.0  0.73972  0.28321  0.25203  1.0000
  C   C89       1.0  0.72207  0.26500  0.25858  1.0000
  H   H79       1.0  0.71139  0.26153  0.21053  1.0000
  H   H80       1.0  0.74119  0.29238  0.19957  1.0000
  C   C90       1.0  0.77251  0.30648  0.29727  1.0000
  H   H81       1.0  0.77915  0.30833  0.23808  1.0000
  C   C91       1.0  0.18774  0.56484  0.37101  1.0000
  C   C92       1.0  0.18569  0.62612  0.34485  1.0000
  C   C93       1.0  0.20324  0.57181  0.43507  1.0000
  C   C94       1.0  0.21738  0.56559  0.43308  1.0000
  C   C95       1.0  0.21644  0.55212  0.36740  1.0000
  C   C96       1.0  0.08974  0.55728  0.39958  1.0000
  C   C97       1.0  0.11066  0.56804  0.40131  1.0000
  C   C98       1.0  0.18945  0.63744  0.42404  1.0000
  C   C99       1.0  0.20417  0.65767  0.42548  1.0000
  C   C100      1.0  0.21528  0.66710  0.34781  1.0000
  H   H82       1.0  0.22888  0.57163  0.47801  1.0000
  H   H83       1.0  0.11750  0.58044  0.44086  1.0000
  H   H84       1.0  0.08221  0.56231  0.43734  1.0000
  H   H85       1.0  0.18251  0.63074  0.48276  1.0000
  H   H86       1.0  0.20727  0.66530  0.48474  1.0000
  C   C101      1.0  0.17483  0.60509  0.34952  1.0000
  C   C102      1.0  0.15388  0.59398  0.34895  1.0000
  C   C103      1.0  0.14347  0.57290  0.35323  1.0000
  C   C104      1.0  0.15488  0.56326  0.35950  1.0000
  C   C105      1.0  0.17590  0.57408  0.36322  1.0000
  C   C106      1.0  0.18555  0.59497  0.35680  1.0000
  H   H87       1.0  0.14781  0.54813  0.36511  1.0000
  H   H88       1.0  0.20077  0.60304  0.35706  1.0000
  H   H89       1.0  0.20489  0.58220  0.48162  1.0000
  N   N7        1.0  0.23058  0.68552  0.35500  1.0000
  N   N8        1.0  0.23172  0.54887  0.36392  1.0000
  C   C107      1.0  0.44292  0.62444  0.37098  1.0000
  C   C108      1.0  0.38164  0.56112  0.34497  1.0000
  C   C109      1.0  0.43597  0.63296  0.43518  1.0000
  C   C110      1.0  0.44214  0.65331  0.43312  1.0000
  C   C111      1.0  0.45561  0.66586  0.36747  1.0000
  C   C112      1.0  0.45049  0.53401  0.39954  1.0000
  C   C113      1.0  0.43972  0.54416  0.40123  1.0000
  C   C114      1.0  0.37031  0.55353  0.42410  1.0000
  C   C115      1.0  0.35008  0.54803  0.42554  1.0000
  C   C116      1.0  0.34068  0.54978  0.34794  1.0000
  H   H90       1.0  0.43610  0.65875  0.47810  1.0000
  H   H91       1.0  0.42733  0.53861  0.44083  1.0000
  H   H92       1.0  0.44546  0.52145  0.43734  1.0000
  H   H93       1.0  0.37700  0.55321  0.48271  1.0000
  H   H94       1.0  0.34243  0.54344  0.48471  1.0000
  C   C117      1.0  0.40267  0.57128  0.34942  1.0000
  C   C118      1.0  0.41378  0.56144  0.34885  1.0000
  C   C119      1.0  0.43486  0.57212  0.35313  1.0000
  C   C120      1.0  0.44450  0.59317  0.35940  1.0000
  C   C121      1.0  0.43369  0.60336  0.36314  1.0000
  C   C122      1.0  0.41280  0.59212  0.35675  1.0000
  H   H95       1.0  0.45964  0.60122  0.36500  1.0000
  H   H96       1.0  0.40472  0.59927  0.35708  1.0000
  H   H97       1.0  0.42556  0.62421  0.48166  1.0000
  N   N9        1.0  0.32225  0.54664  0.35506  1.0000
  N   N10       1.0  0.45880  0.68435  0.36390  1.0000
  C   C123      1.0  0.38332  0.82001  0.37095  1.0000
  C   C124      1.0  0.44666  0.82209  0.34504  1.0000
  C   C125      1.0  0.37478  0.80452  0.43505  1.0000
  C   C126      1.0  0.35442  0.79037  0.43301  1.0000
  C   C127      1.0  0.34190  0.79130  0.36725  1.0000
  C   C128      1.0  0.47372  0.91803  0.39966  1.0000
  C   C129      1.0  0.46357  0.89711  0.40138  1.0000
  C   C130      1.0  0.45428  0.81838  0.42412  1.0000
  C   C131      1.0  0.45982  0.80367  0.42554  1.0000
  C   C132      1.0  0.45801  0.79248  0.34802  1.0000
  H   H98       1.0  0.34897  0.77887  0.47793  1.0000
  H   H99       1.0  0.46913  0.89028  0.44097  1.0000
  H   H100      1.0  0.48629  0.92557  0.43744  1.0000
  H   H101      1.0  0.45461  0.82539  0.48272  1.0000
  H   H102      1.0  0.46440  0.80061  0.48474  1.0000
  C   C133      1.0  0.43648  0.83295  0.34953  1.0000
  C   C134      1.0  0.44632  0.85390  0.34902  1.0000
  C   C135      1.0  0.43563  0.86429  0.35322  1.0000
  C   C136      1.0  0.41458  0.85288  0.35935  1.0000
  C   C137      1.0  0.40439  0.83187  0.36315  1.0000
  C   C138      1.0  0.41564  0.82222  0.35681  1.0000
  H   H103      1.0  0.40652  0.85995  0.36504  1.0000
  H   H104      1.0  0.40850  0.80700  0.35712  1.0000
  H   H105      1.0  0.38352  0.80286  0.48158  1.0000
  N   N11       1.0  0.46115  0.77719  0.35520  1.0000
  N   N12       1.0  0.32338  0.77603  0.36377  1.0000
  C   C139      1.0  0.82137  0.44142  0.37018  1.0000
  C   C140      1.0  0.82392  0.38044  0.34213  1.0000
  C   C141      1.0  0.80576  0.43421  0.43374  1.0000
  C   C142      1.0  0.79152  0.44031  0.43185  1.0000
  C   C143      1.0  0.79249  0.45391  0.36684  1.0000
  C   C144      1.0  0.91979  0.44959  0.39576  1.0000
  C   C145      1.0  0.89887  0.43864  0.39736  1.0000
  C   C146      1.0  0.82028  0.36913  0.42127  1.0000
  C   C147      1.0  0.80558  0.34889  0.42292  1.0000
  C   C148      1.0  0.79434  0.33945  0.34553  1.0000
  H   H106      1.0  0.77995  0.43408  0.47632  1.0000
  H   H107      1.0  0.89216  0.42601  0.43545  1.0000
  H   H108      1.0  0.92748  0.44452  0.43223  1.0000
  H   H109      1.0  0.82727  0.37584  0.47988  1.0000
  H   H110      1.0  0.80254  0.34127  0.48219  1.0000
  C   C149      1.0  0.83466  0.40147  0.34694  1.0000
  C   C150      1.0  0.85561  0.41271  0.34643  1.0000
  C   C151      1.0  0.86590  0.43378  0.35148  1.0000
  C   C152      1.0  0.85435  0.44326  0.35849  1.0000
  C   C153      1.0  0.83333  0.43232  0.36197  1.0000
  C   C154      1.0  0.82382  0.41145  0.35483  1.0000
  H   H111      1.0  0.86131  0.45838  0.36485  1.0000
  H   H112      1.0  0.80860  0.40328  0.35503  1.0000
  H   H113      1.0  0.80409  0.42372  0.47978  1.0000
  N   N13       1.0  0.77906  0.32103  0.35302  1.0000
  N   N14       1.0  0.77714  0.45702  0.36313  1.0000
  C   C155      1.0  0.56629  0.38147  0.37002  1.0000
  C   C156      1.0  0.62730  0.44498  0.34229  1.0000
  C   C157      1.0  0.57348  0.37304  0.43359  1.0000
  C   C158      1.0  0.56735  0.35270  0.43168  1.0000
  C   C159      1.0  0.55374  0.34008  0.36663  1.0000
  C   C160      1.0  0.55818  0.47175  0.39573  1.0000
  C   C161      1.0  0.56912  0.46177  0.39740  1.0000
  C   C162      1.0  0.63861  0.45265  0.42144  1.0000
  C   C163      1.0  0.65885  0.45819  0.42305  1.0000
  C   C164      1.0  0.66830  0.45645  0.34560  1.0000
  H   H114      1.0  0.57355  0.34733  0.47619  1.0000
  H   H115      1.0  0.58173  0.46767  0.43553  1.0000
  H   H116      1.0  0.56324  0.48450  0.43227  1.0000
  H   H117      1.0  0.63190  0.45291  0.48006  1.0000
  H   H118      1.0  0.66647  0.46278  0.48231  1.0000
  C   C165      1.0  0.60627  0.43471  0.34709  1.0000
  C   C166      1.0  0.59504  0.44443  0.34652  1.0000
  C   C167      1.0  0.57396  0.43365  0.35152  1.0000
  C   C168      1.0  0.56447  0.41261  0.35850  1.0000
  C   C169      1.0  0.57541  0.40253  0.36197  1.0000
  C   C170      1.0  0.59628  0.41388  0.35491  1.0000
  H   H119      1.0  0.54936  0.40447  0.36475  1.0000
  H   H120      1.0  0.60444  0.40682  0.35510  1.0000
  H   H121      1.0  0.58397  0.38185  0.47968  1.0000
  N   N15       1.0  0.68673  0.45959  0.35313  1.0000
  N   N16       1.0  0.55058  0.32159  0.36302  1.0000
  C   C171      1.0  0.62627  0.18638  0.37008  1.0000
  C   C172      1.0  0.56276  0.18388  0.34253  1.0000
  C   C173      1.0  0.63469  0.20197  0.43378  1.0000
  C   C174      1.0  0.65502  0.21621  0.43180  1.0000
  C   C175      1.0  0.66765  0.21524  0.36678  1.0000
  C   C176      1.0  0.53599  0.08798  0.39569  1.0000
  C   C177      1.0  0.54597  0.10890  0.39732  1.0000
  C   C178      1.0  0.55511  0.18755  0.42163  1.0000
  C   C179      1.0  0.54957  0.20225  0.42321  1.0000
  C   C180      1.0  0.55135  0.21346  0.34577  1.0000
  H   H122      1.0  0.66038  0.22777  0.47636  1.0000
  H   H123      1.0  0.54008  0.11562  0.43552  1.0000
  H   H124      1.0  0.52325  0.08029  0.43227  1.0000
  H   H125      1.0  0.55478  0.18052  0.48020  1.0000
  H   H126      1.0  0.54494  0.20526  0.48240  1.0000
  C   C181      1.0  0.57303  0.17312  0.34711  1.0000
  C   C182      1.0  0.56331  0.15217  0.34649  1.0000
  C   C183      1.0  0.57409  0.14187  0.35147  1.0000
  C   C184      1.0  0.59513  0.15342  0.35845  1.0000
  C   C185      1.0  0.60521  0.17442  0.36199  1.0000
  C   C186      1.0  0.59386  0.18395  0.35497  1.0000
  H   H127      1.0  0.60327  0.14644  0.36468  1.0000
  H   H128      1.0  0.60092  0.19917  0.35524  1.0000
  H   H129      1.0  0.62587  0.20364  0.47981  1.0000
  N   N17       1.0  0.54819  0.22873  0.35315  1.0000
  N   N18       1.0  0.68612  0.23059  0.36308  1.0000
  C   C187      1.0  0.02545  0.51726  0.35684  1.0000
  C   C188      1.0  0.01495  0.50715  0.43465  1.0000
  C   C189      1.0  0.99459  0.49338  0.43146  1.0000
  H   H130      1.0  0.98765  0.48640  0.48987  1.0000
  H   H131      1.0  0.02204  0.50978  0.49532  1.0000
  C   C190      1.0  0.04532  0.53153  0.36868  1.0000
  H   H132      1.0  0.04833  0.54413  0.39876  1.0000
  C   C191      1.0  0.49051  0.50973  0.35684  1.0000
  C   C192      1.0  0.50063  0.50936  0.43463  1.0000
  C   C193      1.0  0.51441  0.50277  0.43141  1.0000
  H   H133      1.0  0.52140  0.50283  0.48980  1.0000
  H   H134      1.0  0.49801  0.51383  0.49530  1.0000
  C   C194      1.0  0.47624  0.51534  0.36870  1.0000
  H   H135      1.0  0.46365  0.50576  0.39884  1.0000
  C   C195      1.0  0.49801  0.98233  0.35685  1.0000
  C   C196      1.0  0.49839  0.99282  0.43463  1.0000
  C   C197      1.0  0.50498  0.01319  0.43141  1.0000
  H   H136      1.0  0.50493  0.02013  0.48981  1.0000
  H   H137      1.0  0.49392  0.98574  0.49531  1.0000
  C   C198      1.0  0.49240  0.96245  0.36871  1.0000
  H   H138      1.0  0.50198  0.95944  0.39892  1.0000
  C   C199      1.0  0.25281  0.53693  0.32789  1.0000
  C   C200      1.0  0.25790  0.52696  0.39406  1.0000
  C   C201      1.0  0.27644  0.52716  0.38707  1.0000
  C   C202      1.0  0.24391  0.51610  0.46967  1.0000
  H   H139      1.0  0.23060  0.51740  0.47043  1.0000
  H   H140      1.0  0.25136  0.52190  0.53377  1.0000
  H   H141      1.0  0.23900  0.50030  0.46585  1.0000
  C   C203      1.0  0.28127  0.51569  0.45333  1.0000
  H   H142      1.0  0.29507  0.51577  0.43993  1.0000
  H   H143      1.0  0.26959  0.50013  0.45332  1.0000
  H   H144      1.0  0.28250  0.52179  0.52046  1.0000
  C   C204      1.0  0.23455  0.53595  0.32317  1.0000
  H   H145      1.0  0.22408  0.52560  0.28458  1.0000
  C   C205      1.0  0.47078  0.71741  0.32831  1.0000
  C   C206      1.0  0.48084  0.73253  0.39419  1.0000
  C   C207      1.0  0.48064  0.75087  0.38708  1.0000
  C   C208      1.0  0.49175  0.72943  0.46965  1.0000
  H   H146      1.0  0.49042  0.71481  0.47056  1.0000
  H   H147      1.0  0.48602  0.73114  0.53383  1.0000
  H   H148      1.0  0.50755  0.74030  0.46549  1.0000
  C   C209      1.0  0.49218  0.76722  0.45305  1.0000
  H   H149      1.0  0.49210  0.78092  0.43956  1.0000
  H   H150      1.0  0.50774  0.77107  0.45279  1.0000
  H   H151      1.0  0.48614  0.76240  0.52032  1.0000
  C   C210      1.0  0.47178  0.70015  0.32358  1.0000
  H   H152      1.0  0.48227  0.70009  0.28578  1.0000
  C   C211      1.0  0.29034  0.75494  0.32780  1.0000
  C   C212      1.0  0.27528  0.74986  0.39400  1.0000
  C   C213      1.0  0.25693  0.73133  0.38706  1.0000
  C   C214      1.0  0.27843  0.76387  0.46957  1.0000
  H   H153      1.0  0.29304  0.77718  0.47027  1.0000
  H   H154      1.0  0.27679  0.75643  0.53368  1.0000
  H   H155      1.0  0.26754  0.76878  0.46577  1.0000
  C   C215      1.0  0.24064  0.72651  0.45336  1.0000
  H   H156      1.0  0.22693  0.71271  0.44003  1.0000
  H   H157      1.0  0.23678  0.73820  0.45334  1.0000
  H   H158      1.0  0.24553  0.72530  0.52050  1.0000
  C   C216      1.0  0.30762  0.77319  0.32301  1.0000
  H   H159      1.0  0.30775  0.78367  0.28445  1.0000
  C   C217      1.0  0.75614  0.46916  0.32841  1.0000
  C   C218      1.0  0.75104  0.47935  0.39346  1.0000
  C   C219      1.0  0.73251  0.47913  0.38559  1.0000
  C   C220      1.0  0.76500  0.49039  0.46890  1.0000
  H   H160      1.0  0.77827  0.48902  0.47056  1.0000
  H   H161      1.0  0.75750  0.48479  0.53307  1.0000
  H   H162      1.0  0.76998  0.50619  0.46396  1.0000
  C   C221      1.0  0.72768  0.49081  0.45062  1.0000
  H   H163      1.0  0.71391  0.49072  0.43649  1.0000
  H   H164      1.0  0.73939  0.50636  0.44994  1.0000
  H   H165      1.0  0.72640  0.48490  0.51820  1.0000
  C   C222      1.0  0.77444  0.47023  0.32428  1.0000
  H   H166      1.0  0.78517  0.48104  0.28839  1.0000
  C   C223      1.0  0.53850  0.28849  0.32780  1.0000
  C   C224      1.0  0.52842  0.27328  0.39325  1.0000
  C   C225      1.0  0.52865  0.25496  0.38558  1.0000
  C   C226      1.0  0.51745  0.27625  0.46885  1.0000
  H   H167      1.0  0.51878  0.29087  0.47029  1.0000
  H   H168      1.0  0.52313  0.27443  0.53295  1.0000
  H   H169      1.0  0.50165  0.26539  0.46436  1.0000
  C   C227      1.0  0.51706  0.23851  0.45101  1.0000
  H   H170      1.0  0.51715  0.22483  0.43703  1.0000
  H   H171      1.0  0.50151  0.23465  0.45065  1.0000
  H   H172      1.0  0.52305  0.24322  0.51842  1.0000
  C   C228      1.0  0.53744  0.30573  0.32364  1.0000
  H   H173      1.0  0.52679  0.30573  0.28684  1.0000
  C   C229      1.0  0.71924  0.25160  0.32826  1.0000
  C   C230      1.0  0.73451  0.25672  0.39340  1.0000
  C   C231      1.0  0.75282  0.27525  0.38556  1.0000
  C   C232      1.0  0.73158  0.24277  0.46891  1.0000
  H   H174      1.0  0.71694  0.22949  0.47053  1.0000
  H   H175      1.0  0.73346  0.25027  0.53305  1.0000
  H   H176      1.0  0.74241  0.23780  0.46408  1.0000
  C   C233      1.0  0.76932  0.28010  0.45069  1.0000
  H   H177      1.0  0.78300  0.29387  0.43657  1.0000
  H   H178      1.0  0.77316  0.26839  0.45012  1.0000
  H   H179      1.0  0.76467  0.28138  0.51822  1.0000
  C   C234      1.0  0.70201  0.23330  0.32411  1.0000
  H   H180      1.0  0.70208  0.22259  0.28808  1.0000
