data_image0
_chemical_formula_structural       C30H17NHNHNHC30H17NHNHNHC3H2C2H2CH2C3H2C2H2CH2C3H2C2H2CH10C7H3NH2CH2C7H3NH2CH2C7H3NH2CH2
_chemical_formula_sum              "C102 H87 N9"
_cell_length_a       52.3865
_cell_length_b       52.3865
_cell_length_c       14.9881
_cell_angle_alpha    90
_cell_angle_beta     90
_cell_angle_gamma    120

_space_group_name_H-M_alt    "P 1"
_space_group_IT_number       1

loop_
  _space_group_symop_operation_xyz
  'x, y, z'

loop_
  _atom_site_type_symbol
  _atom_site_label
  _atom_site_symmetry_multiplicity
  _atom_site_fract_x
  _atom_site_fract_y
  _atom_site_fract_z
  _atom_site_occupancy
  C   C1        1.0  0.16072  0.58167  0.34740  1.0000
  C   C2        1.0  0.17778  0.61125  0.31887  1.0000
  C   C3        1.0  0.20831  0.62387  0.30494  1.0000
  C   C4        1.0  0.22237  0.60718  0.31973  1.0000
  C   C5        1.0  0.20519  0.57749  0.34715  1.0000
  C   C6        1.0  0.17469  0.56496  0.36146  1.0000
  C   C7        1.0  0.25251  0.61944  0.30856  1.0000
  C   C8        1.0  0.27234  0.64208  0.35832  1.0000
  C   C9        1.0  0.30270  0.65416  0.35145  1.0000
  C   C10       1.0  0.31587  0.63626  0.35218  1.0000
  C   C11       1.0  0.34684  0.64875  0.35159  1.0000
  C   C12       1.0  0.36474  0.67981  0.35225  1.0000
  C   C13       1.0  0.35225  0.69830  0.35158  1.0000
  C   C14       1.0  0.32119  0.68513  0.35214  1.0000
  C   C15       1.0  0.37053  0.72866  0.35845  1.0000
  C   C16       1.0  0.36773  0.74849  0.30866  1.0000
  C   C17       1.0  0.38561  0.77863  0.31979  1.0000
  C   C18       1.0  0.37311  0.79581  0.34723  1.0000
  C   C19       1.0  0.41636  0.79268  0.30500  1.0000
  C   C20       1.0  0.43427  0.82322  0.31885  1.0000
  C   C21       1.0  0.42176  0.84028  0.34741  1.0000
  C   C22       1.0  0.39108  0.82631  0.36145  1.0000
  C   C23       1.0  0.35892  0.63047  0.35847  1.0000
  C   C24       1.0  0.38156  0.63328  0.30872  1.0000
  C   C25       1.0  0.39381  0.61539  0.31987  1.0000
  C   C26       1.0  0.37712  0.58464  0.30505  1.0000
  C   C27       1.0  0.42350  0.62789  0.34733  1.0000
  C   C28       1.0  0.43603  0.60992  0.36157  1.0000
  C   C29       1.0  0.41932  0.57924  0.34751  1.0000
  C   C30       1.0  0.38974  0.56673  0.31893  1.0000
  H   H1        1.0  0.16809  0.62382  0.30954  1.0000
  H   H2        1.0  0.22021  0.64542  0.28497  1.0000
  H   H3        1.0  0.31187  0.69829  0.35522  1.0000
  H   H4        1.0  0.30271  0.61379  0.35524  1.0000
  H   H5        1.0  0.38722  0.68913  0.35535  1.0000
  H   H6        1.0  0.35558  0.57500  0.28505  1.0000
  H   H7        1.0  0.35092  0.78620  0.35884  1.0000
  H   H8        1.0  0.45653  0.83289  0.30959  1.0000
  H   H9        1.0  0.42600  0.78077  0.28503  1.0000
  H   H10       1.0  0.37716  0.54447  0.30961  1.0000
  H   H11       1.0  0.43607  0.65007  0.35894  1.0000
  H   H12       1.0  0.35147  0.74163  0.26432  1.0000
  H   H13       1.0  0.38676  0.73593  0.40315  1.0000
  H   H14       1.0  0.25936  0.61001  0.26431  1.0000
  H   H15       1.0  0.26507  0.65105  0.40297  1.0000
  H   H16       1.0  0.39097  0.64954  0.26440  1.0000
  H   H17       1.0  0.34996  0.61423  0.40315  1.0000
  N   N1        1.0  0.43899  0.87073  0.36638  1.0000
  H   H18       1.0  0.45454  0.87371  0.41334  1.0000
  N   N2        1.0  0.13027  0.56845  0.36638  1.0000
  H   H19       1.0  0.12728  0.58101  0.41334  1.0000
  N   N3        1.0  0.43253  0.56201  0.36644  1.0000
  H   H20       1.0  0.41997  0.54645  0.41338  1.0000
  C   C31       1.0  0.84042  0.41401  0.33030  1.0000
  C   C32       1.0  0.82234  0.38742  0.37677  1.0000
  C   C33       1.0  0.79176  0.37617  0.38397  1.0000
  C   C34       1.0  0.77860  0.39127  0.34451  1.0000
  C   C35       1.0  0.79656  0.41785  0.29824  1.0000
  C   C36       1.0  0.82709  0.42889  0.29053  1.0000
  C   C37       1.0  0.74860  0.38042  0.35152  1.0000
  C   C38       1.0  0.72880  0.35767  0.30209  1.0000
  C   C39       1.0  0.69845  0.34613  0.30694  1.0000
  C   C40       1.0  0.68577  0.36447  0.30624  1.0000
  C   C41       1.0  0.65486  0.35252  0.30690  1.0000
  C   C42       1.0  0.63652  0.32150  0.30623  1.0000
  C   C43       1.0  0.64847  0.30254  0.30689  1.0000
  C   C44       1.0  0.67950  0.31523  0.30625  1.0000
  C   C45       1.0  0.62966  0.27219  0.30201  1.0000
  C   C46       1.0  0.63260  0.25239  0.35149  1.0000
  C   C47       1.0  0.61345  0.22239  0.34447  1.0000
  C   C48       1.0  0.62208  0.20444  0.29820  1.0000
  C   C49       1.0  0.58520  0.20924  0.38395  1.0000
  C   C50       1.0  0.56588  0.17866  0.37676  1.0000
  C   C51       1.0  0.57437  0.16058  0.33028  1.0000
  C   C52       1.0  0.60258  0.17391  0.29048  1.0000
  C   C53       1.0  0.64332  0.37133  0.30205  1.0000
  C   C54       1.0  0.62057  0.36838  0.35148  1.0000
  C   C55       1.0  0.60973  0.38753  0.34446  1.0000
  C   C56       1.0  0.62482  0.41579  0.38395  1.0000
  C   C57       1.0  0.58315  0.37892  0.29814  1.0000
  C   C58       1.0  0.57211  0.39841  0.29045  1.0000
  C   C59       1.0  0.58699  0.42661  0.33024  1.0000
  C   C60       1.0  0.61356  0.43511  0.37675  1.0000
  H   H21       1.0  0.83140  0.37613  0.40576  1.0000
  H   H22       1.0  0.77922  0.35689  0.41807  1.0000
  H   H23       1.0  0.68844  0.30173  0.30380  1.0000
  H   H24       1.0  0.69926  0.38691  0.30382  1.0000
  H   H25       1.0  0.61408  0.31255  0.30376  1.0000
  H   H26       1.0  0.64409  0.42252  0.41809  1.0000
  H   H27       1.0  0.64241  0.21346  0.26879  1.0000
  H   H28       1.0  0.54551  0.16959  0.40576  1.0000
  H   H29       1.0  0.57846  0.22177  0.41807  1.0000
  H   H30       1.0  0.62486  0.45547  0.40577  1.0000
  H   H31       1.0  0.57183  0.35858  0.26877  1.0000
  H   H32       1.0  0.64925  0.25907  0.39429  1.0000
  H   H33       1.0  0.61264  0.26491  0.26019  1.0000
  H   H34       1.0  0.74192  0.39039  0.39429  1.0000
  H   H35       1.0  0.73609  0.34793  0.26027  1.0000
  H   H36       1.0  0.61060  0.35173  0.39427  1.0000
  H   H37       1.0  0.65306  0.38836  0.26022  1.0000
  N   N4        1.0  0.55514  0.12974  0.31971  1.0000
  H   H38       1.0  0.53366  0.12454  0.32976  1.0000
  N   N5        1.0  0.87125  0.42561  0.31972  1.0000
  H   H39       1.0  0.87645  0.40933  0.32976  1.0000
  N   N6        1.0  0.57538  0.44584  0.31969  1.0000
  H   H40       1.0  0.59166  0.46732  0.32972  1.0000
  C   C61       1.0  0.45584  0.53349  0.30652  1.0000
  C   C62       1.0  0.47579  0.50293  0.25181  1.0000
  C   C63       1.0  0.45918  0.51689  0.23808  1.0000
  H   H41       1.0  0.47694  0.49042  0.20112  1.0000
  H   H42       1.0  0.44903  0.51439  0.17776  1.0000
  C   C64       1.0  0.54369  0.47859  0.29818  1.0000
  C   C65       1.0  0.52894  0.49467  0.28822  1.0000
  H   H43       1.0  0.56063  0.48305  0.25556  1.0000
  H   H44       1.0  0.53579  0.51045  0.23950  1.0000
  C   C66       1.0  0.43764  0.54756  0.28845  1.0000
  H   H45       1.0  0.41626  0.53070  0.26235  1.0000
  H   H46       1.0  0.44883  0.56403  0.23611  1.0000
  C   C67       1.0  0.46753  0.92256  0.30651  1.0000
  C   C68       1.0  0.49810  0.97308  0.25185  1.0000
  C   C69       1.0  0.48415  0.94251  0.23811  1.0000
  H   H47       1.0  0.51061  0.98673  0.20117  1.0000
  H   H48       1.0  0.48664  0.93485  0.17777  1.0000
  C   C70       1.0  0.52241  0.06530  0.29822  1.0000
  C   C71       1.0  0.50632  0.03446  0.28826  1.0000
  H   H49       1.0  0.51794  0.07779  0.25560  1.0000
  H   H50       1.0  0.49055  0.02554  0.23954  1.0000
  C   C72       1.0  0.45344  0.89029  0.28841  1.0000
  H   H51       1.0  0.47031  0.88577  0.26231  1.0000
  H   H52       1.0  0.43698  0.88502  0.23606  1.0000
  C   C73       1.0  0.07844  0.54515  0.30650  1.0000
  C   C74       1.0  0.02792  0.52519  0.25181  1.0000
  C   C75       1.0  0.05850  0.54180  0.23807  1.0000
  H   H53       1.0  0.01426  0.52404  0.20113  1.0000
  H   H54       1.0  0.06615  0.55195  0.17774  1.0000
  C   C76       1.0  0.93569  0.45730  0.29820  1.0000
  C   C77       1.0  0.96653  0.47205  0.28824  1.0000
  H   H55       1.0  0.92320  0.44035  0.25558  1.0000
  H   H56       1.0  0.97545  0.46519  0.23952  1.0000
  C   C78       1.0  0.11071  0.56334  0.28841  1.0000
  H   H57       1.0  0.11522  0.58472  0.26232  1.0000
  H   H58       1.0  0.11599  0.55215  0.23605  1.0000
  H   H59       1.0  0.16271  0.54360  0.38289  1.0000
  H   H60       1.0  0.21481  0.56493  0.35883  1.0000
  H   H61       1.0  0.38170  0.83829  0.38290  1.0000
  H   H62       1.0  0.45739  0.61930  0.38300  1.0000
  H   H63       1.0  0.83965  0.44796  0.25568  1.0000
  H   H64       1.0  0.78754  0.42917  0.26885  1.0000
  H   H65       1.0  0.60909  0.16134  0.25564  1.0000
  H   H66       1.0  0.55304  0.39190  0.25560  1.0000
  C   C79       1.0  0.47048  0.53634  0.38840  1.0000
  C   C80       1.0  0.48769  0.52278  0.40357  1.0000
  C   C81       1.0  0.48999  0.50538  0.33426  1.0000
  C   C82       1.0  0.50525  0.48944  0.34497  1.0000
  C   C83       1.0  0.49632  0.46724  0.41067  1.0000
  C   C84       1.0  0.51126  0.45135  0.42100  1.0000
  C   C85       1.0  0.53528  0.45681  0.36533  1.0000
  H   H67       1.0  0.47887  0.46248  0.45170  1.0000
  H   H68       1.0  0.50433  0.43556  0.46965  1.0000
  H   H69       1.0  0.46903  0.54896  0.43798  1.0000
  N   N7        1.0  0.50193  0.52763  0.48319  1.0000
  H   H70       1.0  0.50046  0.54007  0.52878  1.0000
  H   H71       1.0  0.51551  0.52051  0.49515  1.0000
  C   C86       1.0  0.55015  0.43917  0.37981  1.0000
  H   H72       1.0  0.53330  0.41598  0.37164  1.0000
  H   H73       1.0  0.55789  0.44235  0.44899  1.0000
  C   C87       1.0  0.46465  0.93433  0.38838  1.0000
  C   C88       1.0  0.47821  0.96511  0.40357  1.0000
  C   C89       1.0  0.49564  0.98482  0.33429  1.0000
  C   C90       1.0  0.51156  0.01601  0.34501  1.0000
  C   C91       1.0  0.53377  0.02929  0.41070  1.0000
  C   C92       1.0  0.54965  0.06011  0.42101  1.0000
  C   C93       1.0  0.54418  0.07867  0.36536  1.0000
  H   H74       1.0  0.53854  0.01660  0.45172  1.0000
  H   H75       1.0  0.56544  0.06897  0.46967  1.0000
  H   H76       1.0  0.45201  0.92026  0.43792  1.0000
  N   N8        1.0  0.47334  0.97450  0.48316  1.0000
  H   H77       1.0  0.46096  0.96059  0.52885  1.0000
  H   H78       1.0  0.48053  0.99520  0.49524  1.0000
  C   C94       1.0  0.56182  0.11119  0.37984  1.0000
  H   H79       1.0  0.58501  0.11753  0.37167  1.0000
  H   H80       1.0  0.55864  0.11573  0.44902  1.0000
  C   C95       1.0  0.06666  0.53051  0.38838  1.0000
  C   C96       1.0  0.03589  0.51330  0.40357  1.0000
  C   C97       1.0  0.01618  0.51100  0.33427  1.0000
  C   C98       1.0  0.98498  0.49574  0.34499  1.0000
  C   C99       1.0  0.97171  0.50467  0.41070  1.0000
  C   C100      1.0  0.94090  0.48973  0.42102  1.0000
  C   C101      1.0  0.92232  0.46571  0.36536  1.0000
  H   H81       1.0  0.98441  0.52212  0.45173  1.0000
  H   H82       1.0  0.93204  0.49666  0.46969  1.0000
  H   H83       1.0  0.08073  0.53196  0.43796  1.0000
  N   N9        1.0  0.02649  0.49905  0.48319  1.0000
  H   H84       1.0  0.04041  0.50053  0.52877  1.0000
  H   H85       1.0  0.00580  0.48548  0.49515  1.0000
  C   C102      1.0  0.88981  0.45084  0.37985  1.0000
  H   H86       1.0  0.88347  0.46769  0.37169  1.0000
  H   H87       1.0  0.88526  0.44311  0.44903  1.0000
