data_image0
_chemical_formula_structural       C2HC3H2C2O2CNC2N2HCNC2N2HC4H2C3HC2O2NC3N2HNC3N2HC2HC3H2C2O2CNC2N2HCNC2N2HC4H2C3HC2O2NC3N2HNC3N2HC2HC3H2C2O2CNC2N2HCNC2N2HC4H2C3HC2O2NC3N2HNC3N2HC2HC3H2C2O2CNC2N2HCNC2N2HC4H2C3HC2O2NC3N2HNC3N2H
_chemical_formula_sum              "C112 H40 O16 N48"
_cell_length_a       29.8954
_cell_length_b       29.8954
_cell_length_c       15.0318
_cell_angle_alpha    90
_cell_angle_beta     90
_cell_angle_gamma    90

_space_group_name_H-M_alt    "P 1"
_space_group_IT_number       1

loop_
  _space_group_symop_operation_xyz
  'x, y, z'

loop_
  _atom_site_type_symbol
  _atom_site_label
  _atom_site_symmetry_multiplicity
  _atom_site_fract_x
  _atom_site_fract_y
  _atom_site_fract_z
  _atom_site_occupancy
  C   C1        1.0  0.08399  0.46680  0.22955  1.0000
  C   C2        1.0  0.05357  0.49568  0.27301  1.0000
  H   H1        1.0  0.06092  0.02898  0.27224  1.0000
  C   C3        1.0  0.43497  0.00290  0.35715  1.0000
  C   C4        1.0  0.40429  0.03190  0.40020  1.0000
  C   C5        1.0  0.42226  0.07013  0.44286  1.0000
  H   H2        1.0  0.42273  0.47496  0.32709  1.0000
  H   H3        1.0  0.40061  0.09269  0.47049  1.0000
  C   C6        1.0  0.35693  0.02712  0.39502  1.0000
  C   C7        1.0  0.12882  0.47938  0.20970  1.0000
  O   O1        1.0  0.15202  0.45301  0.15245  1.0000
  O   O2        1.0  0.33212  0.05155  0.45307  1.0000
  C   C8        1.0  0.01133  0.19678  0.38534  1.0000
  N   N1        1.0  0.03259  0.26165  0.30324  1.0000
  C   C9        1.0  0.03742  0.21721  0.31767  1.0000
  C   C10       1.0  0.06448  0.19614  0.26435  1.0000
  N   N2        1.0  0.08823  0.17753  0.21714  1.0000
  N   N3        1.0  0.00971  0.15144  0.39839  1.0000
  H   H4        1.0  0.02754  0.13382  0.35750  1.0000
  C   C11       1.0  0.29014  0.00496  0.31051  1.0000
  N   N4        1.0  0.22533  0.98420  0.22737  1.0000
  C   C12       1.0  0.27003  0.98028  0.24045  1.0000
  C   C13       1.0  0.29117  0.95276  0.18829  1.0000
  N   N5        1.0  0.30982  0.92856  0.14205  1.0000
  N   N6        1.0  0.33489  0.00350  0.33035  1.0000
  H   H5        1.0  0.35313  0.98622  0.28975  1.0000
  C   C14       1.0  0.01195  0.48130  0.30843  1.0000
  C   C15       1.0  0.00325  0.43465  0.30259  1.0000
  C   C16       1.0  0.03227  0.40397  0.25958  1.0000
  C   C17       1.0  0.07050  0.42194  0.21691  1.0000
  H   H6        1.0  0.47528  0.42240  0.33255  1.0000
  H   H7        1.0  0.09306  0.40030  0.18927  1.0000
  C   C18       1.0  0.48163  0.01160  0.35134  1.0000
  C   C19       1.0  0.46713  0.08363  0.43029  1.0000
  C   C20       1.0  0.49601  0.05321  0.38683  1.0000
  H   H8        1.0  0.02930  0.06059  0.38752  1.0000
  C   C21       1.0  0.47971  0.12846  0.45002  1.0000
  C   C22       1.0  0.02745  0.35661  0.26469  1.0000
  O   O3        1.0  0.45323  0.15171  0.50702  1.0000
  O   O4        1.0  0.05189  0.33181  0.20662  1.0000
  N   N7        1.0  0.48451  0.22503  0.43234  1.0000
  C   C23       1.0  0.48062  0.26973  0.41929  1.0000
  C   C24       1.0  0.50528  0.28983  0.34917  1.0000
  C   C25       1.0  0.45314  0.29089  0.47151  1.0000
  N   N8        1.0  0.42897  0.30955  0.51780  1.0000
  N   N9        1.0  0.50383  0.33458  0.32937  1.0000
  H   H9        1.0  0.48659  0.35283  0.37002  1.0000
  N   N10       1.0  0.26197  0.53230  0.35642  1.0000
  C   C26       1.0  0.21752  0.53713  0.34199  1.0000
  C   C27       1.0  0.19708  0.51107  0.27428  1.0000
  C   C28       1.0  0.19648  0.56425  0.39522  1.0000
  N   N11       1.0  0.17788  0.58806  0.44234  1.0000
  N   N12       1.0  0.15174  0.50943  0.26131  1.0000
  H   H10       1.0  0.13414  0.52722  0.30229  1.0000
  C   C29       1.0  0.08399  0.96680  0.22955  1.0000
  C   C30       1.0  0.05357  0.99568  0.27301  1.0000
  H   H11       1.0  0.06092  0.52898  0.27224  1.0000
  C   C31       1.0  0.43497  0.50291  0.35715  1.0000
  C   C32       1.0  0.40429  0.53190  0.40020  1.0000
  C   C33       1.0  0.42226  0.57013  0.44286  1.0000
  H   H12       1.0  0.42273  0.97496  0.32709  1.0000
  H   H13       1.0  0.40061  0.59269  0.47049  1.0000
  C   C34       1.0  0.35693  0.52712  0.39502  1.0000
  C   C35       1.0  0.12882  0.97938  0.20970  1.0000
  O   O5        1.0  0.15202  0.95301  0.15245  1.0000
  O   O6        1.0  0.33212  0.55156  0.45307  1.0000
  C   C36       1.0  0.01133  0.69678  0.38534  1.0000
  N   N13       1.0  0.03259  0.76165  0.30324  1.0000
  C   C37       1.0  0.03742  0.71721  0.31767  1.0000
  C   C38       1.0  0.06448  0.69614  0.26435  1.0000
  N   N14       1.0  0.08823  0.67753  0.21714  1.0000
  N   N15       1.0  0.00971  0.65144  0.39839  1.0000
  H   H14       1.0  0.02754  0.63383  0.35750  1.0000
  C   C39       1.0  0.29014  0.50497  0.31051  1.0000
  N   N16       1.0  0.22533  0.48420  0.22737  1.0000
  C   C40       1.0  0.27003  0.48028  0.24045  1.0000
  C   C41       1.0  0.29117  0.45276  0.18829  1.0000
  N   N17       1.0  0.30982  0.42855  0.14205  1.0000
  N   N18       1.0  0.33489  0.50350  0.33035  1.0000
  H   H15       1.0  0.35313  0.48623  0.28975  1.0000
  C   C42       1.0  0.01195  0.98130  0.30843  1.0000
  C   C43       1.0  0.00325  0.93464  0.30259  1.0000
  C   C44       1.0  0.03227  0.90397  0.25958  1.0000
  C   C45       1.0  0.07050  0.92194  0.21691  1.0000
  H   H16       1.0  0.47528  0.92240  0.33255  1.0000
  H   H17       1.0  0.09306  0.90030  0.18927  1.0000
  C   C46       1.0  0.48163  0.51160  0.35134  1.0000
  C   C47       1.0  0.46713  0.58363  0.43029  1.0000
  C   C48       1.0  0.49601  0.55321  0.38683  1.0000
  H   H18       1.0  0.02930  0.56059  0.38752  1.0000
  C   C49       1.0  0.47971  0.62846  0.45002  1.0000
  C   C50       1.0  0.02745  0.85661  0.26469  1.0000
  O   O7        1.0  0.45323  0.65172  0.50702  1.0000
  O   O8        1.0  0.05189  0.83181  0.20662  1.0000
  N   N19       1.0  0.48451  0.72503  0.43234  1.0000
  C   C51       1.0  0.48062  0.76973  0.41929  1.0000
  C   C52       1.0  0.50528  0.78983  0.34917  1.0000
  C   C53       1.0  0.45314  0.79089  0.47151  1.0000
  N   N20       1.0  0.42897  0.80955  0.51780  1.0000
  N   N21       1.0  0.50383  0.83458  0.32937  1.0000
  H   H19       1.0  0.48659  0.85283  0.37002  1.0000
  N   N22       1.0  0.26197  0.03230  0.35642  1.0000
  C   C54       1.0  0.21752  0.03712  0.34199  1.0000
  C   C55       1.0  0.19708  0.01107  0.27428  1.0000
  C   C56       1.0  0.19648  0.06424  0.39522  1.0000
  N   N23       1.0  0.17788  0.08805  0.44234  1.0000
  N   N24       1.0  0.15174  0.00943  0.26131  1.0000
  H   H20       1.0  0.13414  0.02722  0.30229  1.0000
  C   C57       1.0  0.58399  0.46680  0.22955  1.0000
  C   C58       1.0  0.55357  0.49568  0.27301  1.0000
  H   H21       1.0  0.56092  0.02898  0.27224  1.0000
  C   C59       1.0  0.93498  0.00290  0.35715  1.0000
  C   C60       1.0  0.90429  0.03190  0.40020  1.0000
  C   C61       1.0  0.92226  0.07013  0.44286  1.0000
  H   H22       1.0  0.92273  0.47496  0.32709  1.0000
  H   H23       1.0  0.90061  0.09269  0.47049  1.0000
  C   C62       1.0  0.85693  0.02712  0.39502  1.0000
  C   C63       1.0  0.62882  0.47938  0.20970  1.0000
  O   O9        1.0  0.65202  0.45301  0.15245  1.0000
  O   O10       1.0  0.83212  0.05155  0.45307  1.0000
  C   C64       1.0  0.51133  0.19678  0.38534  1.0000
  N   N25       1.0  0.53259  0.26165  0.30324  1.0000
  C   C65       1.0  0.53742  0.21721  0.31767  1.0000
  C   C66       1.0  0.56448  0.19614  0.26435  1.0000
  N   N26       1.0  0.58823  0.17753  0.21714  1.0000
  N   N27       1.0  0.50971  0.15144  0.39839  1.0000
  H   H24       1.0  0.52754  0.13382  0.35750  1.0000
  C   C67       1.0  0.79014  0.00496  0.31051  1.0000
  N   N28       1.0  0.72533  0.98420  0.22737  1.0000
  C   C68       1.0  0.77003  0.98028  0.24045  1.0000
  C   C69       1.0  0.79117  0.95276  0.18829  1.0000
  N   N29       1.0  0.80982  0.92856  0.14205  1.0000
  N   N30       1.0  0.83489  0.00350  0.33035  1.0000
  H   H25       1.0  0.85313  0.98622  0.28975  1.0000
  C   C70       1.0  0.51195  0.48130  0.30843  1.0000
  C   C71       1.0  0.50325  0.43465  0.30259  1.0000
  C   C72       1.0  0.53227  0.40397  0.25958  1.0000
  C   C73       1.0  0.57049  0.42194  0.21691  1.0000
  H   H26       1.0  0.97528  0.42240  0.33255  1.0000
  H   H27       1.0  0.59306  0.40030  0.18927  1.0000
  C   C74       1.0  0.98163  0.01160  0.35134  1.0000
  C   C75       1.0  0.96713  0.08363  0.43029  1.0000
  C   C76       1.0  0.99601  0.05321  0.38683  1.0000
  H   H28       1.0  0.52930  0.06059  0.38752  1.0000
  C   C77       1.0  0.97971  0.12846  0.45002  1.0000
  C   C78       1.0  0.52746  0.35661  0.26469  1.0000
  O   O11       1.0  0.95324  0.15171  0.50702  1.0000
  O   O12       1.0  0.55189  0.33181  0.20662  1.0000
  N   N31       1.0  0.98451  0.22503  0.43234  1.0000
  C   C79       1.0  0.98062  0.26973  0.41929  1.0000
  C   C80       1.0  0.00528  0.28983  0.34917  1.0000
  C   C81       1.0  0.95314  0.29089  0.47151  1.0000
  N   N32       1.0  0.92897  0.30955  0.51780  1.0000
  N   N33       1.0  0.00383  0.33458  0.32937  1.0000
  H   H29       1.0  0.98659  0.35283  0.37002  1.0000
  N   N34       1.0  0.76197  0.53230  0.35642  1.0000
  C   C82       1.0  0.71752  0.53713  0.34199  1.0000
  C   C83       1.0  0.69709  0.51107  0.27428  1.0000
  C   C84       1.0  0.69648  0.56425  0.39522  1.0000
  N   N35       1.0  0.67788  0.58806  0.44234  1.0000
  N   N36       1.0  0.65173  0.50943  0.26131  1.0000
  H   H30       1.0  0.63414  0.52722  0.30229  1.0000
  C   C85       1.0  0.58399  0.96680  0.22955  1.0000
  C   C86       1.0  0.55357  0.99568  0.27301  1.0000
  H   H31       1.0  0.56092  0.52898  0.27224  1.0000
  C   C87       1.0  0.93498  0.50291  0.35715  1.0000
  C   C88       1.0  0.90429  0.53190  0.40020  1.0000
  C   C89       1.0  0.92226  0.57013  0.44286  1.0000
  H   H32       1.0  0.92273  0.97496  0.32709  1.0000
  H   H33       1.0  0.90061  0.59269  0.47049  1.0000
  C   C90       1.0  0.85693  0.52712  0.39502  1.0000
  C   C91       1.0  0.62882  0.97938  0.20970  1.0000
  O   O13       1.0  0.65202  0.95301  0.15245  1.0000
  O   O14       1.0  0.83212  0.55156  0.45307  1.0000
  C   C92       1.0  0.51133  0.69678  0.38534  1.0000
  N   N37       1.0  0.53259  0.76165  0.30324  1.0000
  C   C93       1.0  0.53742  0.71721  0.31767  1.0000
  C   C94       1.0  0.56448  0.69614  0.26435  1.0000
  N   N38       1.0  0.58823  0.67753  0.21714  1.0000
  N   N39       1.0  0.50971  0.65144  0.39839  1.0000
  H   H34       1.0  0.52754  0.63383  0.35750  1.0000
  C   C95       1.0  0.79014  0.50497  0.31051  1.0000
  N   N40       1.0  0.72533  0.48420  0.22737  1.0000
  C   C96       1.0  0.77003  0.48028  0.24045  1.0000
  C   C97       1.0  0.79117  0.45276  0.18829  1.0000
  N   N41       1.0  0.80982  0.42855  0.14205  1.0000
  N   N42       1.0  0.83489  0.50350  0.33035  1.0000
  H   H35       1.0  0.85313  0.48623  0.28975  1.0000
  C   C98       1.0  0.51195  0.98130  0.30843  1.0000
  C   C99       1.0  0.50325  0.93464  0.30259  1.0000
  C   C100      1.0  0.53227  0.90397  0.25958  1.0000
  C   C101      1.0  0.57049  0.92194  0.21691  1.0000
  H   H36       1.0  0.97528  0.92240  0.33255  1.0000
  H   H37       1.0  0.59306  0.90030  0.18927  1.0000
  C   C102      1.0  0.98163  0.51160  0.35134  1.0000
  C   C103      1.0  0.96713  0.58363  0.43029  1.0000
  C   C104      1.0  0.99601  0.55321  0.38683  1.0000
  H   H38       1.0  0.52930  0.56059  0.38752  1.0000
  C   C105      1.0  0.97971  0.62846  0.45002  1.0000
  C   C106      1.0  0.52746  0.85661  0.26469  1.0000
  O   O15       1.0  0.95324  0.65172  0.50702  1.0000
  O   O16       1.0  0.55189  0.83181  0.20662  1.0000
  N   N43       1.0  0.98451  0.72503  0.43234  1.0000
  C   C107      1.0  0.98062  0.76973  0.41929  1.0000
  C   C108      1.0  0.00528  0.78983  0.34917  1.0000
  C   C109      1.0  0.95314  0.79089  0.47151  1.0000
  N   N44       1.0  0.92897  0.80955  0.51780  1.0000
  N   N45       1.0  0.00383  0.83458  0.32937  1.0000
  H   H39       1.0  0.98659  0.85283  0.37002  1.0000
  N   N46       1.0  0.76197  0.03230  0.35642  1.0000
  C   C110      1.0  0.71752  0.03712  0.34199  1.0000
  C   C111      1.0  0.69709  0.01107  0.27428  1.0000
  C   C112      1.0  0.69648  0.06424  0.39522  1.0000
  N   N47       1.0  0.67788  0.08805  0.44234  1.0000
  N   N48       1.0  0.65173  0.00943  0.26131  1.0000
  H   H40       1.0  0.63414  0.02722  0.30229  1.0000
