data_image0
_chemical_formula_structural       CHCOCHC4OH3C6O2H4C6O2H4CNC4H2NH2CNC4H2NH2CNC4H2NH2CNC4H2NH2CNC4H2NH2CNC4H2NH2C3HOC2OC3HOC3OHC3HOC3OHC4HCNHNH2C4HCNHNH2C4HCNHNH2C4HCNHNH2C4HCNHNH2C4HCNHNH2
_chemical_formula_sum              "C96 H66 O12 N24"
_cell_length_a       31.749
_cell_length_b       31.7491
_cell_length_c       14.9256
_cell_angle_alpha    90
_cell_angle_beta     90
_cell_angle_gamma    120

_space_group_name_H-M_alt    "P 1"
_space_group_IT_number       1

loop_
  _space_group_symop_operation_xyz
  'x, y, z'

loop_
  _atom_site_type_symbol
  _atom_site_label
  _atom_site_symmetry_multiplicity
  _atom_site_fract_x
  _atom_site_fract_y
  _atom_site_fract_z
  _atom_site_occupancy
  C   C1        1.0  0.03070  0.51689  0.33600  1.0000
  H   H1        1.0  0.03223  0.59273  0.24087  1.0000
  C   C2        1.0  0.05878  0.56914  0.32724  1.0000
  O   O1        1.0  0.03936  0.59745  0.30543  1.0000
  C   C3        1.0  0.05943  0.49392  0.34633  1.0000
  H   H2        1.0  0.04391  0.45786  0.35876  1.0000
  C   C4        1.0  0.97674  0.48812  0.33604  1.0000
  C   C5        1.0  0.89734  0.40934  0.33869  1.0000
  C   C6        1.0  0.94865  0.43588  0.32719  1.0000
  C   C7        1.0  0.11011  0.59566  0.33856  1.0000
  O   O2        1.0  0.96808  0.40759  0.30516  1.0000
  H   H3        1.0  0.97517  0.41236  0.24060  1.0000
  H   H4        1.0  0.81011  0.39611  0.28253  1.0000
  H   H5        1.0  0.19726  0.60884  0.28192  1.0000
  C   C8        1.0  0.51804  0.48985  0.33606  1.0000
  C   C9        1.0  0.59678  0.48912  0.33882  1.0000
  C   C10       1.0  0.57030  0.51397  0.32740  1.0000
  C   C11       1.0  0.48930  0.51508  0.33605  1.0000
  C   C12       1.0  0.43704  0.49096  0.32733  1.0000
  C   C13       1.0  0.41054  0.51578  0.33878  1.0000
  O   O3        1.0  0.59869  0.56172  0.30577  1.0000
  O   O4        1.0  0.40867  0.44322  0.30560  1.0000
  H   H6        1.0  0.59408  0.56420  0.24120  1.0000
  H   H7        1.0  0.41334  0.44077  0.24103  1.0000
  H   H8        1.0  0.60993  0.41508  0.28256  1.0000
  H   H9        1.0  0.39739  0.58983  0.28253  1.0000
  C   C14       1.0  0.51636  0.02951  0.33612  1.0000
  C   C15       1.0  0.51697  0.10891  0.33881  1.0000
  C   C16       1.0  0.49218  0.05759  0.32740  1.0000
  C   C17       1.0  0.49118  0.97553  0.33610  1.0000
  C   C18       1.0  0.51537  0.94747  0.32731  1.0000
  C   C19       1.0  0.49060  0.89614  0.33871  1.0000
  O   O5        1.0  0.44443  0.03816  0.30569  1.0000
  O   O6        1.0  0.56309  0.96690  0.30540  1.0000
  H   H10       1.0  0.44199  0.03105  0.24113  1.0000
  H   H11       1.0  0.56546  0.97401  0.24084  1.0000
  H   H12       1.0  0.59097  0.19614  0.28255  1.0000
  H   H13       1.0  0.41663  0.80895  0.28226  1.0000
  C   C20       1.0  0.32708  0.47054  0.27629  1.0000
  N   N1        1.0  0.28227  0.46601  0.27832  1.0000
  C   C21       1.0  0.21957  0.48045  0.33199  1.0000
  C   C22       1.0  0.20984  0.49980  0.25325  1.0000
  C   C23       1.0  0.16754  0.50417  0.25258  1.0000
  C   C24       1.0  0.13786  0.49426  0.32921  1.0000
  H   H14       1.0  0.16203  0.52140  0.19959  1.0000
  H   H15       1.0  0.33916  0.46400  0.21734  1.0000
  N   N2        1.0  0.24048  0.51865  0.18181  1.0000
  H   H16       1.0  0.27275  0.52269  0.18163  1.0000
  H   H17       1.0  0.23273  0.53295  0.13121  1.0000
  C   C25       1.0  0.53590  0.85794  0.27619  1.0000
  N   N3        1.0  0.54041  0.81764  0.27837  1.0000
  C   C26       1.0  0.52589  0.74050  0.33221  1.0000
  C   C27       1.0  0.50647  0.71141  0.25350  1.0000
  C   C28       1.0  0.50196  0.66469  0.25295  1.0000
  C   C29       1.0  0.51198  0.64491  0.32942  1.0000
  H   H18       1.0  0.48488  0.64200  0.19980  1.0000
  H   H19       1.0  0.54243  0.87651  0.21719  1.0000
  N   N4        1.0  0.48767  0.72322  0.18200  1.0000
  H   H20       1.0  0.48370  0.75149  0.18175  1.0000
  H   H21       1.0  0.47331  0.70115  0.13146  1.0000
  C   C30       1.0  0.14851  0.67919  0.27601  1.0000
  N   N5        1.0  0.18879  0.72400  0.27824  1.0000
  C   C31       1.0  0.26592  0.78654  0.33227  1.0000
  C   C32       1.0  0.29502  0.79627  0.25356  1.0000
  C   C33       1.0  0.34166  0.83860  0.25292  1.0000
  C   C34       1.0  0.36142  0.86831  0.32949  1.0000
  H   H22       1.0  0.36433  0.84419  0.19974  1.0000
  H   H23       1.0  0.12976  0.66718  0.21716  1.0000
  N   N6        1.0  0.28317  0.76570  0.18198  1.0000
  H   H24       1.0  0.25517  0.73328  0.18224  1.0000
  H   H25       1.0  0.30537  0.77335  0.13168  1.0000
  C   C35       1.0  0.68029  0.53432  0.27652  1.0000
  N   N7        1.0  0.72511  0.53885  0.27873  1.0000
  C   C36       1.0  0.78774  0.52439  0.33268  1.0000
  C   C37       1.0  0.79747  0.50502  0.25398  1.0000
  C   C38       1.0  0.83982  0.50074  0.25328  1.0000
  C   C39       1.0  0.86959  0.51077  0.32985  1.0000
  H   H26       1.0  0.84537  0.48355  0.20024  1.0000
  H   H27       1.0  0.66826  0.54084  0.21749  1.0000
  N   N8        1.0  0.76680  0.48608  0.18260  1.0000
  H   H28       1.0  0.73449  0.48193  0.18250  1.0000
  H   H29       1.0  0.77455  0.47176  0.13203  1.0000
  C   C40       1.0  0.47172  0.14712  0.27633  1.0000
  N   N9        1.0  0.46719  0.18740  0.27837  1.0000
  C   C41       1.0  0.48160  0.26452  0.33212  1.0000
  C   C42       1.0  0.50095  0.29361  0.25341  1.0000
  C   C43       1.0  0.50528  0.34026  0.25279  1.0000
  C   C44       1.0  0.49530  0.36002  0.32937  1.0000
  H   H30       1.0  0.52252  0.36302  0.19982  1.0000
  H   H31       1.0  0.46520  0.12851  0.21736  1.0000
  N   N10       1.0  0.51985  0.28187  0.18199  1.0000
  H   H32       1.0  0.52391  0.25366  0.18179  1.0000
  H   H33       1.0  0.53415  0.30393  0.13142  1.0000
  C   C45       1.0  0.85909  0.32580  0.27613  1.0000
  N   N11       1.0  0.81880  0.28099  0.27831  1.0000
  C   C46       1.0  0.74168  0.21836  0.33220  1.0000
  C   C47       1.0  0.71257  0.20867  0.25351  1.0000
  C   C48       1.0  0.66586  0.16646  0.25301  1.0000
  C   C49       1.0  0.64614  0.13670  0.32953  1.0000
  H   H34       1.0  0.64315  0.16082  0.19987  1.0000
  H   H35       1.0  0.87766  0.33784  0.21711  1.0000
  N   N12       1.0  0.72436  0.23927  0.18199  1.0000
  H   H36       1.0  0.75263  0.27151  0.18171  1.0000
  H   H37       1.0  0.70227  0.23154  0.13147  1.0000
  C   C50       1.0  0.94802  0.51107  0.34652  1.0000
  C   C51       1.0  0.89685  0.48632  0.33939  1.0000
  C   C52       1.0  0.87166  0.43507  0.33885  1.0000
  H   H38       1.0  0.96354  0.54713  0.35904  1.0000
  O   O7        1.0  0.82179  0.41060  0.34207  1.0000
  C   C53       1.0  0.13579  0.56992  0.33846  1.0000
  C   C54       1.0  0.11059  0.51867  0.33905  1.0000
  O   O8        1.0  0.18566  0.59439  0.34151  1.0000
  C   C55       1.0  0.49504  0.43816  0.34630  1.0000
  C   C56       1.0  0.51976  0.41170  0.33922  1.0000
  C   C57       1.0  0.57101  0.43772  0.33883  1.0000
  H   H39       1.0  0.45898  0.41762  0.35866  1.0000
  O   O9        1.0  0.59544  0.41228  0.34209  1.0000
  C   C58       1.0  0.43631  0.56719  0.33883  1.0000
  C   C59       1.0  0.48755  0.59322  0.33923  1.0000
  C   C60       1.0  0.51229  0.56678  0.34631  1.0000
  O   O10       1.0  0.41186  0.59262  0.34208  1.0000
  H   H40       1.0  0.54835  0.58732  0.35866  1.0000
  C   C61       1.0  0.56804  0.05824  0.34646  1.0000
  C   C62       1.0  0.59444  0.10941  0.33931  1.0000
  C   C63       1.0  0.56838  0.13459  0.33887  1.0000
  H   H41       1.0  0.58860  0.04274  0.35885  1.0000
  O   O11       1.0  0.59377  0.18446  0.34210  1.0000
  C   C64       1.0  0.43919  0.87045  0.33875  1.0000
  C   C65       1.0  0.41311  0.89562  0.33927  1.0000
  C   C66       1.0  0.43949  0.94678  0.34642  1.0000
  O   O12       1.0  0.41381  0.82058  0.34186  1.0000
  H   H42       1.0  0.41892  0.96227  0.35886  1.0000
  C   C67       1.0  0.35879  0.49207  0.34935  1.0000
  C   C68       1.0  0.26388  0.47997  0.34742  1.0000
  C   C69       1.0  0.29324  0.49900  0.42591  1.0000
  C   C70       1.0  0.33955  0.50249  0.42619  1.0000
  H   H43       1.0  0.36253  0.51959  0.47896  1.0000
  C   C71       1.0  0.14728  0.47231  0.40250  1.0000
  N   N13       1.0  0.18714  0.46701  0.40093  1.0000
  H   H44       1.0  0.12843  0.46596  0.46114  1.0000
  N   N14       1.0  0.28194  0.51814  0.49755  1.0000
  H   H45       1.0  0.30426  0.53243  0.54775  1.0000
  H   H46       1.0  0.25411  0.52283  0.49767  1.0000
  C   C72       1.0  0.51440  0.86817  0.34918  1.0000
  C   C73       1.0  0.52650  0.78536  0.34759  1.0000
  C   C74       1.0  0.50756  0.79580  0.42611  1.0000
  C   C75       1.0  0.50388  0.83850  0.42604  1.0000
  H   H47       1.0  0.48696  0.84454  0.47893  1.0000
  C   C76       1.0  0.53381  0.67625  0.40278  1.0000
  N   N15       1.0  0.53932  0.72150  0.40114  1.0000
  H   H48       1.0  0.54049  0.66383  0.46121  1.0000
  N   N16       1.0  0.48845  0.76547  0.49789  1.0000
  H   H49       1.0  0.47443  0.77367  0.54832  1.0000
  H   H50       1.0  0.48419  0.73312  0.49872  1.0000
  C   C77       1.0  0.13810  0.64743  0.34904  1.0000
  C   C78       1.0  0.22105  0.74226  0.34748  1.0000
  C   C79       1.0  0.21060  0.71284  0.42591  1.0000
  C   C80       1.0  0.16779  0.66655  0.42592  1.0000
  H   H51       1.0  0.16171  0.64350  0.47869  1.0000
  C   C81       1.0  0.33010  0.85870  0.40292  1.0000
  N   N17       1.0  0.28488  0.81893  0.40125  1.0000
  H   H52       1.0  0.34251  0.87777  0.46139  1.0000
  N   N18       1.0  0.24094  0.72401  0.49766  1.0000
  H   H53       1.0  0.23276  0.70169  0.54792  1.0000
  H   H54       1.0  0.27340  0.75193  0.49822  1.0000
  C   C82       1.0  0.64853  0.51282  0.34952  1.0000
  C   C83       1.0  0.74346  0.52497  0.34800  1.0000
  C   C84       1.0  0.71407  0.50602  0.42647  1.0000
  C   C85       1.0  0.66771  0.50238  0.42643  1.0000
  H   H55       1.0  0.64466  0.48537  0.47917  1.0000
  C   C86       1.0  0.86001  0.53255  0.40319  1.0000
  N   N19       1.0  0.82018  0.53790  0.40159  1.0000
  H   H56       1.0  0.87906  0.53911  0.46166  1.0000
  N   N20       1.0  0.72528  0.48689  0.49824  1.0000
  H   H57       1.0  0.70305  0.47288  0.54867  1.0000
  H   H58       1.0  0.75337  0.48264  0.49907  1.0000
  C   C87       1.0  0.49323  0.13692  0.34940  1.0000
  C   C88       1.0  0.48112  0.21972  0.34751  1.0000
  C   C89       1.0  0.50014  0.20938  0.42600  1.0000
  C   C90       1.0  0.50362  0.16656  0.42627  1.0000
  H   H59       1.0  0.52072  0.16067  0.47904  1.0000
  C   C91       1.0  0.47340  0.32862  0.40263  1.0000
  N   N21       1.0  0.46812  0.28346  0.40105  1.0000
  H   H60       1.0  0.46702  0.34109  0.46129  1.0000
  N   N22       1.0  0.51925  0.23980  0.49767  1.0000
  H   H61       1.0  0.53353  0.23175  0.54789  1.0000
  H   H62       1.0  0.52394  0.27232  0.49781  1.0000
  C   C92       1.0  0.86938  0.35756  0.34910  1.0000
  C   C93       1.0  0.78654  0.26264  0.34754  1.0000
  C   C94       1.0  0.79697  0.29201  0.42604  1.0000
  C   C95       1.0  0.83967  0.33839  0.42593  1.0000
  H   H63       1.0  0.84572  0.36135  0.47884  1.0000
  C   C96       1.0  0.67748  0.14620  0.40286  1.0000
  N   N23       1.0  0.72272  0.18595  0.40116  1.0000
  H   H64       1.0  0.66508  0.12711  0.46131  1.0000
  N   N24       1.0  0.76664  0.28081  0.49781  1.0000
  H   H65       1.0  0.77485  0.30304  0.54823  1.0000
  H   H66       1.0  0.73429  0.25272  0.49864  1.0000
