data_image0
_chemical_formula_structural       CHC2HC5NH3C4H2NCHC6H3C6H3C2HCHNC5H3CNHC4H2NCHCHNC2HNC2NC2HC2HCH2CHC2H2NC5H3NC5H3C5NH3C5NH3C5NH3C5NH3NC5H3NC5H3NC5H3NC5H3C6H3C6H2C6H3C5H2C6H3C5H2C6H3C6H2C5NH3C5NH3NC5H3NC5H3NC5H3NC5H3C5NH3C5NH3C5NH3C5NH3NC5H3NC5H3C5NH3NCHC4H2C6H3CHCHC6H3C5NH3C5NH3NC5H3C4H2CNH
_chemical_formula_sum              "C252 H144 N36"
_cell_length_a       59.6809
_cell_length_b       59.6808
_cell_length_c       14.8497
_cell_angle_alpha    90
_cell_angle_beta     90
_cell_angle_gamma    120

_space_group_name_H-M_alt    "P 1"
_space_group_IT_number       1

loop_
  _space_group_symop_operation_xyz
  'x, y, z'

loop_
  _atom_site_type_symbol
  _atom_site_label
  _atom_site_symmetry_multiplicity
  _atom_site_fract_x
  _atom_site_fract_y
  _atom_site_fract_z
  _atom_site_occupancy
  C   C1        1.0  0.18683  0.45772  0.26508  1.0000
  H   H1        1.0  0.17956  0.45868  0.20376  1.0000
  C   C2        1.0  0.18644  0.74342  0.25893  1.0000
  C   C3        1.0  0.17469  0.73117  0.34084  1.0000
  H   H2        1.0  0.17867  0.73452  0.19881  1.0000
  C   C4        1.0  0.14186  0.51909  0.34067  1.0000
  C   C5        1.0  0.14230  0.53126  0.25871  1.0000
  C   C6        1.0  0.14401  0.55564  0.25869  1.0000
  C   C7        1.0  0.14490  0.56797  0.34125  1.0000
  C   C8        1.0  0.14320  0.62603  0.26558  1.0000
  N   N1        1.0  0.14448  0.60398  0.26859  1.0000
  H   H3        1.0  0.14239  0.63342  0.20431  1.0000
  H   H4        1.0  0.14082  0.52221  0.19860  1.0000
  H   H5        1.0  0.14387  0.56381  0.19826  1.0000
  C   C9        1.0  0.02556  0.39488  0.34094  1.0000
  C   C10       1.0  0.03937  0.40259  0.25853  1.0000
  C   C11       1.0  0.06649  0.41855  0.25863  1.0000
  C   C12       1.0  0.08036  0.42656  0.34045  1.0000
  H   H6        1.0  0.02986  0.39781  0.19808  1.0000
  H   H7        1.0  0.07593  0.42523  0.19852  1.0000
  N   N2        1.0  0.03984  0.65169  0.26830  1.0000
  C   C13       1.0  0.06602  0.66296  0.26529  1.0000
  H   H8        1.0  0.07485  0.66562  0.20405  1.0000
  C   C14       1.0  0.13738  0.49350  0.34191  1.0000
  C   C15       1.0  0.11175  0.47258  0.34081  1.0000
  C   C16       1.0  0.10655  0.44675  0.34168  1.0000
  C   C17       1.0  0.12751  0.44197  0.34341  1.0000
  C   C18       1.0  0.15338  0.46275  0.34437  1.0000
  C   C19       1.0  0.15808  0.48845  0.34376  1.0000
  H   H9        1.0  0.12391  0.42329  0.34383  1.0000
  H   H10       1.0  0.17674  0.50364  0.34432  1.0000
  H   H11       1.0  0.09667  0.47623  0.33943  1.0000
  C   C20       1.0  0.13736  0.65880  0.34505  1.0000
  C   C21       1.0  0.11173  0.65409  0.34602  1.0000
  C   C22       1.0  0.10653  0.67472  0.34486  1.0000
  C   C23       1.0  0.12749  0.70046  0.34296  1.0000
  C   C24       1.0  0.15336  0.70554  0.34219  1.0000
  C   C25       1.0  0.15807  0.68455  0.34308  1.0000
  H   H12       1.0  0.12390  0.71554  0.34236  1.0000
  H   H13       1.0  0.17672  0.68801  0.34261  1.0000
  H   H14       1.0  0.09666  0.63537  0.34747  1.0000
  C   C26       1.0  0.17471  0.45846  0.34568  1.0000
  C   C27       1.0  0.18650  0.45804  0.42760  1.0000
  H   H15       1.0  0.17878  0.45927  0.48771  1.0000
  C   C28       1.0  0.18688  0.74398  0.42144  1.0000
  H   H16       1.0  0.17964  0.73572  0.48276  1.0000
  N   N3        1.0  0.14441  0.55539  0.41853  1.0000
  C   C29       1.0  0.14315  0.53207  0.42150  1.0000
  C   C30       1.0  0.14490  0.59186  0.34590  1.0000
  C   C31       1.0  0.14393  0.60327  0.42844  1.0000
  C   C32       1.0  0.14221  0.62594  0.42837  1.0000
  C   C33       1.0  0.14183  0.63768  0.34639  1.0000
  H   H17       1.0  0.14372  0.59492  0.48886  1.0000
  H   H18       1.0  0.14067  0.63348  0.48846  1.0000
  H   H19       1.0  0.14223  0.52381  0.48276  1.0000
  C   C34       1.0  0.06601  0.41807  0.42111  1.0000
  N   N4        1.0  0.03982  0.40314  0.41811  1.0000
  H   H20       1.0  0.07484  0.42422  0.48235  1.0000
  C   C35       1.0  0.08034  0.66871  0.34598  1.0000
  C   C36       1.0  0.06648  0.66285  0.42782  1.0000
  C   C37       1.0  0.03936  0.65171  0.42789  1.0000
  C   C38       1.0  0.02557  0.64566  0.34548  1.0000
  H   H21       1.0  0.07592  0.66560  0.48794  1.0000
  H   H22       1.0  0.02985  0.64697  0.48833  1.0000
  N   N5        1.0  0.20908  0.45673  0.26819  1.0000
  C   C39       1.0  0.20938  0.76766  0.25874  1.0000
  H   H23       1.0  0.21758  0.77586  0.19823  1.0000
  C   C40       1.0  0.20943  0.45673  0.42779  1.0000
  H   H24       1.0  0.21768  0.45682  0.48831  1.0000
  N   N6        1.0  0.20913  0.76721  0.41834  1.0000
  C   C41       1.0  0.24514  0.45617  0.34111  1.0000
  C   C42       1.0  0.25738  0.45663  0.25878  1.0000
  H   H25       1.0  0.24920  0.45667  0.19826  1.0000
  N   N7        1.0  0.25778  0.81598  0.26819  1.0000
  C   C43       1.0  0.22117  0.77990  0.34108  1.0000
  C   C44       1.0  0.22117  0.45618  0.34546  1.0000
  N   N8        1.0  0.25782  0.45681  0.41838  1.0000
  C   C45       1.0  0.25742  0.81561  0.42780  1.0000
  C   C46       1.0  0.24514  0.80388  0.34545  1.0000
  H   H26       1.0  0.24925  0.80737  0.48831  1.0000
  C   C47       1.0  0.28163  0.45794  0.25898  1.0000
  C   C48       1.0  0.29388  0.45846  0.34091  1.0000
  H   H27       1.0  0.29056  0.45911  0.19887  1.0000
  C   C49       1.0  0.28101  0.83823  0.26510  1.0000
  H   H28       1.0  0.28926  0.84549  0.20378  1.0000
  H   H29       1.0  0.30951  0.42329  0.34240  1.0000
  C   C50       1.0  0.28105  0.45780  0.42151  1.0000
  H   H30       1.0  0.28932  0.45883  0.48283  1.0000
  C   C51       1.0  0.29387  0.85034  0.34572  1.0000
  C   C52       1.0  0.28166  0.83855  0.42762  1.0000
  H   H31       1.0  0.29060  0.84628  0.48774  1.0000
  H   H32       1.0  0.30951  0.90115  0.34383  1.0000
  N   N9        1.0  0.56831  0.76726  0.26819  1.0000
  C   C53       1.0  0.56732  0.74403  0.26509  1.0000
  C   C54       1.0  0.56889  0.80390  0.34110  1.0000
  C   C55       1.0  0.56842  0.81567  0.25876  1.0000
  C   C56       1.0  0.56710  0.83861  0.25896  1.0000
  C   C57       1.0  0.56662  0.85036  0.34088  1.0000
  H   H33       1.0  0.56836  0.80744  0.19825  1.0000
  H   H34       1.0  0.56593  0.84636  0.19884  1.0000
  H   H35       1.0  0.56634  0.73578  0.20377  1.0000
  N   N10       1.0  0.45516  0.25940  0.26817  1.0000
  C   C58       1.0  0.45613  0.28263  0.26507  1.0000
  C   C59       1.0  0.45460  0.22278  0.34106  1.0000
  C   C60       1.0  0.45507  0.21100  0.25873  1.0000
  C   C61       1.0  0.45637  0.18806  0.25893  1.0000
  C   C62       1.0  0.45685  0.17630  0.34083  1.0000
  H   H36       1.0  0.45513  0.21923  0.19821  1.0000
  H   H37       1.0  0.45756  0.18032  0.19881  1.0000
  H   H38       1.0  0.45711  0.29087  0.20375  1.0000
  C   C63       1.0  0.50597  0.63769  0.34062  1.0000
  C   C64       1.0  0.49382  0.62596  0.25865  1.0000
  C   C65       1.0  0.46941  0.60329  0.25862  1.0000
  C   C66       1.0  0.45708  0.59186  0.34118  1.0000
  C   C67       1.0  0.39902  0.53210  0.26553  1.0000
  N   N11       1.0  0.42107  0.55544  0.26853  1.0000
  H   H39       1.0  0.39163  0.52390  0.20426  1.0000
  H   H40       1.0  0.50288  0.63351  0.19854  1.0000
  H   H41       1.0  0.46127  0.59495  0.19820  1.0000
  C   C68       1.0  0.38735  0.88318  0.34067  1.0000
  C   C69       1.0  0.39906  0.88272  0.25871  1.0000
  C   C70       1.0  0.42174  0.88101  0.25867  1.0000
  C   C71       1.0  0.43318  0.88011  0.34123  1.0000
  C   C72       1.0  0.49292  0.88178  0.26554  1.0000
  N   N12       1.0  0.46959  0.88051  0.26855  1.0000
  H   H42       1.0  0.50113  0.88261  0.20427  1.0000
  H   H43       1.0  0.39152  0.88425  0.19860  1.0000
  H   H44       1.0  0.43007  0.88120  0.19825  1.0000
  C   C73       1.0  0.51749  0.38895  0.34061  1.0000
  C   C74       1.0  0.52966  0.40066  0.25865  1.0000
  C   C75       1.0  0.55405  0.42334  0.25862  1.0000
  C   C76       1.0  0.56637  0.43479  0.34118  1.0000
  C   C77       1.0  0.62444  0.49455  0.26553  1.0000
  N   N13       1.0  0.60238  0.47122  0.26852  1.0000
  H   H45       1.0  0.63183  0.50275  0.20425  1.0000
  H   H46       1.0  0.52062  0.39309  0.19854  1.0000
  H   H47       1.0  0.56222  0.43165  0.19819  1.0000
  C   C78       1.0  0.63607  0.14344  0.34061  1.0000
  C   C79       1.0  0.62436  0.14390  0.25865  1.0000
  C   C80       1.0  0.60169  0.14563  0.25863  1.0000
  C   C81       1.0  0.59026  0.14652  0.34119  1.0000
  C   C82       1.0  0.53050  0.14482  0.26554  1.0000
  N   N14       1.0  0.55383  0.14611  0.26854  1.0000
  H   H48       1.0  0.52229  0.14402  0.20427  1.0000
  H   H49       1.0  0.63190  0.14237  0.19854  1.0000
  H   H50       1.0  0.59335  0.14542  0.19821  1.0000
  N   N15       1.0  0.64998  0.62347  0.26838  1.0000
  C   C83       1.0  0.66123  0.60854  0.26540  1.0000
  C   C84       1.0  0.63019  0.64563  0.34103  1.0000
  C   C85       1.0  0.62241  0.65165  0.25862  1.0000
  C   C86       1.0  0.60644  0.66279  0.25873  1.0000
  C   C87       1.0  0.59850  0.66872  0.34056  1.0000
  H   H51       1.0  0.62715  0.64687  0.19818  1.0000
  H   H52       1.0  0.59973  0.66553  0.19861  1.0000
  H   H53       1.0  0.66389  0.60236  0.20418  1.0000
  N   N16       1.0  0.40155  0.04142  0.26834  1.0000
  C   C88       1.0  0.41645  0.06761  0.26537  1.0000
  C   C89       1.0  0.37944  0.99947  0.34096  1.0000
  C   C90       1.0  0.37337  0.98568  0.25854  1.0000
  C   C91       1.0  0.36222  0.95856  0.25860  1.0000
  C   C92       1.0  0.35636  0.94470  0.34042  1.0000
  H   H54       1.0  0.37805  0.99519  0.19810  1.0000
  H   H55       1.0  0.35939  0.94911  0.19847  1.0000
  H   H56       1.0  0.42264  0.07644  0.20415  1.0000
  N   N17       1.0  0.37341  0.40311  0.26826  1.0000
  C   C93       1.0  0.36215  0.41804  0.26524  1.0000
  C   C94       1.0  0.39325  0.38101  0.34099  1.0000
  C   C95       1.0  0.40100  0.37495  0.25859  1.0000
  C   C96       1.0  0.41697  0.36381  0.25871  1.0000
  C   C97       1.0  0.42497  0.35796  0.34057  1.0000
  H   H57       1.0  0.39623  0.37969  0.19814  1.0000
  H   H58       1.0  0.42367  0.36106  0.19860  1.0000
  H   H59       1.0  0.35946  0.42418  0.20401  1.0000
  N   N18       1.0  0.62188  0.98522  0.26832  1.0000
  C   C98       1.0  0.60694  0.95903  0.26533  1.0000
  C   C99       1.0  0.64402  0.02716  0.34100  1.0000
  C   C100      1.0  0.65006  0.04096  0.25859  1.0000
  C   C101      1.0  0.66120  0.06808  0.25870  1.0000
  C   C102      1.0  0.66713  0.08196  0.34052  1.0000
  H   H60       1.0  0.64530  0.03145  0.19815  1.0000
  H   H61       1.0  0.66395  0.07752  0.19858  1.0000
  H   H62       1.0  0.60078  0.95019  0.20411  1.0000
  C   C103      1.0  0.53156  0.65881  0.34183  1.0000
  C   C104      1.0  0.55248  0.65409  0.34076  1.0000
  C   C105      1.0  0.57831  0.67473  0.34169  1.0000
  C   C106      1.0  0.58309  0.70047  0.34347  1.0000
  C   C107      1.0  0.56230  0.70555  0.34436  1.0000
  C   C108      1.0  0.53660  0.68456  0.34369  1.0000
  H   H63       1.0  0.60176  0.71555  0.34394  1.0000
  H   H64       1.0  0.52141  0.68802  0.34424  1.0000
  H   H65       1.0  0.54883  0.63537  0.33939  1.0000
  C   C109      1.0  0.36624  0.88766  0.34188  1.0000
  C   C110      1.0  0.37096  0.91329  0.34076  1.0000
  C   C111      1.0  0.35033  0.91850  0.34164  1.0000
  C   C112      1.0  0.32459  0.89755  0.34339  1.0000
  C   C113      1.0  0.31950  0.87167  0.34436  1.0000
  C   C114      1.0  0.34049  0.86696  0.34375  1.0000
  H   H66       1.0  0.33702  0.84830  0.34434  1.0000
  H   H67       1.0  0.38969  0.92836  0.33938  1.0000
  C   C115      1.0  0.49190  0.36784  0.34187  1.0000
  C   C116      1.0  0.47098  0.37257  0.34082  1.0000
  C   C117      1.0  0.44515  0.35194  0.34174  1.0000
  C   C118      1.0  0.44036  0.32620  0.34348  1.0000
  C   C119      1.0  0.46114  0.32110  0.34436  1.0000
  C   C120      1.0  0.48684  0.34209  0.34368  1.0000
  H   H68       1.0  0.42168  0.31112  0.34393  1.0000
  H   H69       1.0  0.50203  0.33863  0.34422  1.0000
  H   H70       1.0  0.47464  0.39130  0.33946  1.0000
  C   C121      1.0  0.65719  0.13897  0.34183  1.0000
  C   C122      1.0  0.65249  0.11334  0.34075  1.0000
  C   C123      1.0  0.67312  0.10814  0.34168  1.0000
  C   C124      1.0  0.69886  0.12911  0.34345  1.0000
  C   C125      1.0  0.68294  0.15968  0.34369  1.0000
  H   H71       1.0  0.68640  0.17833  0.34426  1.0000
  H   H72       1.0  0.63376  0.09826  0.33938  1.0000
  C   C126      1.0  0.49188  0.13896  0.34502  1.0000
  C   C127      1.0  0.47096  0.11334  0.34603  1.0000
  C   C128      1.0  0.44513  0.10814  0.34490  1.0000
  C   C129      1.0  0.44036  0.12910  0.34302  1.0000
  C   C130      1.0  0.46115  0.15497  0.34219  1.0000
  C   C131      1.0  0.48684  0.15967  0.34304  1.0000
  H   H73       1.0  0.42168  0.12551  0.34245  1.0000
  H   H74       1.0  0.50204  0.17832  0.34253  1.0000
  H   H75       1.0  0.47461  0.09826  0.34749  1.0000
  C   C132      1.0  0.65721  0.53315  0.34500  1.0000
  C   C133      1.0  0.65250  0.55407  0.34601  1.0000
  C   C134      1.0  0.67312  0.57990  0.34490  1.0000
  C   C135      1.0  0.69886  0.58469  0.34303  1.0000
  C   C136      1.0  0.68296  0.53820  0.34302  1.0000
  H   H76       1.0  0.68643  0.52301  0.34249  1.0000
  H   H77       1.0  0.63377  0.55042  0.34748  1.0000
  C   C137      1.0  0.53154  0.88765  0.34499  1.0000
  C   C138      1.0  0.55245  0.91329  0.34597  1.0000
  C   C139      1.0  0.57829  0.91851  0.34486  1.0000
  C   C140      1.0  0.58308  0.89756  0.34302  1.0000
  C   C141      1.0  0.56231  0.87168  0.34219  1.0000
  C   C142      1.0  0.53661  0.86696  0.34303  1.0000
  H   H78       1.0  0.60177  0.90117  0.34247  1.0000
  H   H79       1.0  0.52142  0.84830  0.34255  1.0000
  H   H80       1.0  0.54879  0.92835  0.34743  1.0000
  C   C143      1.0  0.36624  0.49349  0.34502  1.0000
  C   C144      1.0  0.37096  0.47258  0.34596  1.0000
  C   C145      1.0  0.35033  0.44674  0.34484  1.0000
  C   C146      1.0  0.32459  0.44197  0.34300  1.0000
  C   C147      1.0  0.31950  0.46275  0.34224  1.0000
  C   C148      1.0  0.34050  0.48845  0.34310  1.0000
  H   H81       1.0  0.33704  0.50364  0.34265  1.0000
  H   H82       1.0  0.38969  0.47623  0.34736  1.0000
  C   C149      1.0  0.56659  0.73117  0.34570  1.0000
  C   C150      1.0  0.56704  0.74340  0.42761  1.0000
  C   C151      1.0  0.56836  0.76764  0.42780  1.0000
  C   C152      1.0  0.56888  0.77991  0.34546  1.0000
  C   C153      1.0  0.56729  0.83820  0.42148  1.0000
  N   N19       1.0  0.56828  0.81595  0.41836  1.0000
  H   H83       1.0  0.56628  0.84544  0.48280  1.0000
  H   H84       1.0  0.56584  0.73446  0.48773  1.0000
  H   H85       1.0  0.56830  0.77582  0.48831  1.0000
  C   C154      1.0  0.45684  0.29548  0.34568  1.0000
  C   C155      1.0  0.45642  0.28326  0.42758  1.0000
  C   C156      1.0  0.45513  0.25902  0.42777  1.0000
  C   C157      1.0  0.45460  0.24676  0.34542  1.0000
  C   C158      1.0  0.45620  0.18847  0.42144  1.0000
  N   N20       1.0  0.45522  0.21072  0.41833  1.0000
  H   H86       1.0  0.45722  0.18123  0.48275  1.0000
  H   H87       1.0  0.45764  0.29220  0.48769  1.0000
  H   H88       1.0  0.45521  0.25087  0.48827  1.0000
  N   N21       1.0  0.46965  0.60396  0.41847  1.0000
  C   C159      1.0  0.49297  0.62603  0.42144  1.0000
  C   C160      1.0  0.43320  0.56797  0.34583  1.0000
  C   C161      1.0  0.42179  0.55561  0.42837  1.0000
  C   C162      1.0  0.39912  0.53121  0.42831  1.0000
  C   C163      1.0  0.38736  0.51909  0.34633  1.0000
  H   H89       1.0  0.43016  0.56371  0.48880  1.0000
  H   H90       1.0  0.39159  0.52211  0.48839  1.0000
  H   H91       1.0  0.50122  0.63337  0.48270  1.0000
  N   N22       1.0  0.42108  0.88059  0.41852  1.0000
  C   C164      1.0  0.39903  0.88187  0.42150  1.0000
  C   C165      1.0  0.45706  0.88010  0.34586  1.0000
  C   C166      1.0  0.46943  0.88107  0.42839  1.0000
  C   C167      1.0  0.49383  0.88280  0.42832  1.0000
  C   C168      1.0  0.50595  0.88316  0.34634  1.0000
  H   H92       1.0  0.46133  0.88135  0.48882  1.0000
  H   H93       1.0  0.50294  0.88439  0.48839  1.0000
  H   H94       1.0  0.39167  0.88276  0.48275  1.0000
  N   N23       1.0  0.55379  0.42271  0.41847  1.0000
  C   C169      1.0  0.53046  0.40064  0.42145  1.0000
  C   C170      1.0  0.59026  0.45868  0.34583  1.0000
  C   C171      1.0  0.60166  0.47105  0.42837  1.0000
  C   C172      1.0  0.62433  0.49545  0.42831  1.0000
  C   C173      1.0  0.63610  0.50756  0.34633  1.0000
  H   H95       1.0  0.59330  0.46293  0.48879  1.0000
  H   H96       1.0  0.63187  0.50453  0.48839  1.0000
  H   H97       1.0  0.52220  0.39331  0.48270  1.0000
  N   N24       1.0  0.60235  0.14604  0.41847  1.0000
  C   C174      1.0  0.62442  0.14477  0.42145  1.0000
  C   C175      1.0  0.56636  0.14651  0.34585  1.0000
  C   C176      1.0  0.55400  0.14554  0.42839  1.0000
  C   C177      1.0  0.52960  0.14381  0.42833  1.0000
  C   C178      1.0  0.51747  0.14343  0.34636  1.0000
  H   H98       1.0  0.56211  0.14528  0.48880  1.0000
  H   H99       1.0  0.52050  0.14223  0.48841  1.0000
  H   H100      1.0  0.63175  0.14386  0.48270  1.0000
  C   C179      1.0  0.66711  0.60009  0.34610  1.0000
  C   C180      1.0  0.66130  0.60814  0.42791  1.0000
  C   C181      1.0  0.65014  0.62410  0.42796  1.0000
  C   C182      1.0  0.64402  0.63178  0.34554  1.0000
  C   C183      1.0  0.60705  0.66294  0.42122  1.0000
  N   N25       1.0  0.62199  0.65169  0.41821  1.0000
  H   H101      1.0  0.60098  0.66571  0.48247  1.0000
  H   H102      1.0  0.66414  0.60153  0.48804  1.0000
  H   H103      1.0  0.64550  0.62896  0.48840  1.0000
  C   C184      1.0  0.42494  0.08195  0.34607  1.0000
  C   C185      1.0  0.41693  0.06807  0.42786  1.0000
  C   C186      1.0  0.40098  0.04095  0.42792  1.0000
  C   C187      1.0  0.39327  0.02715  0.34550  1.0000
  C   C188      1.0  0.36218  0.95903  0.42113  1.0000
  N   N26       1.0  0.37343  0.98521  0.41814  1.0000
  H   H104      1.0  0.35946  0.95018  0.48237  1.0000
  H   H105      1.0  0.42354  0.07751  0.48801  1.0000
  H   H106      1.0  0.39612  0.03144  0.48836  1.0000
  C   C189      1.0  0.35633  0.42656  0.34591  1.0000
  C   C190      1.0  0.36218  0.41855  0.42775  1.0000
  C   C191      1.0  0.37335  0.40259  0.42785  1.0000
  C   C192      1.0  0.37942  0.39486  0.34544  1.0000
  C   C193      1.0  0.41642  0.36375  0.42123  1.0000
  N   N27       1.0  0.40149  0.37500  0.41818  1.0000
  H   H107      1.0  0.42256  0.36104  0.48248  1.0000
  H   H108      1.0  0.35942  0.42523  0.48787  1.0000
  H   H109      1.0  0.37805  0.39780  0.48831  1.0000
  C   C194      1.0  0.59846  0.94471  0.34603  1.0000
  C   C195      1.0  0.60650  0.95856  0.42786  1.0000
  C   C196      1.0  0.62247  0.98568  0.42792  1.0000
  C   C197      1.0  0.63016  0.99948  0.34550  1.0000
  C   C198      1.0  0.66130  0.06761  0.42117  1.0000
  N   N28       1.0  0.65005  0.04143  0.41817  1.0000
  H   H110      1.0  0.66405  0.07645  0.48243  1.0000
  H   H111      1.0  0.59988  0.94911  0.48800  1.0000
  H   H112      1.0  0.62732  0.99519  0.48836  1.0000
  N   N29       1.0  0.81439  0.56994  0.26818  1.0000
  C   C199      1.0  0.83665  0.56898  0.26508  1.0000
  C   C200      1.0  0.77831  0.57046  0.34106  1.0000
  C   C201      1.0  0.76607  0.57001  0.25871  1.0000
  C   C202      1.0  0.74182  0.56870  0.25890  1.0000
  C   C203      1.0  0.72958  0.56820  0.34081  1.0000
  H   H113      1.0  0.77425  0.56996  0.19821  1.0000
  H   H114      1.0  0.73290  0.56753  0.19878  1.0000
  H   H115      1.0  0.84391  0.56799  0.20376  1.0000
  N   N30       1.0  0.76564  0.21069  0.26822  1.0000
  C   C204      1.0  0.74241  0.18845  0.26512  1.0000
  C   C205      1.0  0.80228  0.24675  0.34113  1.0000
  C   C206      1.0  0.81406  0.25899  0.25879  1.0000
  C   C207      1.0  0.83699  0.28324  0.25900  1.0000
  C   C208      1.0  0.84874  0.29548  0.34092  1.0000
  H   H116      1.0  0.80584  0.25082  0.19827  1.0000
  H   H117      1.0  0.84475  0.29216  0.19887  1.0000
  H   H118      1.0  0.73416  0.18119  0.20380  1.0000
  C   C209      1.0  0.88160  0.50757  0.34068  1.0000
  C   C210      1.0  0.88113  0.49540  0.25871  1.0000
  C   C211      1.0  0.87940  0.47100  0.25868  1.0000
  C   C212      1.0  0.87852  0.45868  0.34124  1.0000
  C   C213      1.0  0.88020  0.40061  0.26557  1.0000
  N   N31       1.0  0.87892  0.42266  0.26858  1.0000
  H   H119      1.0  0.88101  0.39322  0.20429  1.0000
  H   H120      1.0  0.88262  0.50445  0.19860  1.0000
  H   H121      1.0  0.87956  0.46284  0.19825  1.0000
  N   N32       1.0  0.98362  0.37501  0.26823  1.0000
  C   C214      1.0  0.95743  0.36376  0.26524  1.0000
  H   H122      1.0  0.94859  0.36104  0.20400  1.0000
  C   C215      1.0  0.99789  0.63180  0.34096  1.0000
  C   C216      1.0  0.98409  0.62409  0.25854  1.0000
  C   C217      1.0  0.95697  0.60811  0.25861  1.0000
  C   C218      1.0  0.94312  0.60009  0.34044  1.0000
  H   H123      1.0  0.99360  0.62888  0.19809  1.0000
  H   H124      1.0  0.94752  0.60143  0.19850  1.0000
  C   C219      1.0  0.88607  0.53316  0.34191  1.0000
  C   C220      1.0  0.91171  0.55407  0.34081  1.0000
  C   C221      1.0  0.91692  0.57991  0.34168  1.0000
  C   C222      1.0  0.89597  0.58470  0.34341  1.0000
  C   C223      1.0  0.87009  0.56392  0.34437  1.0000
  C   C224      1.0  0.86538  0.53821  0.34376  1.0000
  H   H125      1.0  0.89957  0.60338  0.34383  1.0000
  H   H126      1.0  0.84672  0.52303  0.34433  1.0000
  H   H127      1.0  0.92678  0.55041  0.33943  1.0000
  C   C225      1.0  0.70394  0.15498  0.34436  1.0000
  H   H128      1.0  0.71394  0.12552  0.34393  1.0000
  C   C226      1.0  0.70395  0.56390  0.34218  1.0000
  H   H129      1.0  0.71394  0.60336  0.34247  1.0000
  C   C227      1.0  0.88606  0.36784  0.34504  1.0000
  C   C228      1.0  0.91169  0.37257  0.34597  1.0000
  C   C229      1.0  0.91690  0.35194  0.34484  1.0000
  C   C230      1.0  0.89595  0.32620  0.34299  1.0000
  C   C231      1.0  0.87007  0.32110  0.34222  1.0000
  C   C232      1.0  0.86536  0.34209  0.34311  1.0000
  H   H130      1.0  0.89955  0.31112  0.34239  1.0000
  H   H131      1.0  0.84670  0.33862  0.34265  1.0000
  H   H132      1.0  0.92676  0.39129  0.34739  1.0000
  C   C233      1.0  0.84877  0.56823  0.34569  1.0000
  C   C234      1.0  0.83696  0.56862  0.42759  1.0000
  C   C235      1.0  0.81402  0.56992  0.42778  1.0000
  C   C236      1.0  0.80229  0.57048  0.34543  1.0000
  C   C237      1.0  0.74240  0.56885  0.42142  1.0000
  N   N33       1.0  0.76563  0.56984  0.41832  1.0000
  H   H133      1.0  0.73414  0.56784  0.48274  1.0000
  H   H134      1.0  0.84466  0.56737  0.48771  1.0000
  H   H135      1.0  0.80576  0.56980  0.48828  1.0000
  C   C238      1.0  0.72956  0.17631  0.34573  1.0000
  C   C239      1.0  0.74178  0.18809  0.42763  1.0000
  C   C240      1.0  0.76602  0.21103  0.42783  1.0000
  C   C241      1.0  0.77829  0.22277  0.34548  1.0000
  C   C242      1.0  0.83657  0.28265  0.42151  1.0000
  N   N34       1.0  0.81433  0.25942  0.41839  1.0000
  H   H136      1.0  0.84382  0.29091  0.48284  1.0000
  H   H137      1.0  0.73284  0.18035  0.48775  1.0000
  H   H138      1.0  0.77420  0.21926  0.48833  1.0000
  N   N35       1.0  0.87901  0.47125  0.41853  1.0000
  C   C243      1.0  0.88030  0.49459  0.42151  1.0000
  C   C244      1.0  0.87851  0.43478  0.34588  1.0000
  C   C245      1.0  0.87948  0.42338  0.42842  1.0000
  C   C246      1.0  0.88121  0.40071  0.42834  1.0000
  C   C247      1.0  0.88157  0.38895  0.34636  1.0000
  H   H139      1.0  0.87975  0.43175  0.48884  1.0000
  H   H140      1.0  0.88278  0.39319  0.48842  1.0000
  H   H141      1.0  0.88119  0.50284  0.48276  1.0000
  C   C248      1.0  0.94310  0.35796  0.34591  1.0000
  C   C249      1.0  0.95696  0.36385  0.42774  1.0000
  C   C250      1.0  0.98408  0.37501  0.42783  1.0000
  C   C251      1.0  0.99788  0.38105  0.34541  1.0000
  H   H142      1.0  0.94752  0.36108  0.48787  1.0000
  H   H143      1.0  0.99359  0.37972  0.48827  1.0000
  C   C252      1.0  0.95744  0.60859  0.42114  1.0000
  N   N36       1.0  0.98362  0.62355  0.41814  1.0000
  H   H144      1.0  0.94860  0.60248  0.48239  1.0000
