data_image0
_chemical_formula_structural       C4HC3NHNO2C4HC3NHNO2C4HC3NHNO2CNC2H2NO2CNC2H2NO2CNC2H2NO2CNC2H2NO2CNC2H2NO2CNC2H2NO2C24H15C24H15C24H15C24H15C24H15C24H15CNC2H2NO2CNC2H2NO2CNC2H2NO2C4HC3NHNO2C4HC3NHNO2C4HC3NHNO2C4HC3NHNO2C4HC3NHNO2C4HC3NHNO2
_chemical_formula_sum              "C234 H126 N36 O36"
_cell_length_a       77.3562
_cell_length_b       77.3562
_cell_length_c       14.9924
_cell_angle_alpha    90
_cell_angle_beta     90
_cell_angle_gamma    120

_space_group_name_H-M_alt    "P 1"
_space_group_IT_number       1

loop_
  _space_group_symop_operation_xyz
  'x, y, z'

loop_
  _atom_site_type_symbol
  _atom_site_label
  _atom_site_symmetry_multiplicity
  _atom_site_fract_x
  _atom_site_fract_y
  _atom_site_fract_z
  _atom_site_occupancy
  C   C1        1.0  0.05385  0.52839  0.32058  1.0000
  C   C2        1.0  0.01132  0.50898  0.32188  1.0000
  C   C3        1.0  0.02180  0.51551  0.23957  1.0000
  C   C4        1.0  0.04293  0.52509  0.24057  1.0000
  H   H1        1.0  0.05038  0.52955  0.18108  1.0000
  C   C5        1.0  0.99004  0.49875  0.33057  1.0000
  C   C6        1.0  0.94741  0.47642  0.33353  1.0000
  C   C7        1.0  0.95870  0.47714  0.25808  1.0000
  N   N1        1.0  0.97887  0.48786  0.25998  1.0000
  H   H2        1.0  0.95202  0.47003  0.20003  1.0000
  N   N2        1.0  0.01149  0.51310  0.15836  1.0000
  O   O1        1.0  0.01450  0.50253  0.10393  1.0000
  O   O2        1.0  0.01639  0.52960  0.12245  1.0000
  C   C8        1.0  0.47224  0.52558  0.32054  1.0000
  C   C9        1.0  0.49164  0.50246  0.32185  1.0000
  C   C10       1.0  0.48511  0.50642  0.23953  1.0000
  C   C11       1.0  0.47554  0.51797  0.24053  1.0000
  H   H3        1.0  0.47107  0.52095  0.18104  1.0000
  C   C12       1.0  0.50187  0.49140  0.33054  1.0000
  C   C13       1.0  0.52420  0.47111  0.33351  1.0000
  C   C14       1.0  0.52346  0.48165  0.25804  1.0000
  N   N3        1.0  0.51275  0.49112  0.25994  1.0000
  H   H4        1.0  0.53058  0.48210  0.20000  1.0000
  N   N4        1.0  0.48751  0.49850  0.15833  1.0000
  O   O3        1.0  0.49808  0.51208  0.10387  1.0000
  O   O4        1.0  0.47101  0.48690  0.12246  1.0000
  C   C15       1.0  0.47506  0.94680  0.32061  1.0000
  C   C16       1.0  0.49817  0.98932  0.32191  1.0000
  C   C17       1.0  0.49422  0.97884  0.23959  1.0000
  C   C18       1.0  0.48268  0.95771  0.24059  1.0000
  H   H5        1.0  0.47970  0.95027  0.18111  1.0000
  C   C19       1.0  0.50922  0.01061  0.33061  1.0000
  C   C20       1.0  0.52951  0.05323  0.33357  1.0000
  C   C21       1.0  0.51896  0.04194  0.25809  1.0000
  N   N5        1.0  0.50950  0.02177  0.26000  1.0000
  H   H6        1.0  0.51852  0.04862  0.20006  1.0000
  N   N6        1.0  0.50213  0.98916  0.15840  1.0000
  O   O5        1.0  0.48855  0.98614  0.10393  1.0000
  O   O6        1.0  0.51374  0.98426  0.12253  1.0000
  C   C22       1.0  0.23193  0.53765  0.26687  1.0000
  N   N7        1.0  0.24844  0.53584  0.26463  1.0000
  C   C23       1.0  0.28994  0.54458  0.25247  1.0000
  C   C24       1.0  0.30891  0.54596  0.25281  1.0000
  H   H7        1.0  0.31903  0.55433  0.20452  1.0000
  H   H8        1.0  0.22687  0.54016  0.20804  1.0000
  N   N8        1.0  0.28519  0.55439  0.18524  1.0000
  O   O7        1.0  0.28534  0.54770  0.10903  1.0000
  O   O8        1.0  0.29694  0.57293  0.18571  1.0000
  C   C25       1.0  0.46298  0.69440  0.26684  1.0000
  N   N9        1.0  0.46479  0.71273  0.26459  1.0000
  C   C26       1.0  0.45607  0.74551  0.25234  1.0000
  C   C27       1.0  0.45470  0.76311  0.25267  1.0000
  H   H9        1.0  0.44634  0.76485  0.20436  1.0000
  H   H10       1.0  0.46048  0.68684  0.20802  1.0000
  N   N10       1.0  0.44628  0.73096  0.18505  1.0000
  O   O9        1.0  0.45299  0.73781  0.10887  1.0000
  O   O10       1.0  0.42774  0.72416  0.18544  1.0000
  C   C28       1.0  0.30624  0.76872  0.26685  1.0000
  N   N11       1.0  0.28792  0.75220  0.26461  1.0000
  C   C29       1.0  0.25515  0.71070  0.25237  1.0000
  C   C30       1.0  0.23757  0.69172  0.25279  1.0000
  H   H11       1.0  0.23579  0.68163  0.20432  1.0000
  H   H12       1.0  0.31380  0.77378  0.20802  1.0000
  N   N12       1.0  0.26969  0.71547  0.18501  1.0000
  O   O11       1.0  0.26282  0.71532  0.10888  1.0000
  O   O12       1.0  0.27650  0.70373  0.18533  1.0000
  C   C31       1.0  0.76757  0.46246  0.26308  1.0000
  N   N13       1.0  0.75115  0.46445  0.26208  1.0000
  C   C32       1.0  0.70981  0.45624  0.25211  1.0000
  C   C33       1.0  0.69090  0.45500  0.25379  1.0000
  H   H13       1.0  0.68070  0.44684  0.20540  1.0000
  H   H14       1.0  0.77249  0.45998  0.20382  1.0000
  N   N14       1.0  0.71436  0.44657  0.18352  1.0000
  O   O13       1.0  0.71415  0.45351  0.10800  1.0000
  O   O14       1.0  0.70252  0.42804  0.18308  1.0000
  C   C34       1.0  0.53809  0.30521  0.26313  1.0000
  N   N15       1.0  0.53612  0.28681  0.26214  1.0000
  C   C35       1.0  0.54434  0.25368  0.25209  1.0000
  C   C36       1.0  0.54558  0.23602  0.25371  1.0000
  H   H15       1.0  0.55378  0.23400  0.20539  1.0000
  H   H16       1.0  0.54063  0.31262  0.20388  1.0000
  N   N16       1.0  0.55404  0.26793  0.18357  1.0000
  O   O15       1.0  0.54711  0.26079  0.10801  1.0000
  O   O16       1.0  0.57256  0.27461  0.18320  1.0000
  C   C37       1.0  0.69542  0.23302  0.26311  1.0000
  N   N17       1.0  0.71382  0.24945  0.26210  1.0000
  C   C38       1.0  0.74696  0.29080  0.25203  1.0000
  C   C39       1.0  0.76463  0.30971  0.25367  1.0000
  H   H17       1.0  0.76665  0.31991  0.20536  1.0000
  H   H18       1.0  0.68801  0.22815  0.20386  1.0000
  N   N18       1.0  0.73271  0.28625  0.18351  1.0000
  O   O17       1.0  0.73985  0.28646  0.10795  1.0000
  O   O18       1.0  0.72604  0.29809  0.18313  1.0000
  C   C40       1.0  0.17103  0.60235  0.33934  1.0000
  C   C41       1.0  0.15006  0.59143  0.33107  1.0000
  C   C42       1.0  0.13943  0.57027  0.33075  1.0000
  C   C43       1.0  0.15049  0.56021  0.33734  1.0000
  C   C44       1.0  0.17151  0.57074  0.34590  1.0000
  C   C45       1.0  0.18149  0.59182  0.34645  1.0000
  C   C46       1.0  0.11810  0.55944  0.32617  1.0000
  C   C47       1.0  0.10764  0.56543  0.26802  1.0000
  C   C48       1.0  0.08666  0.55521  0.26591  1.0000
  C   C49       1.0  0.07521  0.53852  0.32160  1.0000
  C   C50       1.0  0.08568  0.53243  0.37918  1.0000
  C   C51       1.0  0.10667  0.54267  0.38149  1.0000
  C   C52       1.0  0.18175  0.62353  0.33992  1.0000
  C   C53       1.0  0.18192  0.63445  0.26406  1.0000
  C   C54       1.0  0.19512  0.65519  0.25924  1.0000
  C   C55       1.0  0.20806  0.66558  0.33101  1.0000
  C   C56       1.0  0.20721  0.65470  0.40834  1.0000
  C   C57       1.0  0.19436  0.63394  0.41243  1.0000
  C   C58       1.0  0.18274  0.56073  0.35292  1.0000
  C   C59       1.0  0.19801  0.56681  0.41751  1.0000
  C   C60       1.0  0.21082  0.55885  0.41828  1.0000
  C   C61       1.0  0.20884  0.54441  0.35478  1.0000
  C   C62       1.0  0.19303  0.53777  0.29234  1.0000
  C   C63       1.0  0.18011  0.54569  0.29172  1.0000
  H   H19       1.0  0.19566  0.66256  0.20165  1.0000
  H   H20       1.0  0.17345  0.62722  0.20936  1.0000
  H   H21       1.0  0.21688  0.66156  0.46020  1.0000
  H   H22       1.0  0.19485  0.62638  0.46756  1.0000
  H   H23       1.0  0.20042  0.57764  0.46309  1.0000
  H   H24       1.0  0.22238  0.56466  0.46291  1.0000
  H   H25       1.0  0.16953  0.54121  0.24268  1.0000
  H   H26       1.0  0.19108  0.52742  0.24499  1.0000
  H   H27       1.0  0.11353  0.53799  0.42589  1.0000
  H   H28       1.0  0.07811  0.52031  0.42001  1.0000
  H   H29       1.0  0.07983  0.56046  0.22431  1.0000
  H   H30       1.0  0.11524  0.57734  0.22613  1.0000
  H   H31       1.0  0.14244  0.59909  0.32854  1.0000
  H   H32       1.0  0.19678  0.59974  0.34982  1.0000
  H   H33       1.0  0.14313  0.54493  0.33654  1.0000
  C   C64       1.0  0.39828  0.56880  0.33938  1.0000
  C   C65       1.0  0.40920  0.55875  0.33110  1.0000
  C   C66       1.0  0.43036  0.56929  0.33075  1.0000
  C   C67       1.0  0.44041  0.59041  0.33734  1.0000
  C   C68       1.0  0.42988  0.60090  0.34593  1.0000
  C   C69       1.0  0.40880  0.58979  0.34649  1.0000
  C   C70       1.0  0.44120  0.55879  0.32615  1.0000
  C   C71       1.0  0.43520  0.54234  0.26801  1.0000
  C   C72       1.0  0.44542  0.53158  0.26585  1.0000
  C   C73       1.0  0.46212  0.53682  0.32155  1.0000
  C   C74       1.0  0.46821  0.55338  0.37914  1.0000
  C   C75       1.0  0.45796  0.56413  0.38145  1.0000
  C   C76       1.0  0.37710  0.55834  0.33997  1.0000
  C   C77       1.0  0.36617  0.54758  0.26411  1.0000
  C   C78       1.0  0.34543  0.54003  0.25930  1.0000
  C   C79       1.0  0.33505  0.54260  0.33107  1.0000
  C   C80       1.0  0.34592  0.55261  0.40843  1.0000
  C   C81       1.0  0.36668  0.56053  0.41249  1.0000
  C   C82       1.0  0.43989  0.62213  0.35295  1.0000
  C   C83       1.0  0.43382  0.63133  0.41757  1.0000
  C   C84       1.0  0.44175  0.65210  0.41822  1.0000
  C   C85       1.0  0.45620  0.66455  0.35478  1.0000
  C   C86       1.0  0.46286  0.65539  0.29239  1.0000
  C   C87       1.0  0.45492  0.63455  0.29171  1.0000
  H   H34       1.0  0.33806  0.53323  0.20169  1.0000
  H   H35       1.0  0.37341  0.54635  0.20940  1.0000
  H   H36       1.0  0.33906  0.55543  0.46026  1.0000
  H   H37       1.0  0.37425  0.56858  0.46762  1.0000
  H   H38       1.0  0.42296  0.62290  0.46308  1.0000
  H   H39       1.0  0.43594  0.65784  0.46286  1.0000
  H   H40       1.0  0.45942  0.62844  0.24273  1.0000
  H   H41       1.0  0.47320  0.66378  0.24502  1.0000
  H   H42       1.0  0.46264  0.57566  0.42585  1.0000
  H   H43       1.0  0.48032  0.55793  0.41996  1.0000
  H   H44       1.0  0.44016  0.51950  0.22431  1.0000
  H   H45       1.0  0.42329  0.53802  0.22613  1.0000
  H   H46       1.0  0.40154  0.54348  0.32856  1.0000
  H   H47       1.0  0.40088  0.59716  0.34988  1.0000
  H   H48       1.0  0.45569  0.59832  0.33654  1.0000
  C   C88       1.0  0.43184  0.82961  0.33934  1.0000
  C   C89       1.0  0.44189  0.85058  0.33102  1.0000
  C   C90       1.0  0.43136  0.86121  0.33076  1.0000
  C   C91       1.0  0.41024  0.85015  0.33736  1.0000
  C   C92       1.0  0.39974  0.82912  0.34593  1.0000
  C   C93       1.0  0.41085  0.81915  0.34650  1.0000
  C   C94       1.0  0.44186  0.88255  0.32619  1.0000
  C   C95       1.0  0.45831  0.89300  0.26805  1.0000
  C   C96       1.0  0.46907  0.91399  0.26591  1.0000
  C   C97       1.0  0.46383  0.92544  0.32162  1.0000
  C   C98       1.0  0.44727  0.91496  0.37922  1.0000
  C   C99       1.0  0.43653  0.89397  0.38155  1.0000
  C   C100      1.0  0.44229  0.81888  0.33990  1.0000
  C   C101      1.0  0.45307  0.81874  0.26405  1.0000
  C   C102      1.0  0.46061  0.80554  0.25921  1.0000
  C   C103      1.0  0.45806  0.79260  0.33099  1.0000
  C   C104      1.0  0.44803  0.79344  0.40832  1.0000
  C   C105      1.0  0.44011  0.80628  0.41243  1.0000
  C   C106      1.0  0.37852  0.81791  0.35296  1.0000
  C   C107      1.0  0.36931  0.80264  0.41758  1.0000
  C   C108      1.0  0.34854  0.78982  0.41832  1.0000
  C   C109      1.0  0.33609  0.79180  0.35480  1.0000
  C   C110      1.0  0.34526  0.80761  0.29237  1.0000
  C   C111      1.0  0.36610  0.82051  0.29167  1.0000
  H   H49       1.0  0.46744  0.80500  0.20165  1.0000
  H   H50       1.0  0.45431  0.82721  0.20936  1.0000
  H   H51       1.0  0.44520  0.78375  0.46011  1.0000
  H   H52       1.0  0.43204  0.80577  0.46750  1.0000
  H   H53       1.0  0.37775  0.80021  0.46309  1.0000
  H   H54       1.0  0.34280  0.77824  0.46285  1.0000
  H   H55       1.0  0.37220  0.83113  0.24275  1.0000
  H   H56       1.0  0.33686  0.80957  0.24502  1.0000
  H   H57       1.0  0.42498  0.88711  0.42589  1.0000
  H   H58       1.0  0.44272  0.92253  0.42002  1.0000
  H   H59       1.0  0.48115  0.92081  0.22436  1.0000
  H   H60       1.0  0.46263  0.88541  0.22615  1.0000
  H   H61       1.0  0.45717  0.85820  0.32854  1.0000
  H   H62       1.0  0.40348  0.80386  0.34985  1.0000
  H   H63       1.0  0.40233  0.85751  0.33657  1.0000
  C   C112      1.0  0.83030  0.39886  0.34233  1.0000
  C   C113      1.0  0.85130  0.41023  0.33713  1.0000
  C   C114      1.0  0.86151  0.43140  0.33443  1.0000
  C   C115      1.0  0.84984  0.44089  0.33574  1.0000
  C   C116      1.0  0.82879  0.42993  0.34239  1.0000
  C   C117      1.0  0.81930  0.40888  0.34493  1.0000
  C   C118      1.0  0.88293  0.44279  0.33283  1.0000
  C   C119      1.0  0.89435  0.43615  0.28522  1.0000
  C   C120      1.0  0.91534  0.44703  0.28593  1.0000
  C   C121      1.0  0.92599  0.46526  0.33321  1.0000
  C   C122      1.0  0.91457  0.47202  0.37996  1.0000
  C   C123      1.0  0.89358  0.46098  0.38040  1.0000
  C   C124      1.0  0.82001  0.37768  0.34381  1.0000
  C   C125      1.0  0.82018  0.36682  0.26839  1.0000
  C   C126      1.0  0.80709  0.34606  0.26325  1.0000
  C   C127      1.0  0.79389  0.33562  0.33416  1.0000
  C   C128      1.0  0.79444  0.34643  0.41123  1.0000
  C   C129      1.0  0.80718  0.36721  0.41562  1.0000
  C   C130      1.0  0.81711  0.43948  0.34749  1.0000
  C   C131      1.0  0.80179  0.43329  0.41197  1.0000
  C   C132      1.0  0.78886  0.44110  0.41263  1.0000
  C   C133      1.0  0.79077  0.45553  0.34926  1.0000
  C   C134      1.0  0.80651  0.46218  0.28650  1.0000
  C   C135      1.0  0.81955  0.45440  0.28594  1.0000
  H   H64       1.0  0.80676  0.33873  0.20585  1.0000
  H   H65       1.0  0.82881  0.37409  0.21414  1.0000
  H   H66       1.0  0.78450  0.33956  0.46218  1.0000
  H   H67       1.0  0.80635  0.37476  0.47007  1.0000
  H   H68       1.0  0.79955  0.42259  0.45802  1.0000
  H   H69       1.0  0.77737  0.43531  0.45762  1.0000
  H   H70       1.0  0.83023  0.45902  0.23725  1.0000
  H   H71       1.0  0.80843  0.47255  0.23931  1.0000
  H   H72       1.0  0.88618  0.46633  0.41755  1.0000
  H   H73       1.0  0.92140  0.48526  0.41391  1.0000
  H   H74       1.0  0.92276  0.44120  0.25226  1.0000
  H   H75       1.0  0.88749  0.42328  0.24854  1.0000
  H   H76       1.0  0.85920  0.40286  0.33867  1.0000
  H   H77       1.0  0.80402  0.40064  0.34676  1.0000
  H   H78       1.0  0.85675  0.45613  0.33296  1.0000
  C   C136      1.0  0.60176  0.43155  0.34234  1.0000
  C   C137      1.0  0.59039  0.44118  0.33711  1.0000
  C   C138      1.0  0.56921  0.43022  0.33443  1.0000
  C   C139      1.0  0.55972  0.40906  0.33573  1.0000
  C   C140      1.0  0.57069  0.39897  0.34239  1.0000
  C   C141      1.0  0.59173  0.41053  0.34495  1.0000
  C   C142      1.0  0.55782  0.44025  0.33284  1.0000
  C   C143      1.0  0.56446  0.45831  0.28520  1.0000
  C   C144      1.0  0.55358  0.46842  0.28594  1.0000
  C   C145      1.0  0.53536  0.46085  0.33320  1.0000
  C   C146      1.0  0.52860  0.44267  0.37997  1.0000
  C   C147      1.0  0.53964  0.43272  0.38040  1.0000
  C   C148      1.0  0.62293  0.44243  0.34383  1.0000
  C   C149      1.0  0.63380  0.45345  0.26839  1.0000
  C   C150      1.0  0.65456  0.46112  0.26329  1.0000
  C   C151      1.0  0.66500  0.45837  0.33424  1.0000
  C   C152      1.0  0.65416  0.44808  0.41124  1.0000
  C   C153      1.0  0.63339  0.44008  0.41570  1.0000
  C   C154      1.0  0.56113  0.37774  0.34749  1.0000
  C   C155      1.0  0.56731  0.36860  0.41198  1.0000
  C   C156      1.0  0.55950  0.34786  0.41263  1.0000
  C   C157      1.0  0.54506  0.33535  0.34928  1.0000
  C   C158      1.0  0.53840  0.34444  0.28655  1.0000
  C   C159      1.0  0.54621  0.36526  0.28594  1.0000
  H   H79       1.0  0.66189  0.46812  0.20590  1.0000
  H   H80       1.0  0.62653  0.45480  0.21411  1.0000
  H   H81       1.0  0.66105  0.44507  0.46235  1.0000
  H   H82       1.0  0.62584  0.43172  0.47018  1.0000
  H   H83       1.0  0.57802  0.37706  0.45801  1.0000
  H   H84       1.0  0.56529  0.34216  0.45762  1.0000
  H   H85       1.0  0.54159  0.37133  0.23728  1.0000
  H   H86       1.0  0.52804  0.33599  0.23935  1.0000
  H   H87       1.0  0.53429  0.41997  0.41760  1.0000
  H   H88       1.0  0.51536  0.43626  0.41393  1.0000
  H   H89       1.0  0.55940  0.48166  0.25221  1.0000
  H   H90       1.0  0.57732  0.46431  0.24851  1.0000
  H   H91       1.0  0.59776  0.45646  0.33868  1.0000
  H   H92       1.0  0.59997  0.40349  0.34679  1.0000
  H   H93       1.0  0.54448  0.40074  0.33298  1.0000
  C   C160      1.0  0.56909  0.17035  0.34227  1.0000
  C   C161      1.0  0.55946  0.14936  0.33705  1.0000
  C   C162      1.0  0.57041  0.13913  0.33441  1.0000
  C   C163      1.0  0.59157  0.15080  0.33572  1.0000
  C   C164      1.0  0.60166  0.17185  0.34238  1.0000
  C   C165      1.0  0.59012  0.18134  0.34490  1.0000
  C   C166      1.0  0.56037  0.11771  0.33284  1.0000
  C   C167      1.0  0.54232  0.10630  0.28520  1.0000
  C   C168      1.0  0.53220  0.08530  0.28597  1.0000
  C   C169      1.0  0.53977  0.07466  0.33325  1.0000
  C   C170      1.0  0.55795  0.08607  0.38003  1.0000
  C   C171      1.0  0.56790  0.10706  0.38044  1.0000
  C   C172      1.0  0.55822  0.18066  0.34373  1.0000
  C   C173      1.0  0.54717  0.18048  0.26834  1.0000
  C   C174      1.0  0.53949  0.19356  0.26322  1.0000
  C   C175      1.0  0.54227  0.20678  0.33411  1.0000
  C   C176      1.0  0.55258  0.20626  0.41109  1.0000
  C   C177      1.0  0.56061  0.19351  0.41550  1.0000
  C   C178      1.0  0.62290  0.18352  0.34751  1.0000
  C   C179      1.0  0.63203  0.19883  0.41200  1.0000
  C   C180      1.0  0.65278  0.21176  0.41271  1.0000
  C   C181      1.0  0.66529  0.20986  0.34928  1.0000
  C   C182      1.0  0.65620  0.19411  0.28651  1.0000
  C   C183      1.0  0.63537  0.18108  0.28594  1.0000
  H   H94       1.0  0.53247  0.19387  0.20587  1.0000
  H   H95       1.0  0.54580  0.17183  0.21413  1.0000
  H   H96       1.0  0.55558  0.21615  0.46218  1.0000
  H   H97       1.0  0.56895  0.19430  0.47003  1.0000
  H   H98       1.0  0.62357  0.20109  0.45802  1.0000
  H   H99       1.0  0.65847  0.22326  0.45762  1.0000
  H   H100      1.0  0.62931  0.17040  0.23727  1.0000
  H   H101      1.0  0.66465  0.19220  0.23931  1.0000
  H   H102      1.0  0.58065  0.11446  0.41762  1.0000
  H   H103      1.0  0.56436  0.07925  0.41398  1.0000
  H   H104      1.0  0.51896  0.07788  0.25224  1.0000
  H   H105      1.0  0.53632  0.11316  0.24852  1.0000
  H   H106      1.0  0.54418  0.14146  0.33862  1.0000
  H   H107      1.0  0.59716  0.19663  0.34673  1.0000
  H   H108      1.0  0.59989  0.14388  0.33299  1.0000
  C   C184      1.0  0.04255  0.52146  0.39982  1.0000
  N   N19       1.0  0.02239  0.51230  0.39707  1.0000
  C   C185      1.0  0.97962  0.49873  0.40883  1.0000
  C   C186      1.0  0.95847  0.48744  0.40889  1.0000
  H   H109      1.0  0.95114  0.48722  0.46603  1.0000
  H   H110      1.0  0.04925  0.52358  0.46071  1.0000
  N   N20       1.0  0.99005  0.51029  0.48420  1.0000
  O   O19       1.0  0.98680  0.49962  0.55231  1.0000
  O   O20       1.0  0.98546  0.52341  0.50105  1.0000
  C   C187      1.0  0.47918  0.52123  0.39978  1.0000
  N   N21       1.0  0.48833  0.51022  0.39703  1.0000
  C   C188      1.0  0.50189  0.48101  0.40881  1.0000
  C   C189      1.0  0.51318  0.47115  0.40888  1.0000
  H   H111      1.0  0.51340  0.46405  0.46604  1.0000
  H   H112      1.0  0.47706  0.52581  0.46067  1.0000
  N   N22       1.0  0.49034  0.47989  0.48420  1.0000
  O   O21       1.0  0.50102  0.48732  0.55228  1.0000
  O   O22       1.0  0.47722  0.46219  0.50109  1.0000
  C   C190      1.0  0.47943  0.95809  0.39985  1.0000
  N   N23       1.0  0.49042  0.97825  0.39709  1.0000
  C   C191      1.0  0.51962  0.02102  0.40887  1.0000
  C   C192      1.0  0.52947  0.04217  0.40893  1.0000
  H   H113      1.0  0.53657  0.04950  0.46609  1.0000
  H   H114      1.0  0.47483  0.95139  0.46073  1.0000
  N   N24       1.0  0.52074  0.01060  0.48426  1.0000
  O   O23       1.0  0.51331  0.01384  0.55234  1.0000
  O   O24       1.0  0.53844  0.01518  0.50114  1.0000
  C   C193      1.0  0.22365  0.53852  0.34948  1.0000
  C   C194      1.0  0.25796  0.53402  0.33728  1.0000
  C   C195      1.0  0.24957  0.53355  0.42242  1.0000
  C   C196      1.0  0.23245  0.53572  0.42675  1.0000
  H   H115      1.0  0.22684  0.53604  0.48820  1.0000
  C   C197      1.0  0.27653  0.53445  0.32414  1.0000
  C   C198      1.0  0.31481  0.53776  0.32258  1.0000
  C   C199      1.0  0.30065  0.52721  0.38974  1.0000
  N   N25       1.0  0.28268  0.52619  0.38792  1.0000
  H   H116      1.0  0.30404  0.52112  0.44274  1.0000
  N   N26       1.0  0.25876  0.53235  0.50205  1.0000
  O   O25       1.0  0.24719  0.51724  0.54722  1.0000
  O   O26       1.0  0.26466  0.54766  0.54968  1.0000
  C   C200      1.0  0.46209  0.68525  0.34947  1.0000
  C   C201      1.0  0.46660  0.72406  0.33722  1.0000
  C   C202      1.0  0.46705  0.71613  0.42238  1.0000
  C   C203      1.0  0.46489  0.69685  0.42673  1.0000
  H   H117      1.0  0.46454  0.69093  0.48819  1.0000
  C   C204      1.0  0.46618  0.74221  0.32405  1.0000
  C   C205      1.0  0.46289  0.77719  0.32249  1.0000
  C   C206      1.0  0.47344  0.77359  0.38965  1.0000
  N   N27       1.0  0.47443  0.75661  0.38787  1.0000
  H   H118      1.0  0.47949  0.78303  0.44278  1.0000
  N   N28       1.0  0.46824  0.72653  0.50200  1.0000
  O   O27       1.0  0.48333  0.73007  0.54724  1.0000
  O   O28       1.0  0.45292  0.71712  0.54956  1.0000
  C   C207      1.0  0.31540  0.77700  0.34946  1.0000
  C   C208      1.0  0.27659  0.74267  0.33724  1.0000
  C   C209      1.0  0.28451  0.75106  0.42239  1.0000
  C   C210      1.0  0.30380  0.76818  0.42671  1.0000
  H   H119      1.0  0.30971  0.77378  0.48818  1.0000
  C   C211      1.0  0.25845  0.72410  0.32410  1.0000
  C   C212      1.0  0.22346  0.68582  0.32249  1.0000
  C   C213      1.0  0.22709  0.69996  0.38977  1.0000
  N   N29       1.0  0.24405  0.71794  0.38796  1.0000
  H   H120      1.0  0.21762  0.69658  0.44278  1.0000
  N   N30       1.0  0.27412  0.74186  0.50203  1.0000
  O   O29       1.0  0.27058  0.75342  0.54725  1.0000
  O   O30       1.0  0.28353  0.73596  0.54960  1.0000
  C   C214      1.0  0.77604  0.46153  0.34505  1.0000
  C   C215      1.0  0.74187  0.46635  0.33547  1.0000
  C   C216      1.0  0.75047  0.46674  0.42002  1.0000
  C   C217      1.0  0.76750  0.46442  0.42301  1.0000
  H   H121      1.0  0.77325  0.46408  0.48406  1.0000
  C   C218      1.0  0.72335  0.46610  0.32368  1.0000
  C   C219      1.0  0.68519  0.46309  0.32472  1.0000
  C   C220      1.0  0.69946  0.47336  0.39182  1.0000
  N   N31       1.0  0.71737  0.47425  0.38870  1.0000
  H   H122      1.0  0.69621  0.47936  0.44563  1.0000
  N   N32       1.0  0.74155  0.46803  0.50041  1.0000
  O   O31       1.0  0.75332  0.48310  0.54529  1.0000
  O   O32       1.0  0.73568  0.45270  0.54787  1.0000
  C   C221      1.0  0.53903  0.31461  0.34511  1.0000
  C   C222      1.0  0.53422  0.27563  0.33550  1.0000
  C   C223      1.0  0.53384  0.28383  0.42005  1.0000
  C   C224      1.0  0.53616  0.30318  0.42307  1.0000
  H   H123      1.0  0.53652  0.30928  0.48412  1.0000
  C   C225      1.0  0.53448  0.25736  0.32368  1.0000
  C   C226      1.0  0.53750  0.22221  0.32461  1.0000
  C   C227      1.0  0.52722  0.22620  0.39174  1.0000
  N   N33       1.0  0.52634  0.24322  0.38867  1.0000
  H   H124      1.0  0.52126  0.21697  0.44558  1.0000
  N   N34       1.0  0.53256  0.27363  0.50043  1.0000
  O   O33       1.0  0.51749  0.27033  0.54533  1.0000
  O   O34       1.0  0.54789  0.28308  0.54788  1.0000
  C   C228      1.0  0.68602  0.22458  0.34510  1.0000
  C   C229      1.0  0.72501  0.25874  0.33546  1.0000
  C   C230      1.0  0.71681  0.25016  0.42002  1.0000
  C   C231      1.0  0.69746  0.23312  0.42305  1.0000
  H   H125      1.0  0.69135  0.22739  0.48411  1.0000
  C   C232      1.0  0.74328  0.27726  0.32362  1.0000
  C   C233      1.0  0.77843  0.31543  0.32460  1.0000
  C   C234      1.0  0.77445  0.30115  0.39167  1.0000
  N   N35       1.0  0.75741  0.28325  0.38862  1.0000
  H   H126      1.0  0.78366  0.30441  0.44560  1.0000
  N   N36       1.0  0.72701  0.25908  0.50038  1.0000
  O   O35       1.0  0.73032  0.24732  0.54529  1.0000
  O   O36       1.0  0.71756  0.26496  0.54783  1.0000
