data_image0
_chemical_formula_structural       C4HCHC2HC2HC2HCHONCHCNCHCHC4OHC4HOC4OHC4HOC4OHC4H2C5NH3CNHC5NH3C5NH3C5NH3C2H2C4H4C4H4NCHNC5H3C4H2NC5H3NC5H3NC5H3
_chemical_formula_sum              "C96 H54 O6 N12"
_cell_length_a       31.6629
_cell_length_b       31.6629
_cell_length_c       14.7867
_cell_angle_alpha    90
_cell_angle_beta     90
_cell_angle_gamma    120

_space_group_name_H-M_alt    "P 1"
_space_group_IT_number       1

loop_
  _space_group_symop_operation_xyz
  'x, y, z'

loop_
  _atom_site_type_symbol
  _atom_site_label
  _atom_site_symmetry_multiplicity
  _atom_site_fract_x
  _atom_site_fract_y
  _atom_site_fract_z
  _atom_site_occupancy
  C   C1        1.0  0.03771  0.52065  0.34710  1.0000
  C   C2        1.0  0.06584  0.57275  0.34340  1.0000
  C   C3        1.0  0.11741  0.59912  0.34432  1.0000
  C   C4        1.0  0.14309  0.57337  0.34758  1.0000
  H   H1        1.0  0.04937  0.59323  0.33928  1.0000
  C   C5        1.0  0.16583  0.49334  0.26781  1.0000
  H   H2        1.0  0.15564  0.50068  0.20684  1.0000
  C   C6        1.0  0.14466  0.65095  0.34215  1.0000
  C   C7        1.0  0.16505  0.67547  0.26000  1.0000
  H   H3        1.0  0.15383  0.65713  0.19984  1.0000
  C   C8        1.0  0.11743  0.52192  0.34924  1.0000
  C   C9        1.0  0.06586  0.49670  0.35042  1.0000
  H   H4        1.0  0.04940  0.45973  0.35381  1.0000
  C   C10       1.0  0.16373  0.49080  0.43094  1.0000
  C   C11       1.0  0.14469  0.49733  0.34909  1.0000
  H   H5        1.0  0.15172  0.49645  0.49158  1.0000
  C   C12       1.0  0.16451  0.67708  0.42316  1.0000
  H   H6        1.0  0.15351  0.66031  0.48467  1.0000
  O   O1        1.0  0.19300  0.59834  0.34574  1.0000
  N   N1        1.0  0.20467  0.48622  0.27048  1.0000
  C   C13       1.0  0.20434  0.72380  0.25986  1.0000
  H   H7        1.0  0.20379  0.60382  0.40917  1.0000
  C   C14       1.0  0.20300  0.48172  0.43048  1.0000
  N   N2        1.0  0.20353  0.72297  0.42010  1.0000
  C   C15       1.0  0.22489  0.74795  0.34265  1.0000
  H   H8        1.0  0.21977  0.73952  0.19928  1.0000
  C   C16       1.0  0.22483  0.48041  0.34760  1.0000
  H   H9        1.0  0.21766  0.47999  0.49105  1.0000
  C   C17       1.0  0.98393  0.49376  0.34713  1.0000
  C   C18       1.0  0.87855  0.44104  0.34781  1.0000
  C   C19       1.0  0.90423  0.41529  0.34441  1.0000
  C   C20       1.0  0.95580  0.44166  0.34340  1.0000
  O   O2        1.0  0.82864  0.41606  0.34612  1.0000
  H   H10       1.0  0.97227  0.42118  0.33918  1.0000
  C   C21       1.0  0.49737  0.52064  0.34712  1.0000
  C   C22       1.0  0.44526  0.49667  0.34382  1.0000
  C   C23       1.0  0.41889  0.52188  0.34469  1.0000
  C   C24       1.0  0.44464  0.57331  0.34779  1.0000
  H   H11       1.0  0.42475  0.45971  0.34006  1.0000
  O   O3        1.0  0.41967  0.59825  0.34606  1.0000
  C   C25       1.0  0.52426  0.49376  0.34710  1.0000
  C   C26       1.0  0.57700  0.44109  0.34773  1.0000
  C   C27       1.0  0.60274  0.49253  0.34464  1.0000
  C   C28       1.0  0.57637  0.51773  0.34379  1.0000
  O   O4        1.0  0.60198  0.41616  0.34606  1.0000
  H   H12       1.0  0.59687  0.55468  0.34006  1.0000
  C   C29       1.0  0.49738  0.98033  0.34710  1.0000
  C   C30       1.0  0.52136  0.95221  0.34349  1.0000
  C   C31       1.0  0.49617  0.90064  0.34444  1.0000
  C   C32       1.0  0.44475  0.87494  0.34774  1.0000
  H   H13       1.0  0.55831  0.96869  0.33943  1.0000
  O   O5        1.0  0.41983  0.82503  0.34598  1.0000
  C   C33       1.0  0.52425  0.03411  0.34711  1.0000
  C   C34       1.0  0.57689  0.13950  0.34774  1.0000
  C   C35       1.0  0.52546  0.11380  0.34456  1.0000
  C   C36       1.0  0.50026  0.06223  0.34367  1.0000
  O   O6        1.0  0.60181  0.18941  0.34600  1.0000
  H   H14       1.0  0.46331  0.04576  0.33975  1.0000
  C   C37       1.0  0.36705  0.49730  0.34274  1.0000
  C   C38       1.0  0.34262  0.49320  0.26047  1.0000
  C   C39       1.0  0.29428  0.48413  0.26024  1.0000
  C   C40       1.0  0.27006  0.48048  0.34299  1.0000
  H   H15       1.0  0.36103  0.50047  0.20036  1.0000
  H   H16       1.0  0.27868  0.48403  0.19962  1.0000
  C   C41       1.0  0.52077  0.87340  0.34221  1.0000
  C   C42       1.0  0.52491  0.85305  0.26001  1.0000
  C   C43       1.0  0.53396  0.81378  0.25981  1.0000
  C   C44       1.0  0.53756  0.79319  0.34256  1.0000
  C   C45       1.0  0.52455  0.67601  0.26765  1.0000
  N   N3        1.0  0.53173  0.72201  0.27020  1.0000
  H   H17       1.0  0.51727  0.65852  0.20665  1.0000
  H   H18       1.0  0.51771  0.86425  0.19991  1.0000
  H   H19       1.0  0.53415  0.79830  0.19921  1.0000
  C   C46       1.0  0.34210  0.85212  0.26788  1.0000
  N   N4        1.0  0.29611  0.81329  0.27040  1.0000
  H   H20       1.0  0.35963  0.86235  0.20692  1.0000
  C   C47       1.0  0.65458  0.51712  0.34273  1.0000
  C   C48       1.0  0.67900  0.52110  0.26048  1.0000
  C   C49       1.0  0.72735  0.53022  0.26023  1.0000
  C   C50       1.0  0.75161  0.53397  0.34297  1.0000
  C   C51       1.0  0.85571  0.52084  0.26815  1.0000
  N   N5        1.0  0.81689  0.52801  0.27067  1.0000
  H   H21       1.0  0.86591  0.51351  0.20717  1.0000
  H   H22       1.0  0.66056  0.51372  0.20038  1.0000
  H   H23       1.0  0.74291  0.53016  0.19965  1.0000
  C   C52       1.0  0.50086  0.14104  0.34262  1.0000
  C   C53       1.0  0.49682  0.16141  0.26033  1.0000
  C   C54       1.0  0.48780  0.20071  0.26005  1.0000
  C   C55       1.0  0.48406  0.22125  0.34276  1.0000
  C   C56       1.0  0.49709  0.33841  0.26757  1.0000
  N   N6        1.0  0.48994  0.29243  0.27024  1.0000
  H   H24       1.0  0.50453  0.35597  0.20663  1.0000
  H   H25       1.0  0.50422  0.15035  0.20027  1.0000
  H   H26       1.0  0.48779  0.21625  0.19942  1.0000
  C   C57       1.0  0.87696  0.36345  0.34224  1.0000
  C   C58       1.0  0.85662  0.33901  0.26001  1.0000
  C   C59       1.0  0.81734  0.29068  0.25980  1.0000
  C   C60       1.0  0.79677  0.26647  0.34256  1.0000
  C   C61       1.0  0.67961  0.16228  0.26762  1.0000
  N   N7        1.0  0.72560  0.20110  0.27019  1.0000
  H   H27       1.0  0.66212  0.15206  0.20663  1.0000
  H   H28       1.0  0.86782  0.35742  0.19991  1.0000
  H   H29       1.0  0.80185  0.27502  0.19921  1.0000
  C   C62       1.0  0.95578  0.51771  0.35057  1.0000
  C   C63       1.0  0.90421  0.49249  0.34943  1.0000
  H   H30       1.0  0.81791  0.41064  0.40959  1.0000
  H   H31       1.0  0.97224  0.55468  0.35400  1.0000
  C   C64       1.0  0.49610  0.59910  0.34912  1.0000
  C   C65       1.0  0.52132  0.57275  0.35011  1.0000
  C   C66       1.0  0.50031  0.44165  0.35008  1.0000
  C   C67       1.0  0.52554  0.41530  0.34907  1.0000
  H   H32       1.0  0.41422  0.60354  0.40953  1.0000
  H   H33       1.0  0.60743  0.41090  0.40953  1.0000
  H   H34       1.0  0.55830  0.59328  0.35308  1.0000
  H   H35       1.0  0.46334  0.42111  0.35305  1.0000
  C   C68       1.0  0.41894  0.90059  0.34930  1.0000
  C   C69       1.0  0.44527  0.95216  0.35038  1.0000
  C   C70       1.0  0.57636  0.06228  0.35022  1.0000
  C   C71       1.0  0.60269  0.11385  0.34917  1.0000
  H   H36       1.0  0.41452  0.81428  0.40944  1.0000
  H   H37       1.0  0.60708  0.20015  0.40946  1.0000
  H   H38       1.0  0.42474  0.96860  0.35365  1.0000
  H   H39       1.0  0.59689  0.04583  0.35335  1.0000
  N   N8        1.0  0.29496  0.48401  0.42049  1.0000
  C   C72       1.0  0.34088  0.49098  0.42367  1.0000
  H   H40       1.0  0.35760  0.49655  0.48519  1.0000
  N   N9        1.0  0.53397  0.81453  0.42006  1.0000
  C   C73       1.0  0.52700  0.85349  0.42317  1.0000
  C   C74       1.0  0.53761  0.74803  0.34728  1.0000
  C   C75       1.0  0.53636  0.72495  0.43019  1.0000
  C   C76       1.0  0.52723  0.67658  0.43070  1.0000
  C   C77       1.0  0.52068  0.65093  0.34894  1.0000
  H   H41       1.0  0.53815  0.74138  0.49073  1.0000
  H   H42       1.0  0.52171  0.65901  0.49140  1.0000
  H   H43       1.0  0.52140  0.86462  0.48469  1.0000
  C   C78       1.0  0.27008  0.79314  0.34747  1.0000
  C   C79       1.0  0.29311  0.81496  0.43043  1.0000
  C   C80       1.0  0.34146  0.85424  0.43103  1.0000
  C   C81       1.0  0.36708  0.87329  0.34928  1.0000
  H   H44       1.0  0.27655  0.80040  0.49093  1.0000
  H   H45       1.0  0.35899  0.86642  0.49173  1.0000
  N   N10       1.0  0.72671  0.53050  0.42045  1.0000
  C   C82       1.0  0.68082  0.52362  0.42362  1.0000
  C   C83       1.0  0.79679  0.53395  0.34774  1.0000
  C   C84       1.0  0.81867  0.53283  0.43067  1.0000
  C   C85       1.0  0.85796  0.52376  0.43125  1.0000
  C   C86       1.0  0.87695  0.51708  0.34951  1.0000
  H   H46       1.0  0.80406  0.53470  0.49119  1.0000
  H   H47       1.0  0.87001  0.51824  0.49193  1.0000
  H   H48       1.0  0.66412  0.51794  0.48517  1.0000
  N   N11       1.0  0.48751  0.19984  0.42028  1.0000
  C   C87       1.0  0.49446  0.16089  0.42348  1.0000
  C   C88       1.0  0.48400  0.26641  0.34735  1.0000
  C   C89       1.0  0.48518  0.28949  0.43024  1.0000
  C   C90       1.0  0.49427  0.33785  0.43074  1.0000
  C   C91       1.0  0.50096  0.36345  0.34890  1.0000
  H   H49       1.0  0.48334  0.27305  0.49080  1.0000
  H   H50       1.0  0.49983  0.35547  0.49139  1.0000
  H   H51       1.0  0.49999  0.14973  0.48503  1.0000
  N   N12       1.0  0.81814  0.29139  0.42007  1.0000
  C   C92       1.0  0.85710  0.33730  0.42321  1.0000
  C   C93       1.0  0.75161  0.22126  0.34728  1.0000
  C   C94       1.0  0.72851  0.19945  0.43020  1.0000
  C   C95       1.0  0.68014  0.16020  0.43072  1.0000
  C   C96       1.0  0.65454  0.14113  0.34892  1.0000
  H   H52       1.0  0.74494  0.21410  0.49074  1.0000
  H   H53       1.0  0.66256  0.14816  0.49142  1.0000
  H   H54       1.0  0.86825  0.35403  0.48472  1.0000
