data_image0
_chemical_formula_structural       C4H2CN2CH2C3NC7NC36H22N4C3NC3NC5NC5NC36H26N4C3NC3NC5NC5NC36H26N4C2NCHNCHCHC2NCHNCHCHC2NCHNCHCHC2NCHNCHCHC2NCHNCHCHC2NCHNCHCHC16H16C16H16C16H16C2HC4N2HCHC2HC4N2HCHC2HC4N2HCHC2HC4N2HCHC2HC4N2HCHC2HC4N2HCH
_chemical_formula_sum              "C276 H162 N48"
_cell_length_a       75.0503
_cell_length_b       75.0504
_cell_length_c       14.9743
_cell_angle_alpha    89.8508
_cell_angle_beta     90.1492
_cell_angle_gamma    120

_space_group_name_H-M_alt    "P 1"
_space_group_IT_number       1

loop_
  _space_group_symop_operation_xyz
  'x, y, z'

loop_
  _atom_site_type_symbol
  _atom_site_label
  _atom_site_symmetry_multiplicity
  _atom_site_fract_x
  _atom_site_fract_y
  _atom_site_fract_z
  _atom_site_occupancy
  C   C1        1.0  0.01860  0.49336  0.31179  1.0000
  C   C2        1.0  0.01153  0.50741  0.31212  1.0000
  C   C3        1.0  0.01007  0.58343  0.31116  1.0000
  C   C4        1.0  0.01647  0.60441  0.31111  1.0000
  H   H1        1.0  0.00993  0.47766  0.31219  1.0000
  H   H2        1.0  0.00738  0.61098  0.31093  1.0000
  C   C5        1.0  0.03984  0.50428  0.31089  1.0000
  N   N1        1.0  0.02869  0.52626  0.31147  1.0000
  N   N2        1.0  0.02761  0.58243  0.31149  1.0000
  C   C6        1.0  0.03771  0.61533  0.31199  1.0000
  H   H3        1.0  0.02845  0.53892  0.31197  1.0000
  H   H4        1.0  0.02786  0.56977  0.31188  1.0000
  C   C7        1.0  0.04624  0.52526  0.31103  1.0000
  C   C8        1.0  0.06709  0.54146  0.31095  1.0000
  C   C9        1.0  0.07354  0.56276  0.31147  1.0000
  N   N3        1.0  0.06162  0.57155  0.31161  1.0000
  C   C10       1.0  0.07297  0.59231  0.31268  1.0000
  C   C11       1.0  0.09352  0.59715  0.31311  1.0000
  C   C12       1.0  0.09387  0.57895  0.31242  1.0000
  C   C13       1.0  0.06583  0.60662  0.31316  1.0000
  C   C14       1.0  0.04478  0.60128  0.31217  1.0000
  C   C15       1.0  0.98923  0.56723  0.31109  1.0000
  C   C16       1.0  0.98277  0.54593  0.31159  1.0000
  N   N4        1.0  0.99469  0.53714  0.31162  1.0000
  C   C17       1.0  0.98335  0.51638  0.31276  1.0000
  C   C18       1.0  0.96279  0.51154  0.31338  1.0000
  C   C19       1.0  0.96244  0.52975  0.31270  1.0000
  C   C20       1.0  0.99048  0.50207  0.31318  1.0000
  C   C21       1.0  0.97531  0.48080  0.31523  1.0000
  C   C22       1.0  0.94327  0.43880  0.31923  1.0000
  C   C23       1.0  0.95177  0.44894  0.23723  1.0000
  C   C24       1.0  0.96752  0.46968  0.23510  1.0000
  C   C25       1.0  0.92665  0.41802  0.32090  1.0000
  C   C26       1.0  0.92675  0.40274  0.26597  1.0000
  C   C27       1.0  0.91008  0.38243  0.26576  1.0000
  C   C28       1.0  0.89267  0.37677  0.32018  1.0000
  C   C29       1.0  0.97356  0.57267  0.31157  1.0000
  C   C30       1.0  0.94127  0.58230  0.31316  1.0000
  C   C31       1.0  0.94852  0.57864  0.23187  1.0000
  C   C32       1.0  0.96447  0.57392  0.23093  1.0000
  C   C33       1.0  0.92481  0.58669  0.31428  1.0000
  C   C34       1.0  0.89145  0.59487  0.31919  1.0000
  C   C35       1.0  0.89056  0.57926  0.26393  1.0000
  C   C36       1.0  0.90694  0.57519  0.26164  1.0000
  C   C37       1.0  0.08099  0.62790  0.31524  1.0000
  C   C38       1.0  0.08848  0.63916  0.23516  1.0000
  C   C39       1.0  0.10408  0.65996  0.23730  1.0000
  C   C40       1.0  0.11273  0.67002  0.31925  1.0000
  C   C41       1.0  0.12913  0.69090  0.32094  1.0000
  C   C42       1.0  0.16261  0.73241  0.32052  1.0000
  C   C43       1.0  0.14500  0.72658  0.26693  1.0000
  C   C44       1.0  0.12857  0.70614  0.26698  1.0000
  C   C45       1.0  0.08276  0.53603  0.31134  1.0000
  C   C46       1.0  0.09176  0.53481  0.23064  1.0000
  C   C47       1.0  0.11534  0.52683  0.31285  1.0000
  C   C48       1.0  0.10784  0.53029  0.23154  1.0000
  C   C49       1.0  0.13201  0.52274  0.31396  1.0000
  C   C50       1.0  0.14975  0.53439  0.26089  1.0000
  C   C51       1.0  0.16634  0.53066  0.26324  1.0000
  C   C52       1.0  0.16583  0.51525  0.31908  1.0000
  H   H5        1.0  0.17901  0.53954  0.22464  1.0000
  H   H6        1.0  0.15097  0.54609  0.22127  1.0000
  H   H7        1.0  0.11393  0.52941  0.17178  1.0000
  H   H8        1.0  0.08679  0.53737  0.17079  1.0000
  H   H9        1.0  0.04893  0.49771  0.31066  1.0000
  H   H10       1.0  0.10696  0.57794  0.31276  1.0000
  H   H11       1.0  0.10631  0.61147  0.31382  1.0000
  H   H12       1.0  0.08285  0.63222  0.17477  1.0000
  H   H13       1.0  0.10953  0.66750  0.17788  1.0000
  H   H14       1.0  0.04638  0.63103  0.31244  1.0000
  H   H15       1.0  0.95000  0.49723  0.31425  1.0000
  H   H16       1.0  0.94935  0.53076  0.31322  1.0000
  H   H17       1.0  0.96930  0.57128  0.17109  1.0000
  H   H18       1.0  0.94238  0.57957  0.17215  1.0000
  H   H19       1.0  0.90544  0.56337  0.22244  1.0000
  H   H20       1.0  0.87779  0.57049  0.22563  1.0000
  H   H21       1.0  0.97300  0.47671  0.17469  1.0000
  H   H22       1.0  0.94607  0.44153  0.17779  1.0000
  H   H23       1.0  0.91083  0.37184  0.22556  1.0000
  H   H24       1.0  0.93912  0.40621  0.22601  1.0000
  H   H25       1.0  0.11604  0.70254  0.22770  1.0000
  H   H26       1.0  0.14392  0.73713  0.22750  1.0000
  N   N5        1.0  0.87613  0.35805  0.32261  1.0000
  N   N6        1.0  0.18217  0.51273  0.31786  1.0000
  N   N7        1.0  0.17893  0.75128  0.32312  1.0000
  N   N8        1.0  0.87532  0.59773  0.31783  1.0000
  C   C53       1.0  0.57990  0.61943  0.31351  1.0000
  C   C54       1.0  0.59082  0.60912  0.31441  1.0000
  C   C55       1.0  0.57677  0.58800  0.31459  1.0000
  N   N9        1.0  0.55793  0.58632  0.31388  1.0000
  C   C56       1.0  0.55893  0.60486  0.31348  1.0000
  C   C57       1.0  0.54273  0.60951  0.31326  1.0000
  C   C58       1.0  0.52143  0.59466  0.31376  1.0000
  N   N10       1.0  0.51263  0.57395  0.31399  1.0000
  C   C59       1.0  0.49187  0.56454  0.31503  1.0000
  C   C60       1.0  0.48703  0.58025  0.31535  1.0000
  C   C61       1.0  0.50524  0.59881  0.31461  1.0000
  C   C62       1.0  0.47756  0.54308  0.31557  1.0000
  C   C63       1.0  0.48291  0.52738  0.31460  1.0000
  N   N11       1.0  0.50175  0.52906  0.31386  1.0000
  C   C64       1.0  0.50075  0.51052  0.31354  1.0000
  C   C65       1.0  0.47977  0.49594  0.31358  1.0000
  C   C66       1.0  0.46885  0.50626  0.31452  1.0000
  C   C67       1.0  0.51695  0.50587  0.31342  1.0000
  C   C68       1.0  0.53825  0.52071  0.31388  1.0000
  N   N12       1.0  0.54704  0.54143  0.31399  1.0000
  C   C69       1.0  0.56780  0.55084  0.31507  1.0000
  C   C70       1.0  0.57264  0.53512  0.31556  1.0000
  C   C71       1.0  0.55443  0.51656  0.31488  1.0000
  C   C72       1.0  0.58211  0.57229  0.31554  1.0000
  C   C73       1.0  0.60338  0.57839  0.31758  1.0000
  C   C74       1.0  0.64539  0.58836  0.32148  1.0000
  C   C75       1.0  0.63524  0.58682  0.23952  1.0000
  C   C76       1.0  0.61451  0.58185  0.23743  1.0000
  C   C77       1.0  0.66617  0.59252  0.32311  1.0000
  C   C78       1.0  0.68145  0.60800  0.26831  1.0000
  C   C79       1.0  0.70176  0.61164  0.26798  1.0000
  C   C80       1.0  0.70742  0.59979  0.32213  1.0000
  C   C81       1.0  0.51151  0.48476  0.31386  1.0000
  C   C82       1.0  0.50188  0.44285  0.31539  1.0000
  C   C83       1.0  0.50553  0.45385  0.23411  1.0000
  C   C84       1.0  0.51025  0.47451  0.23320  1.0000
  C   C85       1.0  0.49749  0.42199  0.31648  1.0000
  C   C86       1.0  0.48930  0.38045  0.32134  1.0000
  C   C87       1.0  0.50490  0.39522  0.26606  1.0000
  C   C88       1.0  0.50899  0.41568  0.26385  1.0000
  C   C89       1.0  0.45629  0.53697  0.31764  1.0000
  C   C90       1.0  0.44501  0.53324  0.23757  1.0000
  C   C91       1.0  0.42422  0.52805  0.23968  1.0000
  C   C92       1.0  0.41416  0.52657  0.32162  1.0000
  C   C93       1.0  0.39328  0.52208  0.32327  1.0000
  C   C94       1.0  0.35178  0.51408  0.32250  1.0000
  C   C95       1.0  0.35761  0.50232  0.26915  1.0000
  C   C96       1.0  0.37804  0.50632  0.26938  1.0000
  C   C97       1.0  0.54815  0.63061  0.31362  1.0000
  C   C98       1.0  0.54938  0.64091  0.23290  1.0000
  C   C99       1.0  0.55736  0.67239  0.31505  1.0000
  C   C100      1.0  0.55390  0.66151  0.23376  1.0000
  C   C101      1.0  0.56143  0.69314  0.31613  1.0000
  C   C102      1.0  0.54978  0.69927  0.26302  1.0000
  C   C103      1.0  0.55350  0.71960  0.26537  1.0000
  C   C104      1.0  0.56890  0.73444  0.32124  1.0000
  H   H27       1.0  0.54462  0.72342  0.22676  1.0000
  H   H28       1.0  0.53809  0.68885  0.22340  1.0000
  H   H29       1.0  0.55479  0.66855  0.17399  1.0000
  H   H30       1.0  0.54683  0.63344  0.17306  1.0000
  H   H31       1.0  0.58647  0.63509  0.31326  1.0000
  H   H32       1.0  0.60652  0.61615  0.31483  1.0000
  H   H33       1.0  0.54526  0.57341  0.31409  1.0000
  H   H34       1.0  0.51441  0.54197  0.31414  1.0000
  H   H35       1.0  0.50624  0.61290  0.31489  1.0000
  H   H36       1.0  0.47272  0.57873  0.31602  1.0000
  H   H37       1.0  0.45195  0.53458  0.17718  1.0000
  H   H38       1.0  0.41667  0.52597  0.18027  1.0000
  H   H39       1.0  0.45316  0.49923  0.31507  1.0000
  H   H40       1.0  0.47320  0.48028  0.31350  1.0000
  H   H41       1.0  0.58695  0.53664  0.31634  1.0000
  H   H42       1.0  0.55343  0.50247  0.31530  1.0000
  H   H43       1.0  0.51288  0.48204  0.17337  1.0000
  H   H44       1.0  0.50459  0.44683  0.17438  1.0000
  H   H45       1.0  0.52080  0.42604  0.22458  1.0000
  H   H46       1.0  0.51367  0.39126  0.22775  1.0000
  H   H47       1.0  0.60749  0.58040  0.17703  1.0000
  H   H48       1.0  0.64267  0.58866  0.18007  1.0000
  H   H49       1.0  0.71234  0.62305  0.22788  1.0000
  H   H50       1.0  0.67797  0.61696  0.22854  1.0000
  H   H51       1.0  0.38165  0.49741  0.23019  1.0000
  H   H52       1.0  0.34706  0.49072  0.22972  1.0000
  N   N13       1.0  0.72614  0.60196  0.32438  1.0000
  N   N14       1.0  0.57140  0.75330  0.32004  1.0000
  N   N15       1.0  0.33292  0.51157  0.32480  1.0000
  N   N16       1.0  0.48644  0.36145  0.31996  1.0000
  C   C105      1.0  0.46474  0.04433  0.31533  1.0000
  C   C106      1.0  0.47505  0.06557  0.31639  1.0000
  C   C107      1.0  0.49617  0.07264  0.31671  1.0000
  N   N17       1.0  0.49786  0.05548  0.31598  1.0000
  C   C108      1.0  0.47932  0.03793  0.31541  1.0000
  C   C109      1.0  0.47467  0.01709  0.31512  1.0000
  C   C110      1.0  0.48953  0.01064  0.31575  1.0000
  N   N18       1.0  0.51024  0.02256  0.31608  1.0000
  C   C111      1.0  0.51965  0.01122  0.31722  1.0000
  C   C112      1.0  0.50394  0.99066  0.31752  1.0000
  C   C113      1.0  0.48538  0.99030  0.31663  1.0000
  C   C114      1.0  0.54110  0.01836  0.31778  1.0000
  C   C115      1.0  0.55681  0.03941  0.31673  1.0000
  N   N19       1.0  0.55512  0.05657  0.31602  1.0000
  C   C116      1.0  0.57366  0.07412  0.31553  1.0000
  C   C117      1.0  0.58824  0.06772  0.31545  1.0000
  C   C118      1.0  0.57793  0.04648  0.31649  1.0000
  C   C119      1.0  0.57830  0.09496  0.31536  1.0000
  C   C120      1.0  0.56346  0.10141  0.31597  1.0000
  N   N20       1.0  0.54274  0.08949  0.31614  1.0000
  C   C121      1.0  0.53333  0.10083  0.31730  1.0000
  C   C122      1.0  0.54904  0.12139  0.31780  1.0000
  C   C123      1.0  0.56760  0.12174  0.31699  1.0000
  C   C124      1.0  0.51188  0.09369  0.31779  1.0000
  C   C125      1.0  0.50577  0.10886  0.31984  1.0000
  C   C126      1.0  0.49580  0.14089  0.32376  1.0000
  C   C127      1.0  0.49734  0.13236  0.24179  1.0000
  C   C128      1.0  0.50231  0.11661  0.23969  1.0000
  C   C129      1.0  0.49164  0.15750  0.32539  1.0000
  C   C130      1.0  0.47616  0.15736  0.27058  1.0000
  C   C131      1.0  0.47252  0.17403  0.27025  1.0000
  C   C132      1.0  0.48437  0.19148  0.32439  1.0000
  C   C133      1.0  0.59941  0.11063  0.31546  1.0000
  C   C134      1.0  0.64132  0.14292  0.31622  1.0000
  C   C135      1.0  0.63025  0.13561  0.23514  1.0000
  C   C136      1.0  0.60959  0.11967  0.23460  1.0000
  C   C137      1.0  0.66218  0.15938  0.31691  1.0000
  C   C138      1.0  0.70374  0.19274  0.32092  1.0000
  C   C139      1.0  0.68890  0.19359  0.26593  1.0000
  C   C140      1.0  0.66845  0.17722  0.26410  1.0000
  C   C141      1.0  0.54723  0.00320  0.31987  1.0000
  C   C142      1.0  0.55096  0.99575  0.23979  1.0000
  C   C143      1.0  0.55616  0.98015  0.24191  1.0000
  C   C144      1.0  0.55763  0.97148  0.32384  1.0000
  C   C145      1.0  0.56212  0.95508  0.32549  1.0000
  C   C146      1.0  0.57013  0.92159  0.32475  1.0000
  C   C147      1.0  0.58189  0.93924  0.27141  1.0000
  C   C148      1.0  0.57788  0.95567  0.27161  1.0000
  C   C149      1.0  0.45357  0.00141  0.31516  1.0000
  C   C150      1.0  0.44334  0.99246  0.23425  1.0000
  C   C151      1.0  0.41179  0.96883  0.31587  1.0000
  C   C152      1.0  0.42275  0.97637  0.23477  1.0000
  C   C153      1.0  0.39103  0.95215  0.31657  1.0000
  C   C154      1.0  0.38495  0.93445  0.26332  1.0000
  C   C155      1.0  0.36462  0.91785  0.26529  1.0000
  C   C156      1.0  0.34972  0.91833  0.32082  1.0000
  H   H53       1.0  0.36083  0.90522  0.22655  1.0000
  H   H54       1.0  0.39541  0.93324  0.22391  1.0000
  H   H55       1.0  0.41576  0.97032  0.17487  1.0000
  H   H56       1.0  0.45087  0.99746  0.17455  1.0000
  H   H57       1.0  0.44908  0.03524  0.31499  1.0000
  H   H58       1.0  0.46802  0.07423  0.31679  1.0000
  H   H59       1.0  0.51077  0.05572  0.31635  1.0000
  H   H60       1.0  0.54221  0.05633  0.31644  1.0000
  H   H61       1.0  0.47129  0.97721  0.31688  1.0000
  H   H62       1.0  0.50547  0.97787  0.31823  1.0000
  H   H63       1.0  0.54961  0.00139  0.17940  1.0000
  H   H64       1.0  0.55822  0.97472  0.18249  1.0000
  H   H65       1.0  0.58496  0.03782  0.31696  1.0000
  H   H66       1.0  0.60390  0.07681  0.31523  1.0000
  H   H67       1.0  0.54752  0.13418  0.31861  1.0000
  H   H68       1.0  0.58169  0.13483  0.31739  1.0000
  H   H69       1.0  0.60200  0.11480  0.17491  1.0000
  H   H70       1.0  0.63720  0.14171  0.17527  1.0000
  H   H71       1.0  0.65804  0.17869  0.22509  1.0000
  H   H72       1.0  0.69282  0.20634  0.22754  1.0000
  H   H73       1.0  0.50377  0.11110  0.17929  1.0000
  H   H74       1.0  0.49550  0.13802  0.18235  1.0000
  H   H75       1.0  0.46112  0.17325  0.23013  1.0000
  H   H76       1.0  0.46720  0.14497  0.23081  1.0000
  H   H77       1.0  0.58679  0.96822  0.23245  1.0000
  H   H78       1.0  0.59350  0.94034  0.23200  1.0000
  N   N21       1.0  0.48221  0.20803  0.32662  1.0000
  N   N22       1.0  0.33086  0.90199  0.31919  1.0000
  N   N23       1.0  0.57266  0.90525  0.32709  1.0000
  N   N24       1.0  0.72272  0.20887  0.31918  1.0000
  C   C157      1.0  0.29923  0.50272  0.28785  1.0000
  C   C158      1.0  0.28710  0.50270  0.21525  1.0000
  N   N25       1.0  0.26935  0.50291  0.22957  1.0000
  C   C159      1.0  0.26213  0.50298  0.31253  1.0000
  H   H79       1.0  0.29153  0.50272  0.15069  1.0000
  N   N26       1.0  0.23199  0.50357  0.25752  1.0000
  C   C160      1.0  0.21424  0.50391  0.26982  1.0000
  H   H80       1.0  0.20627  0.50403  0.21459  1.0000
  C   C161      1.0  0.31737  0.50256  0.27197  1.0000
  H   H81       1.0  0.31863  0.49625  0.21579  1.0000
  C   C162      1.0  0.58149  0.88044  0.29010  1.0000
  C   C163      1.0  0.58147  0.86839  0.21749  1.0000
  N   N27       1.0  0.58125  0.85041  0.23180  1.0000
  C   C164      1.0  0.58120  0.84303  0.31476  1.0000
  H   H82       1.0  0.58144  0.87286  0.15294  1.0000
  N   N28       1.0  0.58057  0.81235  0.25974  1.0000
  C   C165      1.0  0.58021  0.79424  0.27203  1.0000
  H   H83       1.0  0.58006  0.78619  0.21679  1.0000
  C   C166      1.0  0.58167  0.89876  0.27426  1.0000
  H   H84       1.0  0.58795  0.90637  0.21799  1.0000
  C   C167      1.0  0.20375  0.78497  0.28660  1.0000
  C   C168      1.0  0.21589  0.79712  0.21422  1.0000
  N   N29       1.0  0.23385  0.81486  0.22888  1.0000
  C   C169      1.0  0.24113  0.82206  0.31198  1.0000
  H   H85       1.0  0.21149  0.79271  0.14958  1.0000
  N   N30       1.0  0.27188  0.85220  0.25757  1.0000
  C   C170      1.0  0.28997  0.86994  0.27024  1.0000
  H   H86       1.0  0.29808  0.87792  0.21517  1.0000
  C   C171      1.0  0.18545  0.76686  0.27041  1.0000
  H   H87       1.0  0.17790  0.76560  0.21398  1.0000
  C   C172      1.0  0.75958  0.61012  0.28703  1.0000
  C   C173      1.0  0.77149  0.60983  0.21447  1.0000
  N   N31       1.0  0.78908  0.60928  0.22885  1.0000
  C   C174      1.0  0.79636  0.60916  0.31183  1.0000
  H   H88       1.0  0.76701  0.60981  0.14990  1.0000
  N   N32       1.0  0.82610  0.60792  0.25694  1.0000
  C   C175      1.0  0.84368  0.60724  0.26931  1.0000
  H   H89       1.0  0.85149  0.60690  0.21411  1.0000
  C   C176      1.0  0.74161  0.61062  0.27108  1.0000
  H   H90       1.0  0.74037  0.61688  0.21451  1.0000
  C   C177      1.0  0.47406  0.23336  0.28924  1.0000
  C   C178      1.0  0.47436  0.24564  0.21667  1.0000
  N   N33       1.0  0.47490  0.26376  0.23104  1.0000
  C   C179      1.0  0.47503  0.27108  0.31402  1.0000
  H   H91       1.0  0.47436  0.24123  0.15211  1.0000
  N   N34       1.0  0.47626  0.30211  0.25910  1.0000
  C   C180      1.0  0.47694  0.32036  0.27147  1.0000
  H   H92       1.0  0.47728  0.32857  0.21626  1.0000
  C   C181      1.0  0.47356  0.21491  0.27330  1.0000
  H   H93       1.0  0.46730  0.20746  0.21672  1.0000
  C   C182      1.0  0.85078  0.32459  0.28569  1.0000
  C   C183      1.0  0.83842  0.31266  0.21337  1.0000
  N   N35       1.0  0.82032  0.29507  0.22811  1.0000
  C   C184      1.0  0.81311  0.28782  0.31124  1.0000
  H   H94       1.0  0.84274  0.31712  0.14871  1.0000
  N   N36       1.0  0.78200  0.25806  0.25698  1.0000
  C   C185      1.0  0.76376  0.24048  0.26973  1.0000
  H   H95       1.0  0.75548  0.23265  0.21470  1.0000
  C   C186      1.0  0.86921  0.34257  0.26940  1.0000
  H   H96       1.0  0.87661  0.34378  0.21271  1.0000
  C   C187      1.0  0.96717  0.47078  0.39740  1.0000
  C   C188      1.0  0.95136  0.45008  0.39922  1.0000
  C   C189      1.0  0.89264  0.39184  0.37611  1.0000
  C   C190      1.0  0.90932  0.41214  0.37638  1.0000
  C   C191      1.0  0.96652  0.57635  0.39298  1.0000
  C   C192      1.0  0.95064  0.58114  0.39360  1.0000
  C   C193      1.0  0.92574  0.60255  0.36866  1.0000
  C   C194      1.0  0.90938  0.60664  0.37093  1.0000
  C   C195      1.0  0.10497  0.65858  0.39919  1.0000
  C   C196      1.0  0.08930  0.63782  0.39737  1.0000
  C   C197      1.0  0.14666  0.69694  0.37556  1.0000
  C   C198      1.0  0.16310  0.71737  0.37548  1.0000
  C   C199      1.0  0.09002  0.53252  0.39276  1.0000
  C   C200      1.0  0.10605  0.52792  0.39334  1.0000
  C   C201      1.0  0.14805  0.50333  0.37128  1.0000
  C   C202      1.0  0.13146  0.50708  0.36892  1.0000
  H   H97       1.0  0.14693  0.49173  0.41105  1.0000
  H   H98       1.0  0.11878  0.49800  0.40699  1.0000
  H   H99       1.0  0.11126  0.52596  0.45370  1.0000
  H   H100      1.0  0.08389  0.53356  0.45219  1.0000
  H   H101      1.0  0.08416  0.62993  0.45628  1.0000
  H   H102      1.0  0.11061  0.66531  0.45990  1.0000
  H   H103      1.0  0.97274  0.57532  0.45236  1.0000
  H   H104      1.0  0.94560  0.58326  0.45395  1.0000
  H   H105      1.0  0.91077  0.61838  0.41026  1.0000
  H   H106      1.0  0.93854  0.61152  0.40639  1.0000
  H   H107      1.0  0.90839  0.42274  0.41594  1.0000
  H   H108      1.0  0.88024  0.38824  0.41614  1.0000
  H   H109      1.0  0.94582  0.44328  0.45994  1.0000
  H   H110      1.0  0.97250  0.47857  0.45636  1.0000
  H   H111      1.0  0.14790  0.68638  0.41447  1.0000
  H   H112      1.0  0.17565  0.72111  0.41491  1.0000
  C   C203      1.0  0.61340  0.58013  0.39972  1.0000
  C   C204      1.0  0.63410  0.58503  0.40150  1.0000
  C   C205      1.0  0.69235  0.58460  0.37796  1.0000
  C   C206      1.0  0.67205  0.58097  0.37829  1.0000
  C   C207      1.0  0.50785  0.47396  0.39526  1.0000
  C   C208      1.0  0.50305  0.45328  0.39585  1.0000
  C   C209      1.0  0.48163  0.40701  0.37086  1.0000
  C   C210      1.0  0.47754  0.38655  0.37311  1.0000
  C   C211      1.0  0.42561  0.53021  0.40156  1.0000
  C   C212      1.0  0.44637  0.53531  0.39976  1.0000
  C   C213      1.0  0.38723  0.53353  0.37773  1.0000
  C   C214      1.0  0.36681  0.52956  0.37743  1.0000
  C   C215      1.0  0.55165  0.64131  0.39502  1.0000
  C   C216      1.0  0.55626  0.66193  0.39557  1.0000
  C   C217      1.0  0.58082  0.72853  0.37345  1.0000
  C   C218      1.0  0.57708  0.70819  0.37110  1.0000
  H   H113      1.0  0.59242  0.73898  0.41324  1.0000
  H   H114      1.0  0.58616  0.70456  0.40920  1.0000
  H   H115      1.0  0.55821  0.66905  0.45592  1.0000
  H   H116      1.0  0.55060  0.63408  0.45447  1.0000
  H   H117      1.0  0.45426  0.53803  0.45867  1.0000
  H   H118      1.0  0.41888  0.52908  0.46225  1.0000
  H   H119      1.0  0.50887  0.48115  0.45466  1.0000
  H   H120      1.0  0.50093  0.44606  0.45618  1.0000
  H   H121      1.0  0.46580  0.37616  0.41243  1.0000
  H   H122      1.0  0.47265  0.41079  0.40861  1.0000
  H   H123      1.0  0.66145  0.56938  0.41780  1.0000
  H   H124      1.0  0.69596  0.57573  0.41777  1.0000
  H   H125      1.0  0.64089  0.58618  0.46220  1.0000
  H   H126      1.0  0.60560  0.57757  0.45868  1.0000
  H   H127      1.0  0.39779  0.54532  0.41651  1.0000
  H   H128      1.0  0.36307  0.53837  0.41666  1.0000
  C   C219      1.0  0.50402  0.11703  0.40198  1.0000
  C   C220      1.0  0.49914  0.13285  0.40377  1.0000
  C   C221      1.0  0.49957  0.19155  0.38022  1.0000
  C   C222      1.0  0.50318  0.17487  0.38061  1.0000
  C   C223      1.0  0.61029  0.11773  0.39665  1.0000
  C   C224      1.0  0.63097  0.13361  0.39687  1.0000
  C   C225      1.0  0.67722  0.15848  0.37101  1.0000
  C   C226      1.0  0.69768  0.17484  0.37283  1.0000
  C   C227      1.0  0.55399  0.97920  0.40379  1.0000
  C   C228      1.0  0.54888  0.99486  0.40198  1.0000
  C   C229      1.0  0.55067  0.93752  0.37994  1.0000
  C   C230      1.0  0.55465  0.92108  0.37968  1.0000
  C   C231      1.0  0.44280  0.99409  0.39638  1.0000
  C   C232      1.0  0.42218  0.97807  0.39657  1.0000
  C   C233      1.0  0.35559  0.93608  0.37317  1.0000
  C   C234      1.0  0.37593  0.95267  0.37124  1.0000
  H   H129      1.0  0.34510  0.93718  0.41275  1.0000
  H   H130      1.0  0.37954  0.96533  0.40944  1.0000
  H   H131      1.0  0.41500  0.97281  0.45678  1.0000
  H   H132      1.0  0.44998  0.00018  0.45595  1.0000
  H   H133      1.0  0.54616  0.99997  0.46089  1.0000
  H   H134      1.0  0.55511  0.97353  0.46448  1.0000
  H   H135      1.0  0.60316  0.11154  0.45618  1.0000
  H   H136      1.0  0.63824  0.13869  0.45707  1.0000
  H   H137      1.0  0.70811  0.17347  0.41198  1.0000
  H   H138      1.0  0.67348  0.14571  0.40884  1.0000
  H   H139      1.0  0.51478  0.17583  0.42008  1.0000
  H   H140      1.0  0.50843  0.20399  0.42004  1.0000
  H   H141      1.0  0.49798  0.13841  0.46448  1.0000
  H   H142      1.0  0.50659  0.11174  0.46094  1.0000
  H   H143      1.0  0.53888  0.93625  0.41871  1.0000
  H   H144      1.0  0.54584  0.90849  0.41889  1.0000
  C   C235      1.0  0.27348  0.50281  0.38801  1.0000
  C   C236      1.0  0.29201  0.50271  0.37518  1.0000
  H   H145      1.0  0.30012  0.50250  0.42987  1.0000
  C   C237      1.0  0.24367  0.50323  0.32625  1.0000
  C   C238      1.0  0.20694  0.50389  0.35700  1.0000
  C   C239      1.0  0.21877  0.50339  0.42980  1.0000
  C   C240      1.0  0.23716  0.50316  0.41505  1.0000
  N   N37       1.0  0.24893  0.50291  0.48363  1.0000
  N   N38       1.0  0.26611  0.50276  0.47085  1.0000
  H   H146      1.0  0.21415  0.50339  0.49413  1.0000
  C   C241      1.0  0.18877  0.50404  0.37235  1.0000
  H   H147      1.0  0.18125  0.49809  0.42910  1.0000
  C   C242      1.0  0.58141  0.85449  0.39025  1.0000
  C   C243      1.0  0.58152  0.87315  0.37743  1.0000
  H   H148      1.0  0.58176  0.88142  0.43213  1.0000
  C   C244      1.0  0.58093  0.82431  0.32847  1.0000
  C   C245      1.0  0.58025  0.78687  0.35920  1.0000
  C   C246      1.0  0.58078  0.79913  0.43201  1.0000
  C   C247      1.0  0.58102  0.81778  0.41726  1.0000
  N   N39       1.0  0.58131  0.82974  0.48585  1.0000
  N   N40       1.0  0.58148  0.84709  0.47308  1.0000
  H   H149      1.0  0.58080  0.79446  0.49635  1.0000
  C   C248      1.0  0.58007  0.76852  0.37457  1.0000
  H   H150      1.0  0.58605  0.76690  0.43125  1.0000
  C   C249      1.0  0.22958  0.81070  0.38724  1.0000
  C   C250      1.0  0.21095  0.79218  0.37406  1.0000
  H   H151      1.0  0.20261  0.78406  0.42860  1.0000
  C   C251      1.0  0.25984  0.84050  0.32607  1.0000
  C   C252      1.0  0.29724  0.87722  0.35755  1.0000
  C   C253      1.0  0.28489  0.86537  0.43011  1.0000
  C   C254      1.0  0.26626  0.84699  0.41499  1.0000
  N   N41       1.0  0.25422  0.83522  0.48334  1.0000
  N   N42       1.0  0.23688  0.81805  0.47022  1.0000
  H   H152      1.0  0.28948  0.86998  0.49454  1.0000
  C   C255      1.0  0.31555  0.89537  0.37328  1.0000
  H   H153      1.0  0.31711  0.90289  0.43000  1.0000
  C   C256      1.0  0.78524  0.60964  0.38728  1.0000
  C   C257      1.0  0.76687  0.61009  0.37438  1.0000
  H   H154      1.0  0.75893  0.61052  0.42904  1.0000
  C   C258      1.0  0.81464  0.60856  0.32563  1.0000
  C   C259      1.0  0.85104  0.60721  0.35650  1.0000
  C   C260      1.0  0.83945  0.60802  0.42926  1.0000
  C   C261      1.0  0.82122  0.60860  0.41444  1.0000
  N   N43       1.0  0.80968  0.60916  0.48297  1.0000
  N   N44       1.0  0.79266  0.60964  0.47013  1.0000
  H   H155      1.0  0.84412  0.60801  0.49360  1.0000
  C   C262      1.0  0.86905  0.60672  0.37192  1.0000
  H   H156      1.0  0.87672  0.61268  0.42840  1.0000
  C   C263      1.0  0.47454  0.25940  0.38947  1.0000
  C   C264      1.0  0.47409  0.24059  0.37659  1.0000
  H   H157      1.0  0.47366  0.23217  0.43125  1.0000
  C   C265      1.0  0.47562  0.28994  0.32780  1.0000
  C   C266      1.0  0.47697  0.32766  0.35866  1.0000
  C   C267      1.0  0.47615  0.31519  0.43141  1.0000
  C   C268      1.0  0.47558  0.29639  0.41661  1.0000
  N   N45       1.0  0.47502  0.28422  0.48515  1.0000
  N   N46       1.0  0.47454  0.26673  0.47232  1.0000
  H   H158      1.0  0.47616  0.31979  0.49576  1.0000
  C   C269      1.0  0.47745  0.34614  0.37406  1.0000
  H   H159      1.0  0.47150  0.34780  0.43057  1.0000
  C   C270      1.0  0.82489  0.29896  0.38644  1.0000
  C   C271      1.0  0.84367  0.31732  0.37318  1.0000
  H   H160      1.0  0.85216  0.32529  0.42767  1.0000
  C   C272      1.0  0.79426  0.26954  0.32541  1.0000
  C   C273      1.0  0.75657  0.23315  0.35707  1.0000
  C   C274      1.0  0.76915  0.24476  0.42956  1.0000
  C   C275      1.0  0.78792  0.26299  0.41435  1.0000
  N   N47       1.0  0.80018  0.27455  0.48263  1.0000
  N   N48       1.0  0.81765  0.29157  0.46944  1.0000
  H   H161      1.0  0.76462  0.24012  0.49400  1.0000
  C   C276      1.0  0.73811  0.21516  0.37289  1.0000
  H   H162      1.0  0.73654  0.20749  0.42929  1.0000
