data_image0
_chemical_formula_structural       C2HNHC4H3CHCHC17H11C17H12C4H3NH2C4H3NH2C2H3C11H8C13H9C4H2C4HNH2C4H2C4HNH2C4HNH
_chemical_formula_sum              "C96 H72 N6"
_cell_length_a       44.8614
_cell_length_b       44.836
_cell_length_c       14.8801
_cell_angle_alpha    90
_cell_angle_beta     90
_cell_angle_gamma    120.03

_space_group_name_H-M_alt    "P 1"
_space_group_IT_number       1

loop_
  _space_group_symop_operation_xyz
  'x, y, z'

loop_
  _atom_site_type_symbol
  _atom_site_label
  _atom_site_symmetry_multiplicity
  _atom_site_fract_x
  _atom_site_fract_y
  _atom_site_fract_z
  _atom_site_occupancy
  C   C1        1.0  0.08029  0.56193  0.29334  1.0000
  C   C2        1.0  0.04386  0.54610  0.29325  1.0000
  H   H1        1.0  0.09439  0.58481  0.26002  1.0000
  N   N1        1.0  0.02906  0.56241  0.25115  1.0000
  H   H2        1.0  0.04296  0.58452  0.22138  1.0000
  C   C3        1.0  0.09781  0.54703  0.33676  1.0000
  C   C4        1.0  0.02419  0.51395  0.33811  1.0000
  C   C5        1.0  0.04141  0.49884  0.38143  1.0000
  C   C6        1.0  0.07753  0.51511  0.38077  1.0000
  H   H3        1.0  0.02774  0.47588  0.41475  1.0000
  H   H4        1.0  0.08893  0.50362  0.41480  1.0000
  H   H5        1.0  0.01106  0.53038  0.49762  1.0000
  C   C7        1.0  0.15196  0.54489  0.32477  1.0000
  H   H6        1.0  0.13830  0.51898  0.31232  1.0000
  C   C8        1.0  0.13471  0.56378  0.33742  1.0000
  H   H7        1.0  0.14403  0.61432  0.36461  1.0000
  C   C9        1.0  0.15529  0.59970  0.35281  1.0000
  C   C10       1.0  0.45272  0.85468  0.35045  1.0000
  C   C11       1.0  0.43284  0.81845  0.35407  1.0000
  C   C12       1.0  0.38072  0.74297  0.30426  1.0000
  C   C13       1.0  0.35997  0.70721  0.31052  1.0000
  C   C14       1.0  0.32356  0.69083  0.30993  1.0000
  C   C15       1.0  0.30262  0.65450  0.31043  1.0000
  C   C16       1.0  0.31898  0.63446  0.30969  1.0000
  C   C17       1.0  0.35529  0.64985  0.31027  1.0000
  C   C18       1.0  0.37534  0.68628  0.30976  1.0000
  C   C19       1.0  0.37027  0.62911  0.30396  1.0000
  C   C20       1.0  0.41284  0.61327  0.34404  1.0000
  C   C21       1.0  0.39370  0.57706  0.35408  1.0000
  C   C22       1.0  0.41003  0.55720  0.35042  1.0000
  C   C23       1.0  0.26688  0.63952  0.30430  1.0000
  C   C24       1.0  0.20846  0.59686  0.34396  1.0000
  C   C25       1.0  0.18813  0.56105  0.32840  1.0000
  H   H8        1.0  0.47873  0.86598  0.36016  1.0000
  H   H9        1.0  0.44499  0.80465  0.36576  1.0000
  H   H10       1.0  0.40164  0.69781  0.30677  1.0000
  H   H11       1.0  0.31206  0.70563  0.30712  1.0000
  H   H12       1.0  0.30419  0.60814  0.30670  1.0000
  H   H13       1.0  0.39535  0.53120  0.36057  1.0000
  H   H14       1.0  0.36776  0.56489  0.36609  1.0000
  H   H15       1.0  0.19950  0.54634  0.31965  1.0000
  H   H16       1.0  0.35961  0.60943  0.26109  1.0000
  H   H17       1.0  0.40037  0.75199  0.26130  1.0000
  H   H18       1.0  0.25787  0.65036  0.26203  1.0000
  C   C26       1.0  0.55978  0.15304  0.31729  1.0000
  C   C27       1.0  0.57875  0.18932  0.32039  1.0000
  C   C28       1.0  0.63215  0.26527  0.29681  1.0000
  C   C29       1.0  0.65236  0.30091  0.30426  1.0000
  C   C30       1.0  0.68874  0.31734  0.30377  1.0000
  C   C31       1.0  0.70939  0.35367  0.30414  1.0000
  C   C32       1.0  0.69298  0.37364  0.30335  1.0000
  C   C33       1.0  0.65667  0.35795  0.30390  1.0000
  C   C34       1.0  0.63669  0.32154  0.30348  1.0000
  C   C35       1.0  0.64128  0.37817  0.29627  1.0000
  C   C36       1.0  0.60155  0.39667  0.34793  1.0000
  C   C37       1.0  0.61873  0.43155  0.31997  1.0000
  C   C38       1.0  0.60145  0.45052  0.31691  1.0000
  C   C39       1.0  0.74501  0.36905  0.29664  1.0000
  C   C40       1.0  0.80331  0.40925  0.34698  1.0000
  C   C41       1.0  0.82342  0.44456  0.36950  1.0000
  C   C42       1.0  0.85964  0.46156  0.36729  1.0000
  H   H19       1.0  0.53449  0.14129  0.29811  1.0000
  H   H20       1.0  0.56659  0.20267  0.30322  1.0000
  H   H21       1.0  0.61036  0.30990  0.30053  1.0000
  H   H22       1.0  0.70035  0.30262  0.30101  1.0000
  H   H23       1.0  0.70768  0.39998  0.30023  1.0000
  H   H24       1.0  0.61504  0.47586  0.29806  1.0000
  H   H25       1.0  0.64427  0.44375  0.30315  1.0000
  H   H26       1.0  0.87314  0.48715  0.38370  1.0000
  H   H27       1.0  0.81183  0.45831  0.38825  1.0000
  H   H28       1.0  0.64809  0.39398  0.24377  1.0000
  H   H29       1.0  0.61642  0.25623  0.24416  1.0000
  H   H30       1.0  0.75399  0.36166  0.24527  1.0000
  C   C43       1.0  0.44848  0.52063  0.29111  1.0000
  C   C44       1.0  0.46433  0.50006  0.29099  1.0000
  C   C45       1.0  0.53353  0.49405  0.26816  1.0000
  C   C46       1.0  0.55117  0.47548  0.26852  1.0000
  H   H31       1.0  0.53532  0.50827  0.21244  1.0000
  H   H32       1.0  0.56491  0.47643  0.21263  1.0000
  H   H33       1.0  0.42595  0.51214  0.25633  1.0000
  N   N2        1.0  0.44848  0.46932  0.24695  1.0000
  H   H34       1.0  0.42668  0.46137  0.21579  1.0000
  H   H35       1.0  0.45795  0.45404  0.24613  1.0000
  C   C47       1.0  0.48926  0.92974  0.29109  1.0000
  C   C48       1.0  0.50989  0.96619  0.29102  1.0000
  C   C49       1.0  0.51622  0.04153  0.26868  1.0000
  C   C50       1.0  0.53481  0.07776  0.26913  1.0000
  H   H36       1.0  0.50204  0.02912  0.21289  1.0000
  H   H37       1.0  0.53393  0.09059  0.21321  1.0000
  H   H38       1.0  0.49764  0.91567  0.25603  1.0000
  N   N3        1.0  0.54053  0.98104  0.24660  1.0000
  H   H39       1.0  0.54837  0.96716  0.21515  1.0000
  H   H40       1.0  0.55586  0.00581  0.24582  1.0000
  C   C51       1.0  0.96858  0.47641  0.26816  1.0000
  C   C52       1.0  0.93238  0.45889  0.26828  1.0000
  H   H41       1.0  0.98103  0.47453  0.21262  1.0000
  H   H42       1.0  0.91956  0.44507  0.21248  1.0000
  H   H43       1.0  0.00430  0.55290  0.25026  1.0000
  C   C53       1.0  0.43721  0.87522  0.33770  1.0000
  C   C54       1.0  0.39663  0.80142  0.34453  1.0000
  C   C55       1.0  0.38099  0.82172  0.33161  1.0000
  C   C56       1.0  0.40094  0.85791  0.32785  1.0000
  C   C57       1.0  0.37621  0.76580  0.35257  1.0000
  C   C58       1.0  0.39767  0.63368  0.35213  1.0000
  C   C59       1.0  0.44877  0.62895  0.33068  1.0000
  C   C60       1.0  0.44607  0.57274  0.33727  1.0000
  C   C61       1.0  0.46501  0.60902  0.32696  1.0000
  C   C62       1.0  0.24403  0.61193  0.35191  1.0000
  C   C63       1.0  0.19149  0.61596  0.35631  1.0000
  H   H44       1.0  0.38855  0.87155  0.31740  1.0000
  H   H45       1.0  0.35481  0.81031  0.32491  1.0000
  H   H46       1.0  0.20532  0.64180  0.36992  1.0000
  H   H47       1.0  0.46352  0.65513  0.32364  1.0000
  H   H48       1.0  0.49102  0.62143  0.31617  1.0000
  H   H49       1.0  0.40856  0.65335  0.39493  1.0000
  H   H50       1.0  0.35657  0.75702  0.39543  1.0000
  H   H51       1.0  0.25275  0.60084  0.39417  1.0000
  C   C64       1.0  0.57465  0.13306  0.34402  1.0000
  C   C65       1.0  0.61355  0.20703  0.34889  1.0000
  C   C66       1.0  0.62847  0.18705  0.37501  1.0000
  C   C67       1.0  0.60942  0.15081  0.37262  1.0000
  C   C68       1.0  0.63284  0.24291  0.35598  1.0000
  C   C69       1.0  0.61810  0.37737  0.35516  1.0000
  C   C70       1.0  0.56659  0.38166  0.37359  1.0000
  C   C71       1.0  0.56654  0.43557  0.34317  1.0000
  C   C72       1.0  0.54943  0.40072  0.37123  1.0000
  C   C73       1.0  0.76747  0.39287  0.35421  1.0000
  C   C74       1.0  0.82084  0.39156  0.32224  1.0000
  C   C75       1.0  0.87718  0.44394  0.34234  1.0000
  C   C76       1.0  0.85709  0.40869  0.31917  1.0000
  H   H52       1.0  0.62137  0.13745  0.39152  1.0000
  H   H53       1.0  0.65352  0.19876  0.39643  1.0000
  H   H54       1.0  0.80739  0.36580  0.30777  1.0000
  H   H55       1.0  0.55318  0.35655  0.39465  1.0000
  H   H56       1.0  0.52407  0.38871  0.38980  1.0000
  H   H57       1.0  0.86876  0.39481  0.30260  1.0000
  H   H58       1.0  0.61144  0.36112  0.40680  1.0000
  H   H59       1.0  0.64902  0.25254  0.40777  1.0000
  H   H60       1.0  0.75798  0.40011  0.40482  1.0000
  C   C77       1.0  0.46287  0.55265  0.33656  1.0000
  C   C78       1.0  0.49599  0.51214  0.33797  1.0000
  C   C79       1.0  0.51061  0.54409  0.38325  1.0000
  C   C80       1.0  0.49432  0.56391  0.38258  1.0000
  H   H61       1.0  0.53322  0.55310  0.41804  1.0000
  H   H62       1.0  0.50542  0.58649  0.41809  1.0000
  C   C81       1.0  0.51349  0.49299  0.34271  1.0000
  C   C82       1.0  0.54920  0.45507  0.34313  1.0000
  C   C83       1.0  0.52929  0.45436  0.41781  1.0000
  C   C84       1.0  0.51139  0.47295  0.41928  1.0000
  H   H63       1.0  0.52803  0.44017  0.47311  1.0000
  N   N4        1.0  0.49256  0.47061  0.49344  1.0000
  H   H64       1.0  0.47940  0.48237  0.49735  1.0000
  H   H65       1.0  0.49133  0.45662  0.54494  1.0000
  C   C85       1.0  0.45735  0.91215  0.33695  1.0000
  C   C86       1.0  0.49797  0.98582  0.33844  1.0000
  C   C87       1.0  0.46611  0.96851  0.38409  1.0000
  C   C88       1.0  0.44623  0.93237  0.38339  1.0000
  H   H66       1.0  0.45721  0.98214  0.41919  1.0000
  H   H67       1.0  0.42373  0.92091  0.41918  1.0000
  C   C89       1.0  0.51718  0.02249  0.34324  1.0000
  C   C90       1.0  0.55515  0.09619  0.34387  1.0000
  C   C91       1.0  0.55576  0.07694  0.41856  1.0000
  C   C92       1.0  0.53715  0.04041  0.41992  1.0000
  H   H68       1.0  0.56989  0.08984  0.47397  1.0000
  N   N5        1.0  0.53942  0.02387  0.49410  1.0000
  H   H69       1.0  0.52767  0.99893  0.49791  1.0000
  H   H70       1.0  0.55337  0.03662  0.54566  1.0000
  C   C93       1.0  0.98755  0.49647  0.34274  1.0000
  C   C94       1.0  0.91397  0.46111  0.34257  1.0000
  C   C95       1.0  0.93312  0.48105  0.41725  1.0000
  C   C96       1.0  0.96962  0.49874  0.41906  1.0000
  H   H71       1.0  0.92016  0.48247  0.47227  1.0000
  N   N6        1.0  0.98612  0.51749  0.49335  1.0000
  H   H72       1.0  0.97337  0.51878  0.54475  1.0000
