data_image0
_chemical_formula_structural       CHC2NH2C2NO2COHCHC3HC2NOC3H2C3H2C3H2C3H2C3H2C6HNH2NO2C7H2NH2NO2C4HNH2C7H2NH2NO2C7H2NH2NO2C7H2NH2NO2C3NH2C6N2H4C6N2H4C2HCHNH2C2HC3HNH2NO2C2HC3HNH2NO2C2HC3HNH2NO2C2HC3HNH2NO2C2HC3HNH2NO2
_chemical_formula_sum              "C108 H72 N30 O24"
_cell_length_a       32.1325
_cell_length_b       32.1324
_cell_length_c       14.8355
_cell_angle_alpha    90
_cell_angle_beta     90
_cell_angle_gamma    120

_space_group_name_H-M_alt    "P 1"
_space_group_IT_number       1

loop_
  _space_group_symop_operation_xyz
  'x, y, z'

loop_
  _atom_site_type_symbol
  _atom_site_label
  _atom_site_symmetry_multiplicity
  _atom_site_fract_x
  _atom_site_fract_y
  _atom_site_fract_z
  _atom_site_occupancy
  C   C1        1.0  0.06524  0.56661  0.33762  1.0000
  H   H1        1.0  0.05057  0.58776  0.32668  1.0000
  C   C2        1.0  0.03500  0.51657  0.35868  1.0000
  C   C3        1.0  0.06000  0.49003  0.37273  1.0000
  N   N1        1.0  0.03896  0.44700  0.41658  1.0000
  H   H2        1.0  0.05515  0.42864  0.42520  1.0000
  H   H3        1.0  0.01086  0.43749  0.45415  1.0000
  C   C4        1.0  0.13567  0.55966  0.32746  1.0000
  C   C5        1.0  0.11606  0.59004  0.33427  1.0000
  N   N2        1.0  0.10840  0.66487  0.23127  1.0000
  O   O1        1.0  0.12235  0.67408  0.15085  1.0000
  O   O2        1.0  0.08592  0.68637  0.25047  1.0000
  C   C6        1.0  0.10915  0.50998  0.34543  1.0000
  O   O3        1.0  0.12815  0.45153  0.56014  1.0000
  H   H4        1.0  0.17191  0.57521  0.31543  1.0000
  C   C7        1.0  0.16035  0.48681  0.26346  1.0000
  H   H5        1.0  0.14741  0.49341  0.20523  1.0000
  C   C8        1.0  0.14932  0.64136  0.34161  1.0000
  C   C9        1.0  0.14730  0.67777  0.29090  1.0000
  C   C10       1.0  0.18559  0.72621  0.29672  1.0000
  H   H6        1.0  0.18355  0.75172  0.25866  1.0000
  C   C11       1.0  0.13822  0.48728  0.34586  1.0000
  C   C12       1.0  0.15895  0.48237  0.42673  1.0000
  N   N3        1.0  0.14099  0.48765  0.51060  1.0000
  O   O4        1.0  0.17169  0.52436  0.55211  1.0000
  C   C13       1.0  0.95148  0.44458  0.33782  1.0000
  C   C14       1.0  0.90067  0.42112  0.33456  1.0000
  C   C15       1.0  0.88102  0.45146  0.32768  1.0000
  H   H7        1.0  0.96617  0.42345  0.32679  1.0000
  H   H8        1.0  0.84475  0.43588  0.31588  1.0000
  C   C16       1.0  0.56931  0.50965  0.33778  1.0000
  C   C17       1.0  0.59276  0.48228  0.33451  1.0000
  C   C18       1.0  0.56240  0.43229  0.32773  1.0000
  H   H9        1.0  0.59044  0.54546  0.32670  1.0000
  H   H10       1.0  0.57794  0.41158  0.31574  1.0000
  C   C19       1.0  0.45422  0.57874  0.32742  1.0000
  C   C20       1.0  0.42384  0.52876  0.33438  1.0000
  C   C21       1.0  0.44727  0.50138  0.33768  1.0000
  H   H11       1.0  0.43865  0.59942  0.31538  1.0000
  H   H12       1.0  0.42613  0.46556  0.32670  1.0000
  C   C22       1.0  0.50417  0.06244  0.33765  1.0000
  C   C23       1.0  0.53153  0.11325  0.33443  1.0000
  C   C24       1.0  0.58152  0.13290  0.32759  1.0000
  H   H13       1.0  0.46835  0.04775  0.32666  1.0000
  H   H14       1.0  0.60220  0.16916  0.31567  1.0000
  C   C25       1.0  0.43509  0.87819  0.32781  1.0000
  C   C26       1.0  0.48508  0.89785  0.33463  1.0000
  C   C27       1.0  0.51244  0.94866  0.33778  1.0000
  H   H15       1.0  0.41439  0.84193  0.31596  1.0000
  H   H16       1.0  0.54825  0.96335  0.32670  1.0000
  C   C28       1.0  0.37253  0.51071  0.34173  1.0000
  C   C29       1.0  0.33610  0.47224  0.29110  1.0000
  C   C30       1.0  0.28767  0.46209  0.29693  1.0000
  C   C31       1.0  0.27428  0.49130  0.34668  1.0000
  C   C32       1.0  0.22582  0.48312  0.34153  1.0000
  C   C33       1.0  0.20492  0.48762  0.25982  1.0000
  H   H17       1.0  0.26215  0.43453  0.25889  1.0000
  N   N4        1.0  0.22747  0.49673  0.17836  1.0000
  H   H18       1.0  0.25974  0.50203  0.17183  1.0000
  H   H19       1.0  0.21299  0.50117  0.12415  1.0000
  N   N5        1.0  0.34899  0.44622  0.23149  1.0000
  O   O5        1.0  0.33977  0.45094  0.15106  1.0000
  O   O6        1.0  0.32750  0.40225  0.25076  1.0000
  C   C34       1.0  0.50320  0.86464  0.34202  1.0000
  C   C35       1.0  0.54156  0.86661  0.29114  1.0000
  C   C36       1.0  0.55165  0.82828  0.29681  1.0000
  C   C37       1.0  0.52251  0.78572  0.34672  1.0000
  C   C38       1.0  0.53064  0.74540  0.34150  1.0000
  C   C39       1.0  0.52612  0.72004  0.25972  1.0000
  C   C40       1.0  0.52696  0.67629  0.26325  1.0000
  H   H20       1.0  0.52044  0.65685  0.20491  1.0000
  H   H21       1.0  0.57920  0.83032  0.25875  1.0000
  N   N6        1.0  0.51709  0.73356  0.17828  1.0000
  H   H22       1.0  0.51150  0.76036  0.17197  1.0000
  H   H23       1.0  0.51242  0.71454  0.12413  1.0000
  N   N7        1.0  0.56753  0.90550  0.23146  1.0000
  O   O7        1.0  0.56269  0.89153  0.15103  1.0000
  O   O8        1.0  0.61153  0.92793  0.25051  1.0000
  C   C41       1.0  0.22817  0.73960  0.34654  1.0000
  C   C42       1.0  0.26845  0.78809  0.34148  1.0000
  C   C43       1.0  0.29390  0.80901  0.25982  1.0000
  C   C44       1.0  0.33765  0.85359  0.26353  1.0000
  H   H24       1.0  0.35726  0.86656  0.20539  1.0000
  N   N8        1.0  0.28053  0.78648  0.17834  1.0000
  H   H25       1.0  0.25356  0.75421  0.17176  1.0000
  H   H26       1.0  0.29947  0.80098  0.12417  1.0000
  C   C45       1.0  0.64408  0.50036  0.34193  1.0000
  C   C46       1.0  0.68050  0.53878  0.29119  1.0000
  C   C47       1.0  0.72893  0.54887  0.29690  1.0000
  C   C48       1.0  0.74232  0.51969  0.34676  1.0000
  C   C49       1.0  0.79079  0.52786  0.34167  1.0000
  C   C50       1.0  0.81171  0.52338  0.25995  1.0000
  C   C51       1.0  0.85630  0.52422  0.26362  1.0000
  H   H27       1.0  0.86928  0.51772  0.20533  1.0000
  H   H28       1.0  0.75445  0.57646  0.25895  1.0000
  N   N9        1.0  0.78922  0.51439  0.17844  1.0000
  H   H29       1.0  0.75685  0.50883  0.17203  1.0000
  H   H30       1.0  0.80363  0.50976  0.12434  1.0000
  N   N10       1.0  0.66762  0.56481  0.23160  1.0000
  O   O9        1.0  0.67679  0.56005  0.15116  1.0000
  O   O10       1.0  0.68916  0.60879  0.25082  1.0000
  C   C52       1.0  0.51345  0.14649  0.34174  1.0000
  C   C53       1.0  0.47500  0.14445  0.29103  1.0000
  C   C54       1.0  0.46483  0.18272  0.29683  1.0000
  C   C55       1.0  0.49401  0.22531  0.34664  1.0000
  C   C56       1.0  0.48580  0.26558  0.34154  1.0000
  C   C57       1.0  0.49034  0.29103  0.25988  1.0000
  C   C58       1.0  0.48954  0.33478  0.26360  1.0000
  H   H31       1.0  0.49617  0.35437  0.20543  1.0000
  H   H32       1.0  0.43729  0.18068  0.25876  1.0000
  N   N11       1.0  0.49948  0.27764  0.17840  1.0000
  H   H33       1.0  0.50476  0.25065  0.17182  1.0000
  H   H34       1.0  0.50393  0.29658  0.12423  1.0000
  N   N12       1.0  0.44901  0.10554  0.23140  1.0000
  O   O11       1.0  0.45376  0.11949  0.15097  1.0000
  O   O12       1.0  0.40504  0.08305  0.25060  1.0000
  C   C59       1.0  0.86745  0.36980  0.34201  1.0000
  C   C60       1.0  0.86940  0.33339  0.29113  1.0000
  C   C61       1.0  0.83107  0.28497  0.29682  1.0000
  C   C62       1.0  0.78853  0.27157  0.34679  1.0000
  C   C63       1.0  0.74821  0.22311  0.34165  1.0000
  C   C64       1.0  0.72278  0.20224  0.25992  1.0000
  C   C65       1.0  0.67903  0.15766  0.26356  1.0000
  H   H35       1.0  0.65954  0.14473  0.20528  1.0000
  H   H36       1.0  0.83310  0.25946  0.25876  1.0000
  N   N13       1.0  0.73626  0.22478  0.17846  1.0000
  H   H37       1.0  0.76307  0.25715  0.17208  1.0000
  H   H38       1.0  0.71720  0.21041  0.12436  1.0000
  N   N14       1.0  0.90828  0.34631  0.23142  1.0000
  O   O13       1.0  0.89430  0.33719  0.15100  1.0000
  O   O14       1.0  0.93071  0.32474  0.25043  1.0000
  C   C66       1.0  0.98171  0.49463  0.35871  1.0000
  C   C67       1.0  0.90749  0.50113  0.34574  1.0000
  C   C68       1.0  0.95670  0.52116  0.37277  1.0000
  N   N15       1.0  0.97785  0.56430  0.41628  1.0000
  H   H39       1.0  0.00578  0.57359  0.45419  1.0000
  H   H40       1.0  0.96139  0.58237  0.42538  1.0000
  C   C69       1.0  0.51926  0.48983  0.35865  1.0000
  C   C70       1.0  0.51273  0.40912  0.34581  1.0000
  C   C71       1.0  0.49272  0.43830  0.37282  1.0000
  C   C72       1.0  0.49733  0.52120  0.35858  1.0000
  C   C73       1.0  0.52386  0.57274  0.37258  1.0000
  C   C74       1.0  0.50393  0.60193  0.34514  1.0000
  N   N16       1.0  0.44958  0.41634  0.41638  1.0000
  N   N17       1.0  0.56693  0.59476  0.41633  1.0000
  H   H41       1.0  0.44033  0.43501  0.45427  1.0000
  H   H42       1.0  0.43153  0.38182  0.42555  1.0000
  H   H43       1.0  0.58530  0.62932  0.42480  1.0000
  H   H44       1.0  0.57645  0.57620  0.45395  1.0000
  C   C75       1.0  0.52399  0.03220  0.35862  1.0000
  C   C76       1.0  0.60471  0.10643  0.34577  1.0000
  C   C77       1.0  0.57553  0.05722  0.37273  1.0000
  C   C78       1.0  0.49262  0.97891  0.35861  1.0000
  C   C79       1.0  0.44108  0.95390  0.37275  1.0000
  C   C80       1.0  0.41190  0.90466  0.34589  1.0000
  N   N18       1.0  0.59755  0.03610  0.41624  1.0000
  N   N19       1.0  0.41908  0.97506  0.41620  1.0000
  H   H45       1.0  0.57889  0.00813  0.45409  1.0000
  H   H46       1.0  0.63206  0.05243  0.42529  1.0000
  H   H47       1.0  0.38458  0.95859  0.42553  1.0000
  H   H48       1.0  0.43779  0.00295  0.45419  1.0000
  C   C81       1.0  0.31060  0.52953  0.39881  1.0000
  C   C82       1.0  0.35748  0.53592  0.39968  1.0000
  H   H49       1.0  0.38272  0.56301  0.43909  1.0000
  C   C83       1.0  0.20008  0.47690  0.42284  1.0000
  H   H50       1.0  0.21510  0.47502  0.48252  1.0000
  N   N20       1.0  0.30361  0.56240  0.44453  1.0000
  H   H51       1.0  0.32985  0.58916  0.47643  1.0000
  H   H52       1.0  0.27452  0.56410  0.43763  1.0000
  C   C84       1.0  0.48438  0.78388  0.39906  1.0000
  C   C85       1.0  0.47800  0.82437  0.39994  1.0000
  H   H53       1.0  0.45100  0.82259  0.43953  1.0000
  C   C86       1.0  0.52657  0.65370  0.34559  1.0000
  C   C87       1.0  0.53150  0.67927  0.42656  1.0000
  C   C88       1.0  0.53686  0.72583  0.42275  1.0000
  H   H54       1.0  0.53888  0.74281  0.48240  1.0000
  N   N21       1.0  0.45149  0.74405  0.44484  1.0000
  H   H55       1.0  0.42488  0.74359  0.47722  1.0000
  H   H56       1.0  0.44986  0.71327  0.43827  1.0000
  N   N22       1.0  0.52632  0.65603  0.51040  1.0000
  O   O15       1.0  0.48960  0.64995  0.55201  1.0000
  O   O16       1.0  0.56245  0.67936  0.55987  1.0000
  C   C89       1.0  0.23006  0.70329  0.39871  1.0000
  C   C90       1.0  0.18956  0.65641  0.39959  1.0000
  H   H57       1.0  0.19140  0.63118  0.43905  1.0000
  C   C91       1.0  0.36011  0.87564  0.34606  1.0000
  C   C92       1.0  0.33448  0.85493  0.42693  1.0000
  C   C93       1.0  0.28788  0.81378  0.42286  1.0000
  H   H58       1.0  0.27094  0.79873  0.48248  1.0000
  N   N23       1.0  0.26991  0.71029  0.44449  1.0000
  H   H59       1.0  0.27042  0.68405  0.47642  1.0000
  H   H60       1.0  0.30070  0.73937  0.43759  1.0000
  N   N24       1.0  0.35765  0.87286  0.51085  1.0000
  O   O17       1.0  0.36363  0.84215  0.55238  1.0000
  O   O18       1.0  0.33432  0.88567  0.56032  1.0000
  C   C94       1.0  0.70601  0.48151  0.39894  1.0000
  C   C95       1.0  0.65912  0.47510  0.39976  1.0000
  H   H61       1.0  0.63389  0.44807  0.43927  1.0000
  C   C96       1.0  0.87841  0.52385  0.34607  1.0000
  C   C97       1.0  0.85772  0.52873  0.42698  1.0000
  C   C98       1.0  0.81651  0.53406  0.42301  1.0000
  H   H62       1.0  0.80149  0.53605  0.48261  1.0000
  N   N25       1.0  0.71293  0.44858  0.44460  1.0000
  H   H63       1.0  0.68680  0.42201  0.47709  1.0000
  H   H64       1.0  0.74213  0.44702  0.43839  1.0000
  N   N26       1.0  0.87572  0.52353  0.51086  1.0000
  O   O19       1.0  0.84506  0.48679  0.55241  1.0000
  O   O20       1.0  0.88847  0.55964  0.56035  1.0000
  C   C99       1.0  0.53222  0.22722  0.39883  1.0000
  C   C100      1.0  0.53861  0.18673  0.39974  1.0000
  H   H65       1.0  0.56567  0.18858  0.43922  1.0000
  C   C101      1.0  0.48998  0.35734  0.34605  1.0000
  C   C102      1.0  0.48504  0.33165  0.42687  1.0000
  C   C103      1.0  0.47954  0.28503  0.42288  1.0000
  H   H66       1.0  0.47765  0.26811  0.48253  1.0000
  N   N27       1.0  0.56507  0.26708  0.44460  1.0000
  H   H67       1.0  0.59182  0.26760  0.47654  1.0000
  H   H68       1.0  0.56677  0.29787  0.43766  1.0000
  N   N28       1.0  0.49030  0.35483  0.51079  1.0000
  O   O21       1.0  0.52700  0.36081  0.55230  1.0000
  O   O22       1.0  0.45417  0.33153  0.56030  1.0000
  C   C104      1.0  0.78670  0.30786  0.39912  1.0000
  C   C105      1.0  0.82719  0.35475  0.39994  1.0000
  H   H69       1.0  0.82542  0.37997  0.43951  1.0000
  C   C106      1.0  0.65650  0.13548  0.34595  1.0000
  C   C107      1.0  0.68213  0.15614  0.42685  1.0000
  C   C108      1.0  0.72870  0.19733  0.42292  1.0000
  H   H70       1.0  0.74572  0.21230  0.48253  1.0000
  N   N29       1.0  0.74688  0.30093  0.44491  1.0000
  H   H71       1.0  0.74648  0.32705  0.47751  1.0000
  H   H72       1.0  0.71612  0.27174  0.43872  1.0000
  N   N30       1.0  0.65897  0.13811  0.51075  1.0000
  O   O23       1.0  0.65294  0.16876  0.55242  1.0000
  O   O24       1.0  0.68234  0.12531  0.56013  1.0000
