data_image0
_chemical_formula_structural       C8H8CNCHC16H4CNC2HCNCNC2H2C8H8CNCHC16H4CNC2HCNCNC2H2C8H8CNCHC16H4CNC2HCNCNC2H2C8H8CNCHC16H4CNC2HCNCNC2H2
_chemical_formula_sum              "C132 H64 N16"
_cell_length_a       25.1912
_cell_length_b       25.191
_cell_length_c       14.9522
_cell_angle_alpha    90
_cell_angle_beta     90
_cell_angle_gamma    89.9977

_space_group_name_H-M_alt    "P 1"
_space_group_IT_number       1

loop_
  _space_group_symop_operation_xyz
  'x, y, z'

loop_
  _atom_site_type_symbol
  _atom_site_label
  _atom_site_symmetry_multiplicity
  _atom_site_fract_x
  _atom_site_fract_y
  _atom_site_fract_z
  _atom_site_occupancy
  C   C1        1.0  0.99834  0.47621  0.29250  1.0000
  C   C2        1.0  0.99850  0.03159  0.29268  1.0000
  C   C3        1.0  0.00425  0.14197  0.32839  1.0000
  C   C4        1.0  0.00296  0.12236  0.23942  1.0000
  C   C5        1.0  0.99967  0.06779  0.22141  1.0000
  C   C6        1.0  0.99844  0.44020  0.22097  1.0000
  C   C7        1.0  0.00077  0.38553  0.23862  1.0000
  C   C8        1.0  0.00384  0.36552  0.32733  1.0000
  H   H1        1.0  0.14287  0.00267  0.03432  1.0000
  H   H2        1.0  0.05020  0.00541  0.06259  1.0000
  H   H3        1.0  0.44802  0.50418  0.06221  1.0000
  H   H4        1.0  0.35542  0.49919  0.03321  1.0000
  H   H5        1.0  0.00407  0.14780  0.18605  1.0000
  H   H6        1.0  0.99911  0.05519  0.15703  1.0000
  H   H7        1.0  0.99766  0.45298  0.15667  1.0000
  H   H8        1.0  0.00046  0.36031  0.18498  1.0000
  C   C9        1.0  0.54282  0.27917  0.28429  1.0000
  N   N1        1.0  0.04092  0.22557  0.28516  1.0000
  C   C10       1.0  0.00927  0.19766  0.34171  1.0000
  H   H9        1.0  0.56707  0.29692  0.23838  1.0000
  C   C11       1.0  0.99950  0.45786  0.38069  1.0000
  C   C12       1.0  0.99941  0.04971  0.38103  1.0000
  C   C13       1.0  0.00125  0.10488  0.39970  1.0000
  C   C14       1.0  0.00184  0.40266  0.39885  1.0000
  C   C15       1.0  0.04536  0.00377  0.50522  1.0000
  C   C16       1.0  0.02700  0.00490  0.59341  1.0000
  C   C17       1.0  0.47162  0.50462  0.59323  1.0000
  C   C18       1.0  0.45350  0.50378  0.50488  1.0000
  C   C19       1.0  0.43543  0.50352  0.66451  1.0000
  C   C20       1.0  0.38085  0.50025  0.64651  1.0000
  C   C21       1.0  0.36124  0.49892  0.55754  1.0000
  C   C22       1.0  0.39833  0.50191  0.48622  1.0000
  C   C23       1.0  0.10056  0.00145  0.48709  1.0000
  C   C24       1.0  0.13769  0.99940  0.55861  1.0000
  C   C25       1.0  0.11766  0.00241  0.64732  1.0000
  C   C26       1.0  0.06300  0.00474  0.66496  1.0000
  H   H10       1.0  0.38569  0.50039  0.42128  1.0000
  H   H11       1.0  0.11320  0.99897  0.42224  1.0000
  H   H12       1.0  0.00278  0.11751  0.46464  1.0000
  H   H13       1.0  0.00427  0.39003  0.46371  1.0000
  C   C27       1.0  0.99949  0.00373  0.44296  1.0000
  N   N2        1.0  0.97857  0.22563  0.40006  1.0000
  C   C28       1.0  0.47852  0.27980  0.40219  1.0000
  C   C29       1.0  0.50928  0.30940  0.34054  1.0000
  H   H14       1.0  0.45268  0.29850  0.44438  1.0000
  C   C30       1.0  0.22341  0.52461  0.48366  1.0000
  N   N3        1.0  0.27758  0.52459  0.48588  1.0000
  C   C31       1.0  0.30554  0.49394  0.54432  1.0000
  N   N4        1.0  0.27763  0.46226  0.60080  1.0000
  C   C32       1.0  0.22403  0.46040  0.60170  1.0000
  C   C33       1.0  0.19381  0.49395  0.54547  1.0000
  H   H15       1.0  0.20475  0.55051  0.44152  1.0000
  H   H16       1.0  0.20626  0.43609  0.64750  1.0000
  C   C34       1.0  0.99834  0.97620  0.29250  1.0000
  C   C35       1.0  0.99850  0.53159  0.29268  1.0000
  C   C36       1.0  0.00425  0.64197  0.32839  1.0000
  C   C37       1.0  0.00296  0.62236  0.23942  1.0000
  C   C38       1.0  0.99967  0.56779  0.22141  1.0000
  C   C39       1.0  0.99844  0.94020  0.22097  1.0000
  C   C40       1.0  0.00077  0.88553  0.23862  1.0000
  C   C41       1.0  0.00384  0.86552  0.32733  1.0000
  H   H17       1.0  0.14287  0.50267  0.03432  1.0000
  H   H18       1.0  0.05020  0.50541  0.06259  1.0000
  H   H19       1.0  0.44802  0.00418  0.06221  1.0000
  H   H20       1.0  0.35542  0.99919  0.03321  1.0000
  H   H21       1.0  0.00407  0.64780  0.18605  1.0000
  H   H22       1.0  0.99910  0.55519  0.15703  1.0000
  H   H23       1.0  0.99766  0.95298  0.15667  1.0000
  H   H24       1.0  0.00046  0.86031  0.18498  1.0000
  C   C42       1.0  0.54282  0.77917  0.28429  1.0000
  N   N5        1.0  0.04092  0.72557  0.28516  1.0000
  C   C43       1.0  0.00927  0.69766  0.34171  1.0000
  H   H25       1.0  0.56707  0.79692  0.23838  1.0000
  C   C44       1.0  0.99950  0.95786  0.38069  1.0000
  C   C45       1.0  0.99941  0.54971  0.38103  1.0000
  C   C46       1.0  0.00125  0.60487  0.39970  1.0000
  C   C47       1.0  0.00184  0.90265  0.39885  1.0000
  C   C48       1.0  0.04536  0.50377  0.50522  1.0000
  C   C49       1.0  0.02700  0.50491  0.59341  1.0000
  C   C50       1.0  0.47162  0.00462  0.59323  1.0000
  C   C51       1.0  0.45350  0.00378  0.50488  1.0000
  C   C52       1.0  0.43543  0.00352  0.66451  1.0000
  C   C53       1.0  0.38085  0.00025  0.64651  1.0000
  C   C54       1.0  0.36124  0.99892  0.55754  1.0000
  C   C55       1.0  0.39833  0.00191  0.48622  1.0000
  C   C56       1.0  0.10056  0.50145  0.48709  1.0000
  C   C57       1.0  0.13769  0.49939  0.55861  1.0000
  C   C58       1.0  0.11766  0.50241  0.64732  1.0000
  C   C59       1.0  0.06300  0.50474  0.66496  1.0000
  H   H26       1.0  0.38569  0.00039  0.42128  1.0000
  H   H27       1.0  0.11320  0.49897  0.42224  1.0000
  H   H28       1.0  0.00278  0.61751  0.46464  1.0000
  H   H29       1.0  0.00427  0.89003  0.46371  1.0000
  C   C60       1.0  0.99949  0.50372  0.44296  1.0000
  N   N6        1.0  0.97857  0.72563  0.40006  1.0000
  C   C61       1.0  0.47852  0.77980  0.40219  1.0000
  C   C62       1.0  0.50928  0.80940  0.34054  1.0000
  H   H30       1.0  0.45268  0.79850  0.44438  1.0000
  C   C63       1.0  0.22341  0.02461  0.48366  1.0000
  N   N7        1.0  0.27758  0.02459  0.48588  1.0000
  C   C64       1.0  0.30554  0.99394  0.54432  1.0000
  N   N8        1.0  0.27763  0.96226  0.60080  1.0000
  C   C65       1.0  0.22403  0.96040  0.60170  1.0000
  C   C66       1.0  0.19381  0.99396  0.54547  1.0000
  H   H31       1.0  0.20475  0.05051  0.44152  1.0000
  H   H32       1.0  0.20626  0.93609  0.64750  1.0000
  C   C67       1.0  0.49834  0.47621  0.29250  1.0000
  C   C68       1.0  0.49850  0.03159  0.29268  1.0000
  C   C69       1.0  0.50425  0.14197  0.32839  1.0000
  C   C70       1.0  0.50296  0.12236  0.23942  1.0000
  C   C71       1.0  0.49967  0.06779  0.22141  1.0000
  C   C72       1.0  0.49844  0.44020  0.22097  1.0000
  C   C73       1.0  0.50077  0.38553  0.23862  1.0000
  C   C74       1.0  0.50384  0.36552  0.32733  1.0000
  H   H33       1.0  0.64287  0.00267  0.03432  1.0000
  H   H34       1.0  0.55020  0.00541  0.06259  1.0000
  H   H35       1.0  0.94802  0.50418  0.06221  1.0000
  H   H36       1.0  0.85542  0.49919  0.03321  1.0000
  H   H37       1.0  0.50407  0.14780  0.18605  1.0000
  H   H38       1.0  0.49910  0.05519  0.15703  1.0000
  H   H39       1.0  0.49766  0.45298  0.15667  1.0000
  H   H40       1.0  0.50045  0.36031  0.18498  1.0000
  C   C75       1.0  0.04282  0.27917  0.28429  1.0000
  N   N9        1.0  0.54092  0.22557  0.28516  1.0000
  C   C76       1.0  0.50926  0.19766  0.34171  1.0000
  H   H41       1.0  0.06706  0.29692  0.23838  1.0000
  C   C77       1.0  0.49950  0.45786  0.38069  1.0000
  C   C78       1.0  0.49941  0.04971  0.38103  1.0000
  C   C79       1.0  0.50125  0.10488  0.39970  1.0000
  C   C80       1.0  0.50184  0.40266  0.39885  1.0000
  C   C81       1.0  0.54536  0.00377  0.50522  1.0000
  C   C82       1.0  0.52700  0.00490  0.59341  1.0000
  C   C83       1.0  0.97162  0.50462  0.59323  1.0000
  C   C84       1.0  0.95350  0.50378  0.50488  1.0000
  C   C85       1.0  0.93543  0.50352  0.66451  1.0000
  C   C86       1.0  0.88085  0.50025  0.64651  1.0000
  C   C87       1.0  0.86124  0.49892  0.55754  1.0000
  C   C88       1.0  0.89833  0.50191  0.48622  1.0000
  C   C89       1.0  0.60056  0.00145  0.48709  1.0000
  C   C90       1.0  0.63769  0.99940  0.55861  1.0000
  C   C91       1.0  0.61766  0.00241  0.64732  1.0000
  C   C92       1.0  0.56300  0.00474  0.66496  1.0000
  H   H42       1.0  0.88569  0.50039  0.42128  1.0000
  H   H43       1.0  0.61320  0.99897  0.42224  1.0000
  H   H44       1.0  0.50278  0.11751  0.46464  1.0000
  H   H45       1.0  0.50427  0.39003  0.46371  1.0000
  C   C93       1.0  0.49949  0.00373  0.44296  1.0000
  N   N10       1.0  0.47857  0.22563  0.40006  1.0000
  C   C94       1.0  0.97852  0.27980  0.40219  1.0000
  C   C95       1.0  0.00928  0.30940  0.34054  1.0000
  H   H46       1.0  0.95268  0.29850  0.44438  1.0000
  C   C96       1.0  0.72341  0.52461  0.48366  1.0000
  N   N11       1.0  0.77758  0.52459  0.48588  1.0000
  C   C97       1.0  0.80554  0.49394  0.54432  1.0000
  N   N12       1.0  0.77763  0.46226  0.60080  1.0000
  C   C98       1.0  0.72404  0.46040  0.60170  1.0000
  C   C99       1.0  0.69381  0.49395  0.54547  1.0000
  H   H47       1.0  0.70476  0.55051  0.44152  1.0000
  H   H48       1.0  0.70626  0.43609  0.64750  1.0000
  C   C100      1.0  0.49834  0.97620  0.29250  1.0000
  C   C101      1.0  0.49850  0.53159  0.29268  1.0000
  C   C102      1.0  0.50425  0.64197  0.32839  1.0000
  C   C103      1.0  0.50296  0.62236  0.23942  1.0000
  C   C104      1.0  0.49967  0.56779  0.22141  1.0000
  C   C105      1.0  0.49844  0.94020  0.22097  1.0000
  C   C106      1.0  0.50077  0.88553  0.23862  1.0000
  C   C107      1.0  0.50384  0.86552  0.32733  1.0000
  H   H49       1.0  0.64287  0.50267  0.03432  1.0000
  H   H50       1.0  0.55020  0.50541  0.06259  1.0000
  H   H51       1.0  0.94802  0.00418  0.06221  1.0000
  H   H52       1.0  0.85542  0.99919  0.03321  1.0000
  H   H53       1.0  0.50407  0.64780  0.18605  1.0000
  H   H54       1.0  0.49910  0.55519  0.15703  1.0000
  H   H55       1.0  0.49766  0.95298  0.15667  1.0000
  H   H56       1.0  0.50046  0.86031  0.18498  1.0000
  C   C108      1.0  0.04282  0.77917  0.28429  1.0000
  N   N13       1.0  0.54092  0.72557  0.28516  1.0000
  C   C109      1.0  0.50926  0.69766  0.34171  1.0000
  H   H57       1.0  0.06707  0.79692  0.23838  1.0000
  C   C110      1.0  0.49950  0.95786  0.38069  1.0000
  C   C111      1.0  0.49941  0.54971  0.38103  1.0000
  C   C112      1.0  0.50125  0.60487  0.39970  1.0000
  C   C113      1.0  0.50184  0.90265  0.39885  1.0000
  C   C114      1.0  0.54536  0.50377  0.50522  1.0000
  C   C115      1.0  0.52700  0.50491  0.59341  1.0000
  C   C116      1.0  0.97162  0.00462  0.59323  1.0000
  C   C117      1.0  0.95350  0.00378  0.50488  1.0000
  C   C118      1.0  0.93543  0.00352  0.66451  1.0000
  C   C119      1.0  0.88085  0.00025  0.64651  1.0000
  C   C120      1.0  0.86124  0.99892  0.55754  1.0000
  C   C121      1.0  0.89833  0.00191  0.48622  1.0000
  C   C122      1.0  0.60056  0.50145  0.48709  1.0000
  C   C123      1.0  0.63769  0.49939  0.55861  1.0000
  C   C124      1.0  0.61766  0.50241  0.64732  1.0000
  C   C125      1.0  0.56300  0.50474  0.66496  1.0000
  H   H58       1.0  0.88569  0.00039  0.42128  1.0000
  H   H59       1.0  0.61320  0.49897  0.42224  1.0000
  H   H60       1.0  0.50278  0.61751  0.46464  1.0000
  H   H61       1.0  0.50427  0.89003  0.46371  1.0000
  C   C126      1.0  0.49949  0.50372  0.44296  1.0000
  N   N14       1.0  0.47857  0.72563  0.40006  1.0000
  C   C127      1.0  0.97852  0.77980  0.40219  1.0000
  C   C128      1.0  0.00928  0.80940  0.34054  1.0000
  H   H62       1.0  0.95268  0.79850  0.44438  1.0000
  C   C129      1.0  0.72341  0.02461  0.48366  1.0000
  N   N15       1.0  0.77758  0.02459  0.48588  1.0000
  C   C130      1.0  0.80554  0.99394  0.54432  1.0000
  N   N16       1.0  0.77763  0.96226  0.60080  1.0000
  C   C131      1.0  0.72404  0.96040  0.60170  1.0000
  C   C132      1.0  0.69381  0.99396  0.54547  1.0000
  H   H63       1.0  0.70476  0.05051  0.44152  1.0000
  H   H64       1.0  0.70626  0.93609  0.64750  1.0000
