data_image0
_chemical_formula_structural       C16H16C3NC3NC5NC5NC36H26N4CNCNCNC3H3CNCNCNC3H3
_chemical_formula_sum              "C80 H48 N14"
_cell_length_a       29.0819
_cell_length_b       25.1702
_cell_length_c       14.9521
_cell_angle_alpha    90.148
_cell_angle_beta     89.872
_cell_angle_gamma    89.6943

_space_group_name_H-M_alt    "P 1"
_space_group_IT_number       1

loop_
  _space_group_symop_operation_xyz
  'x, y, z'

loop_
  _atom_site_type_symbol
  _atom_site_label
  _atom_site_symmetry_multiplicity
  _atom_site_fract_x
  _atom_site_fract_y
  _atom_site_fract_z
  _atom_site_occupancy
  C   C1        1.0  0.73975  0.16156  0.28336  1.0000
  C   C2        1.0  0.70536  0.20104  0.28411  1.0000
  C   C3        1.0  0.58333  0.30303  0.31876  1.0000
  C   C4        1.0  0.61607  0.26163  0.31988  1.0000
  C   C5        1.0  0.74241  0.84698  0.27814  1.0000
  C   C6        1.0  0.70702  0.80906  0.27501  1.0000
  C   C7        1.0  0.65357  0.70725  0.29696  1.0000
  C   C8        1.0  0.61948  0.66782  0.29439  1.0000
  C   C9        1.0  0.05283  0.80990  0.28305  1.0000
  C   C10       1.0  0.01855  0.84951  0.28242  1.0000
  C   C11       1.0  0.14174  0.74891  0.31974  1.0000
  C   C12       1.0  0.17446  0.70749  0.31880  1.0000
  C   C13       1.0  0.01599  0.16316  0.27775  1.0000
  C   C14       1.0  0.05147  0.20095  0.27463  1.0000
  C   C15       1.0  0.13918  0.34213  0.29329  1.0000
  C   C16       1.0  0.10505  0.30275  0.29571  1.0000
  H   H1        1.0  0.13411  0.37469  0.25360  1.0000
  H   H2        1.0  0.07587  0.30865  0.25886  1.0000
  H   H3        1.0  0.06093  0.21553  0.21351  1.0000
  H   H4        1.0  0.00051  0.15173  0.21941  1.0000
  H   H5        1.0  0.01013  0.86742  0.22322  1.0000
  H   H6        1.0  0.06795  0.79932  0.22370  1.0000
  H   H7        1.0  0.75827  0.85793  0.21988  1.0000
  H   H8        1.0  0.69802  0.79391  0.21398  1.0000
  H   H9        1.0  0.62490  0.63495  0.25528  1.0000
  H   H10       1.0  0.68304  0.70109  0.26077  1.0000
  H   H11       1.0  0.60857  0.22689  0.28745  1.0000
  H   H12       1.0  0.55339  0.29783  0.28417  1.0000
  H   H13       1.0  0.69061  0.21174  0.22470  1.0000
  H   H14       1.0  0.74864  0.14387  0.22399  1.0000
  H   H15       1.0  0.14960  0.78378  0.28827  1.0000
  H   H16       1.0  0.20476  0.71280  0.28529  1.0000
  C   C17       1.0  0.90568  0.17199  0.36113  1.0000
  C   C18       1.0  0.85821  0.17302  0.36121  1.0000
  C   C19       1.0  0.84244  0.12065  0.36297  1.0000
  N   N1        1.0  0.88086  0.08997  0.36364  1.0000
  C   C20       1.0  0.92009  0.11897  0.36238  1.0000
  C   C21       1.0  0.96678  0.10172  0.36265  1.0000
  C   C22       1.0  0.98080  0.04761  0.36337  1.0000
  N   N2        1.0  0.95379  0.00405  0.36300  1.0000
  C   C23       1.0  0.97876  0.95867  0.36325  1.0000
  C   C24       1.0  0.02484  0.97418  0.36415  1.0000
  C   C25       1.0  0.02610  0.02896  0.36373  1.0000
  C   C26       1.0  0.96241  0.90559  0.36262  1.0000
  C   C27       1.0  0.91535  0.89028  0.36228  1.0000
  N   N3        1.0  0.87693  0.92096  0.36333  1.0000
  C   C28       1.0  0.83770  0.89197  0.36222  1.0000
  C   C29       1.0  0.85211  0.83894  0.36066  1.0000
  C   C30       1.0  0.89958  0.83791  0.36037  1.0000
  C   C31       1.0  0.79100  0.90920  0.36291  1.0000
  C   C32       1.0  0.77699  0.96331  0.36395  1.0000
  N   N4        1.0  0.80401  0.00687  0.36367  1.0000
  C   C33       1.0  0.77904  0.05225  0.36408  1.0000
  C   C34       1.0  0.73296  0.03675  0.36495  1.0000
  C   C35       1.0  0.73169  0.98197  0.36436  1.0000
  C   C36       1.0  0.79539  0.10533  0.36353  1.0000
  C   C37       1.0  0.76163  0.14640  0.36361  1.0000
  C   C38       1.0  0.69227  0.22652  0.36482  1.0000
  C   C39       1.0  0.71449  0.21110  0.44489  1.0000
  C   C40       1.0  0.74858  0.17130  0.44450  1.0000
  C   C41       1.0  0.65845  0.26765  0.36515  1.0000
  C   C42       1.0  0.66709  0.31639  0.40921  1.0000
  C   C43       1.0  0.63465  0.35792  0.40730  1.0000
  C   C44       1.0  0.59240  0.35161  0.36263  1.0000
  C   C45       1.0  0.75573  0.86990  0.36030  1.0000
  C   C46       1.0  0.68353  0.79297  0.35354  1.0000
  C   C47       1.0  0.69699  0.81656  0.43554  1.0000
  C   C48       1.0  0.73255  0.85432  0.43902  1.0000
  C   C49       1.0  0.64814  0.75350  0.35020  1.0000
  C   C50       1.0  0.57873  0.67277  0.34574  1.0000
  C   C51       1.0  0.57252  0.71930  0.39722  1.0000
  C   C52       1.0  0.60679  0.75876  0.39999  1.0000
  C   C53       1.0  0.99617  0.86449  0.36256  1.0000
  C   C54       1.0  0.00856  0.83923  0.44320  1.0000
  C   C55       1.0  0.04249  0.79926  0.44344  1.0000
  C   C56       1.0  0.06523  0.78402  0.36349  1.0000
  C   C57       1.0  0.09891  0.74277  0.36369  1.0000
  C   C58       1.0  0.16492  0.65876  0.36148  1.0000
  C   C59       1.0  0.12221  0.65231  0.40470  1.0000
  C   C60       1.0  0.08978  0.69387  0.40648  1.0000
  C   C61       1.0  0.00206  0.14100  0.36005  1.0000
  C   C62       1.0  0.02473  0.15719  0.43891  1.0000
  C   C63       1.0  0.07446  0.21766  0.35329  1.0000
  C   C64       1.0  0.06039  0.19483  0.43542  1.0000
  C   C65       1.0  0.10996  0.25700  0.34992  1.0000
  C   C66       1.0  0.15090  0.25215  0.40072  1.0000
  C   C67       1.0  0.18523  0.29153  0.39806  1.0000
  C   C68       1.0  0.17947  0.33761  0.34570  1.0000
  H   H17       1.0  0.21412  0.28691  0.43629  1.0000
  H   H18       1.0  0.15639  0.21939  0.43972  1.0000
  H   H19       1.0  0.07538  0.20627  0.49420  1.0000
  H   H20       1.0  0.01541  0.14163  0.49945  1.0000
  H   H21       1.0  0.92594  0.20505  0.36018  1.0000
  H   H22       1.0  0.83881  0.20700  0.36009  1.0000
  H   H23       1.0  0.88015  0.05187  0.36529  1.0000
  H   H24       1.0  0.87765  0.95907  0.36518  1.0000
  H   H25       1.0  0.05553  0.05097  0.36383  1.0000
  H   H26       1.0  0.05328  0.95016  0.36470  1.0000
  H   H27       1.0  0.99301  0.84979  0.50218  1.0000
  H   H28       1.0  0.05096  0.78190  0.50306  1.0000
  H   H29       1.0  0.91898  0.80392  0.35895  1.0000
  H   H30       1.0  0.83186  0.80587  0.35977  1.0000
  H   H31       1.0  0.70451  0.06078  0.36545  1.0000
  H   H32       1.0  0.70225  0.95997  0.36428  1.0000
  H   H33       1.0  0.74144  0.87041  0.49948  1.0000
  H   H34       1.0  0.68161  0.80560  0.49423  1.0000
  H   H35       1.0  0.60093  0.79189  0.43823  1.0000
  H   H36       1.0  0.54328  0.72427  0.43461  1.0000
  H   H37       1.0  0.76373  0.16057  0.50357  1.0000
  H   H38       1.0  0.70552  0.22817  0.50470  1.0000
  H   H39       1.0  0.64236  0.39311  0.43824  1.0000
  H   H40       1.0  0.69777  0.32278  0.44083  1.0000
  H   H41       1.0  0.05879  0.68741  0.43709  1.0000
  H   H42       1.0  0.11417  0.61702  0.43477  1.0000
  N   N5        1.0  0.56499  0.39368  0.36001  1.0000
  N   N6        1.0  0.21174  0.37545  0.34683  1.0000
  N   N7        1.0  0.19241  0.61673  0.35922  1.0000
  N   N8        1.0  0.54639  0.63499  0.34665  1.0000
  C   C69       1.0  0.25232  0.55741  0.34554  1.0000
  N   N9        1.0  0.29817  0.54724  0.34394  1.0000
  C   C70       1.0  0.31514  0.49667  0.34607  1.0000
  N   N10       1.0  0.28452  0.45557  0.34947  1.0000
  C   C71       1.0  0.23821  0.46443  0.35113  1.0000
  N   N11       1.0  0.22328  0.51552  0.34903  1.0000
  C   C72       1.0  0.20455  0.42584  0.35383  1.0000
  C   C73       1.0  0.23526  0.60854  0.34299  1.0000
  C   C74       1.0  0.36230  0.48670  0.34535  1.0000
  H   H43       1.0  0.37181  0.44870  0.34567  1.0000
  H   H44       1.0  0.25611  0.63856  0.32916  1.0000
  H   H45       1.0  0.17214  0.43849  0.36031  1.0000
  C   C75       1.0  0.50537  0.45315  0.34513  1.0000
  N   N12       1.0  0.45955  0.46344  0.34359  1.0000
  C   C76       1.0  0.44266  0.51405  0.34576  1.0000
  N   N13       1.0  0.47335  0.55509  0.34917  1.0000
  C   C77       1.0  0.51965  0.54611  0.35075  1.0000
  N   N14       1.0  0.53448  0.49497  0.34862  1.0000
  C   C78       1.0  0.55341  0.58459  0.35361  1.0000
  C   C79       1.0  0.52233  0.40197  0.34267  1.0000
  C   C80       1.0  0.39551  0.52408  0.34521  1.0000
  H   H46       1.0  0.38601  0.56209  0.34541  1.0000
  H   H47       1.0  0.50156  0.37200  0.32797  1.0000
  H   H48       1.0  0.58576  0.57184  0.36028  1.0000
