data_image0
_chemical_formula_structural       CHC2HC3H2C2H2CHC23H15C24H15C4HNH2C4HNH2C2NH2
_chemical_formula_sum              "C66 H45 N3"
_cell_length_a       30.0642
_cell_length_b       30.0641
_cell_length_c       14.8895
_cell_angle_alpha    90
_cell_angle_beta     90
_cell_angle_gamma    120

_space_group_name_H-M_alt    "P 1"
_space_group_IT_number       1

loop_
  _space_group_symop_operation_xyz
  'x, y, z'

loop_
  _atom_site_type_symbol
  _atom_site_label
  _atom_site_symmetry_multiplicity
  _atom_site_fract_x
  _atom_site_fract_y
  _atom_site_fract_z
  _atom_site_occupancy
  C   C1        1.0  0.03205  0.51696  0.26229  1.0000
  H   H1        1.0  0.05063  0.52624  0.20167  1.0000
  C   C2        1.0  0.06018  0.53102  0.34314  1.0000
  C   C3        1.0  0.03336  0.51761  0.42552  1.0000
  H   H2        1.0  0.05388  0.52787  0.48426  1.0000
  C   C4        1.0  0.11454  0.55820  0.34172  1.0000
  C   C5        1.0  0.51931  0.48997  0.26392  1.0000
  C   C6        1.0  0.49233  0.51696  0.26229  1.0000
  H   H3        1.0  0.52904  0.48024  0.20412  1.0000
  H   H4        1.0  0.48304  0.52624  0.20167  1.0000
  C   C7        1.0  0.51931  0.03120  0.26392  1.0000
  C   C8        1.0  0.49233  0.97723  0.26229  1.0000
  H   H5        1.0  0.52904  0.05066  0.20412  1.0000
  H   H6        1.0  0.48304  0.95865  0.20167  1.0000
  C   C9        1.0  0.97808  0.48997  0.26392  1.0000
  H   H7        1.0  0.95862  0.48024  0.20412  1.0000
  C   C10       1.0  0.28279  0.64232  0.34049  1.0000
  C   C11       1.0  0.31243  0.61743  0.34046  1.0000
  C   C12       1.0  0.36696  0.64232  0.34049  1.0000
  C   C13       1.0  0.39185  0.69686  0.34046  1.0000
  C   C14       1.0  0.36696  0.72649  0.34049  1.0000
  C   C15       1.0  0.31243  0.69686  0.34046  1.0000
  C   C16       1.0  0.39528  0.61401  0.34071  1.0000
  C   C17       1.0  0.37029  0.55917  0.34094  1.0000
  C   C18       1.0  0.39710  0.53190  0.34148  1.0000
  C   C19       1.0  0.45108  0.55820  0.34172  1.0000
  C   C20       1.0  0.47738  0.61218  0.34148  1.0000
  C   C21       1.0  0.45011  0.63899  0.34094  1.0000
  C   C22       1.0  0.22615  0.61401  0.34071  1.0000
  C   C23       1.0  0.19631  0.55917  0.34094  1.0000
  C   C24       1.0  0.14222  0.53190  0.34148  1.0000
  C   C25       1.0  0.14222  0.61218  0.34148  1.0000
  C   C26       1.0  0.19631  0.63899  0.34094  1.0000
  C   C27       1.0  0.39528  0.78313  0.34071  1.0000
  C   C28       1.0  0.37029  0.81297  0.34094  1.0000
  C   C29       1.0  0.39710  0.86706  0.34148  1.0000
  C   C30       1.0  0.45109  0.89474  0.34172  1.0000
  C   C31       1.0  0.47738  0.86706  0.34148  1.0000
  C   C32       1.0  0.45011  0.81297  0.34094  1.0000
  H   H8        1.0  0.12314  0.49255  0.34186  1.0000
  H   H9        1.0  0.21274  0.53675  0.34088  1.0000
  H   H10       1.0  0.12314  0.63244  0.34185  1.0000
  H   H11       1.0  0.21274  0.67785  0.34087  1.0000
  H   H12       1.0  0.33143  0.79654  0.34087  1.0000
  H   H13       1.0  0.37684  0.88614  0.34185  1.0000
  H   H14       1.0  0.47253  0.79654  0.34087  1.0000
  H   H15       1.0  0.51672  0.88614  0.34185  1.0000
  H   H16       1.0  0.47253  0.67785  0.34087  1.0000
  H   H17       1.0  0.51673  0.63244  0.34185  1.0000
  H   H18       1.0  0.37684  0.49255  0.34185  1.0000
  H   H19       1.0  0.33143  0.53675  0.34087  1.0000
  H   H20       1.0  0.29318  0.57893  0.34040  1.0000
  H   H21       1.0  0.29318  0.71610  0.34040  1.0000
  H   H22       1.0  0.43035  0.71610  0.34040  1.0000
  C   C33       1.0  0.72835  0.36511  0.34028  1.0000
  C   C34       1.0  0.69871  0.39000  0.34021  1.0000
  C   C35       1.0  0.64418  0.36511  0.34028  1.0000
  C   C36       1.0  0.61928  0.31057  0.34021  1.0000
  C   C37       1.0  0.64418  0.28092  0.34027  1.0000
  C   C38       1.0  0.69871  0.31057  0.34022  1.0000
  C   C39       1.0  0.61586  0.39342  0.34079  1.0000
  C   C40       1.0  0.64084  0.44826  0.34130  1.0000
  C   C41       1.0  0.61403  0.47553  0.34256  1.0000
  C   C42       1.0  0.56005  0.44923  0.34334  1.0000
  C   C43       1.0  0.53375  0.39525  0.34257  1.0000
  C   C44       1.0  0.56102  0.36844  0.34129  1.0000
  C   C45       1.0  0.78500  0.39342  0.34079  1.0000
  C   C46       1.0  0.81484  0.44826  0.34129  1.0000
  C   C47       1.0  0.86893  0.47553  0.34256  1.0000
  C   C48       1.0  0.89662  0.44923  0.34334  1.0000
  C   C49       1.0  0.86893  0.39525  0.34256  1.0000
  C   C50       1.0  0.81484  0.36844  0.34130  1.0000
  C   C51       1.0  0.61586  0.22428  0.34080  1.0000
  C   C52       1.0  0.64084  0.19444  0.34129  1.0000
  C   C53       1.0  0.61403  0.14035  0.34257  1.0000
  C   C54       1.0  0.56005  0.11267  0.34334  1.0000
  C   C55       1.0  0.53375  0.14035  0.34256  1.0000
  C   C56       1.0  0.56102  0.19444  0.34130  1.0000
  H   H23       1.0  0.88801  0.51487  0.34340  1.0000
  H   H24       1.0  0.79840  0.47068  0.34107  1.0000
  H   H25       1.0  0.88801  0.37499  0.34339  1.0000
  H   H26       1.0  0.79841  0.32958  0.34105  1.0000
  H   H27       1.0  0.67970  0.21087  0.34106  1.0000
  H   H28       1.0  0.63429  0.12127  0.34339  1.0000
  H   H29       1.0  0.53860  0.21087  0.34107  1.0000
  H   H30       1.0  0.49441  0.12127  0.34340  1.0000
  H   H31       1.0  0.53860  0.32958  0.34105  1.0000
  H   H32       1.0  0.49441  0.37499  0.34339  1.0000
  H   H33       1.0  0.63429  0.51487  0.34339  1.0000
  H   H34       1.0  0.67970  0.47068  0.34106  1.0000
  H   H35       1.0  0.71796  0.42850  0.34011  1.0000
  H   H36       1.0  0.71796  0.29132  0.34013  1.0000
  H   H37       1.0  0.58078  0.29132  0.34012  1.0000
  C   C57       1.0  0.47826  0.53102  0.34314  1.0000
  C   C58       1.0  0.49167  0.51761  0.42552  1.0000
  C   C59       1.0  0.51889  0.49039  0.42873  1.0000
  C   C60       1.0  0.53281  0.47647  0.34632  1.0000
  H   H38       1.0  0.48141  0.52787  0.48426  1.0000
  N   N1        1.0  0.53065  0.47863  0.51037  1.0000
  H   H39       1.0  0.52077  0.48851  0.56588  1.0000
  H   H40       1.0  0.54924  0.46005  0.51622  1.0000
  C   C61       1.0  0.47826  0.94909  0.34314  1.0000
  C   C62       1.0  0.49167  0.97592  0.42552  1.0000
  C   C63       1.0  0.51889  0.03035  0.42873  1.0000
  C   C64       1.0  0.53281  0.05820  0.34631  1.0000
  H   H41       1.0  0.48142  0.95541  0.48426  1.0000
  N   N2        1.0  0.53065  0.05388  0.51037  1.0000
  H   H42       1.0  0.52077  0.03411  0.56588  1.0000
  H   H43       1.0  0.54924  0.09105  0.51622  1.0000
  C   C65       1.0  0.97893  0.49039  0.42873  1.0000
  C   C66       1.0  0.95108  0.47647  0.34631  1.0000
  N   N3        1.0  0.95540  0.47863  0.51037  1.0000
  H   H44       1.0  0.97517  0.48851  0.56588  1.0000
  H   H45       1.0  0.91824  0.46005  0.51622  1.0000
