data_image0
_chemical_formula_structural       C15H12C2HNO2C2HNO2C2NC2NC5NC3NC17H14C4HNO2C4HNO2C15H12C2HNO2C2HNO2C2NC2NC5NC3NC17H14C4HNO2C4HNO2C15H12C2HNO2C2HNO2C2NC2NC5NC3NC17H14C4HNO2C4HNO2C15H12C2HNO2C2HNO2C2NC2NC5NC3NC17H14C4HNO2C4HNO2
_chemical_formula_sum              "C224 H120 N32 O32"
_cell_length_a       42.7506
_cell_length_b       42.7506
_cell_length_c       14.901
_cell_angle_alpha    90
_cell_angle_beta     90
_cell_angle_gamma    90

_space_group_name_H-M_alt    "P 1"
_space_group_IT_number       1

loop_
  _space_group_symop_operation_xyz
  'x, y, z'

loop_
  _atom_site_type_symbol
  _atom_site_label
  _atom_site_symmetry_multiplicity
  _atom_site_fract_x
  _atom_site_fract_y
  _atom_site_fract_z
  _atom_site_occupancy
  C   C1        1.0  0.43647  0.47425  0.33735  1.0000
  C   C2        1.0  0.03268  0.43592  0.33963  1.0000
  C   C3        1.0  0.50233  0.08526  0.34253  1.0000
  C   C4        1.0  0.47271  0.07022  0.34030  1.0000
  C   C5        1.0  0.42078  0.06225  0.33923  1.0000
  C   C6        1.0  0.44362  0.08508  0.33889  1.0000
  C   C7        1.0  0.33715  0.50700  0.25897  1.0000
  C   C8        1.0  0.37011  0.50701  0.25823  1.0000
  C   C9        1.0  0.50264  0.11870  0.34261  1.0000
  C   C10       1.0  0.50673  0.16834  0.26130  1.0000
  C   C11       1.0  0.50676  0.13539  0.26171  1.0000
  C   C12       1.0  0.13545  0.01457  0.26896  1.0000
  C   C13       1.0  0.16839  0.01517  0.26916  1.0000
  C   C14       1.0  0.01297  0.37002  0.26216  1.0000
  C   C15       1.0  0.01325  0.33708  0.26312  1.0000
  H   H1        1.0  0.02169  0.32550  0.20813  1.0000
  H   H2        1.0  0.02090  0.38148  0.20633  1.0000
  H   H3        1.0  0.44009  0.39896  0.32237  1.0000
  H   H4        1.0  0.12377  0.02279  0.21384  1.0000
  H   H5        1.0  0.17972  0.02413  0.21442  1.0000
  H   H6        1.0  0.06483  0.10729  0.36310  1.0000
  H   H7        1.0  0.39727  0.06657  0.33848  1.0000
  H   H8        1.0  0.43931  0.10859  0.33870  1.0000
  H   H9        1.0  0.50979  0.12367  0.20247  1.0000
  H   H10       1.0  0.51023  0.17957  0.20152  1.0000
  H   H11       1.0  0.38161  0.50997  0.19861  1.0000
  H   H12       1.0  0.32570  0.51043  0.19951  1.0000
  C   C16       1.0  0.98600  0.26939  0.27230  1.0000
  C   C17       1.0  0.98637  0.23625  0.27403  1.0000
  H   H13       1.0  0.97387  0.22442  0.22629  1.0000
  N   N1        1.0  0.96872  0.28546  0.20540  1.0000
  O   O1        1.0  0.94006  0.27909  0.20923  1.0000
  O   O2        1.0  0.97857  0.27917  0.12795  1.0000
  C   C18       1.0  0.23590  0.98748  0.27379  1.0000
  C   C19       1.0  0.26904  0.98765  0.27400  1.0000
  H   H14       1.0  0.28052  0.97532  0.22520  1.0000
  N   N2        1.0  0.21936  0.97069  0.20679  1.0000
  O   O3        1.0  0.22560  0.94198  0.20883  1.0000
  O   O4        1.0  0.22524  0.98100  0.12958  1.0000
  C   C20       1.0  0.44459  0.42230  0.32907  1.0000
  C   C21       1.0  0.42179  0.44517  0.32983  1.0000
  N   N3        1.0  0.46755  0.46787  0.34141  1.0000
  C   C22       1.0  0.47380  0.43676  0.33698  1.0000
  C   C23       1.0  0.50306  0.42072  0.33824  1.0000
  N   N4        1.0  0.03879  0.46700  0.34086  1.0000
  C   C24       1.0  0.06987  0.47313  0.34084  1.0000
  C   C25       1.0  0.08464  0.44399  0.33859  1.0000
  C   C26       1.0  0.06183  0.42117  0.33973  1.0000
  C   C27       1.0  0.08507  0.50274  0.34339  1.0000
  C   C28       1.0  0.06901  0.03196  0.34603  1.0000
  N   N5        1.0  0.03793  0.03824  0.34031  1.0000
  C   C29       1.0  0.03155  0.06931  0.34548  1.0000
  C   C30       1.0  0.06057  0.08392  0.35556  1.0000
  C   C31       1.0  0.08341  0.06110  0.35663  1.0000
  N   N6        1.0  0.46667  0.03917  0.34058  1.0000
  C   C32       1.0  0.43562  0.03314  0.33973  1.0000
  C   C33       1.0  0.42056  0.50352  0.33874  1.0000
  C   C34       1.0  0.38713  0.50325  0.33873  1.0000
  C   C35       1.0  0.37044  0.99942  0.41975  1.0000
  C   C36       1.0  0.33749  0.99945  0.42019  1.0000
  C   C37       1.0  0.32010  0.50328  0.33990  1.0000
  C   C38       1.0  0.99862  0.13570  0.42303  1.0000
  C   C39       1.0  0.99867  0.16866  0.42236  1.0000
  C   C40       1.0  0.50267  0.18570  0.34153  1.0000
  C   C41       1.0  0.11864  0.50316  0.34386  1.0000
  C   C42       1.0  0.18563  0.50360  0.34314  1.0000
  C   C43       1.0  0.16873  0.49200  0.41775  1.0000
  C   C44       1.0  0.13578  0.49221  0.41872  1.0000
  C   C45       1.0  0.50267  0.38715  0.33780  1.0000
  C   C46       1.0  0.49195  0.37032  0.41350  1.0000
  C   C47       1.0  0.49137  0.33738  0.41330  1.0000
  C   C48       1.0  0.50231  0.32014  0.33851  1.0000
  H   H15       1.0  0.48289  0.32604  0.46864  1.0000
  H   H16       1.0  0.48420  0.38198  0.46920  1.0000
  H   H17       1.0  0.39838  0.44086  0.32392  1.0000
  H   H18       1.0  0.48337  0.48364  0.34893  1.0000
  H   H19       1.0  0.02227  0.02254  0.32938  1.0000
  H   H20       1.0  0.06631  0.39771  0.33937  1.0000
  H   H21       1.0  0.10810  0.43953  0.33755  1.0000
  H   H22       1.0  0.12434  0.48380  0.47400  1.0000
  H   H23       1.0  0.18033  0.48311  0.47213  1.0000
  H   H24       1.0  0.10671  0.06553  0.36486  1.0000
  H   H25       1.0  0.99546  0.12419  0.48255  1.0000
  H   H26       1.0  0.99513  0.18013  0.48174  1.0000
  H   H27       1.0  0.32630  0.99609  0.48008  1.0000
  H   H28       1.0  0.38217  0.99656  0.47906  1.0000
  C   C49       1.0  0.00255  0.21927  0.34083  1.0000
  C   C50       1.0  0.01864  0.23670  0.40685  1.0000
  C   C51       1.0  0.01886  0.26984  0.40700  1.0000
  C   C52       1.0  0.00239  0.28658  0.33925  1.0000
  H   H29       1.0  0.03120  0.22519  0.45510  1.0000
  N   N7        1.0  0.03609  0.28635  0.47310  1.0000
  O   O5        1.0  0.02630  0.28047  0.55086  1.0000
  O   O6        1.0  0.06478  0.28008  0.46948  1.0000
  C   C53       1.0  0.28651  0.00340  0.34064  1.0000
  C   C54       1.0  0.26951  0.01925  0.40811  1.0000
  C   C55       1.0  0.23637  0.01954  0.41003  1.0000
  C   C56       1.0  0.21918  0.00355  0.34233  1.0000
  H   H30       1.0  0.28132  0.03150  0.45640  1.0000
  N   N8        1.0  0.22030  0.03636  0.47790  1.0000
  O   O7        1.0  0.22663  0.02600  0.55477  1.0000
  O   O8        1.0  0.22662  0.06505  0.47563  1.0000
  C   C57       1.0  0.43647  0.97425  0.33735  1.0000
  C   C58       1.0  0.03268  0.93592  0.33963  1.0000
  C   C59       1.0  0.50233  0.58527  0.34253  1.0000
  C   C60       1.0  0.47271  0.57022  0.34030  1.0000
  C   C61       1.0  0.42078  0.56225  0.33923  1.0000
  C   C62       1.0  0.44362  0.58508  0.33889  1.0000
  C   C63       1.0  0.33715  0.00700  0.25897  1.0000
  C   C64       1.0  0.37011  0.00701  0.25823  1.0000
  C   C65       1.0  0.50264  0.61870  0.34261  1.0000
  C   C66       1.0  0.50673  0.66834  0.26130  1.0000
  C   C67       1.0  0.50676  0.63540  0.26171  1.0000
  C   C68       1.0  0.13545  0.51457  0.26896  1.0000
  C   C69       1.0  0.16839  0.51517  0.26916  1.0000
  C   C70       1.0  0.01297  0.87002  0.26216  1.0000
  C   C71       1.0  0.01325  0.83708  0.26312  1.0000
  H   H31       1.0  0.02169  0.82550  0.20813  1.0000
  H   H32       1.0  0.02090  0.88148  0.20633  1.0000
  H   H33       1.0  0.44009  0.89896  0.32237  1.0000
  H   H34       1.0  0.12377  0.52279  0.21384  1.0000
  H   H35       1.0  0.17972  0.52412  0.21442  1.0000
  H   H36       1.0  0.06483  0.60728  0.36310  1.0000
  H   H37       1.0  0.39727  0.56657  0.33848  1.0000
  H   H38       1.0  0.43931  0.60859  0.33870  1.0000
  H   H39       1.0  0.50979  0.62367  0.20247  1.0000
  H   H40       1.0  0.51023  0.67957  0.20152  1.0000
  H   H41       1.0  0.38161  0.00997  0.19861  1.0000
  H   H42       1.0  0.32570  0.01043  0.19951  1.0000
  C   C72       1.0  0.98600  0.76939  0.27230  1.0000
  C   C73       1.0  0.98637  0.73625  0.27403  1.0000
  H   H43       1.0  0.97387  0.72442  0.22629  1.0000
  N   N9        1.0  0.96872  0.78546  0.20540  1.0000
  O   O9        1.0  0.94006  0.77909  0.20923  1.0000
  O   O10       1.0  0.97857  0.77917  0.12795  1.0000
  C   C74       1.0  0.23590  0.48748  0.27379  1.0000
  C   C75       1.0  0.26904  0.48765  0.27400  1.0000
  H   H44       1.0  0.28052  0.47532  0.22520  1.0000
  N   N10       1.0  0.21936  0.47069  0.20679  1.0000
  O   O11       1.0  0.22560  0.44198  0.20883  1.0000
  O   O12       1.0  0.22524  0.48100  0.12958  1.0000
  C   C76       1.0  0.44459  0.92231  0.32907  1.0000
  C   C77       1.0  0.42179  0.94517  0.32983  1.0000
  N   N11       1.0  0.46755  0.96787  0.34141  1.0000
  C   C78       1.0  0.47380  0.93676  0.33698  1.0000
  C   C79       1.0  0.50306  0.92071  0.33824  1.0000
  N   N12       1.0  0.03879  0.96700  0.34086  1.0000
  C   C80       1.0  0.06987  0.97313  0.34084  1.0000
  C   C81       1.0  0.08464  0.94399  0.33859  1.0000
  C   C82       1.0  0.06183  0.92117  0.33973  1.0000
  C   C83       1.0  0.08507  0.00274  0.34339  1.0000
  C   C84       1.0  0.06901  0.53196  0.34603  1.0000
  N   N13       1.0  0.03793  0.53824  0.34031  1.0000
  C   C85       1.0  0.03155  0.56931  0.34548  1.0000
  C   C86       1.0  0.06057  0.58391  0.35556  1.0000
  C   C87       1.0  0.08341  0.56110  0.35663  1.0000
  N   N14       1.0  0.46667  0.53917  0.34058  1.0000
  C   C88       1.0  0.43562  0.53314  0.33973  1.0000
  C   C89       1.0  0.42056  0.00352  0.33874  1.0000
  C   C90       1.0  0.38713  0.00325  0.33873  1.0000
  C   C91       1.0  0.37044  0.49942  0.41975  1.0000
  C   C92       1.0  0.33749  0.49945  0.42019  1.0000
  C   C93       1.0  0.32010  0.00328  0.33990  1.0000
  C   C94       1.0  0.99862  0.63570  0.42303  1.0000
  C   C95       1.0  0.99867  0.66866  0.42236  1.0000
  C   C96       1.0  0.50267  0.68570  0.34153  1.0000
  C   C97       1.0  0.11864  0.00316  0.34386  1.0000
  C   C98       1.0  0.18563  0.00361  0.34314  1.0000
  C   C99       1.0  0.16873  0.99200  0.41775  1.0000
  C   C100      1.0  0.13578  0.99221  0.41872  1.0000
  C   C101      1.0  0.50267  0.88715  0.33780  1.0000
  C   C102      1.0  0.49195  0.87032  0.41350  1.0000
  C   C103      1.0  0.49137  0.83738  0.41330  1.0000
  C   C104      1.0  0.50231  0.82014  0.33851  1.0000
  H   H45       1.0  0.48289  0.82604  0.46864  1.0000
  H   H46       1.0  0.48420  0.88198  0.46920  1.0000
  H   H47       1.0  0.39838  0.94086  0.32392  1.0000
  H   H48       1.0  0.48337  0.98364  0.34893  1.0000
  H   H49       1.0  0.02227  0.52255  0.32938  1.0000
  H   H50       1.0  0.06631  0.89771  0.33937  1.0000
  H   H51       1.0  0.10810  0.93953  0.33755  1.0000
  H   H52       1.0  0.12434  0.98380  0.47400  1.0000
  H   H53       1.0  0.18033  0.98311  0.47213  1.0000
  H   H54       1.0  0.10671  0.56553  0.36486  1.0000
  H   H55       1.0  0.99546  0.62419  0.48255  1.0000
  H   H56       1.0  0.99513  0.68013  0.48174  1.0000
  H   H57       1.0  0.32630  0.49609  0.48008  1.0000
  H   H58       1.0  0.38217  0.49656  0.47906  1.0000
  C   C105      1.0  0.00255  0.71927  0.34083  1.0000
  C   C106      1.0  0.01864  0.73670  0.40685  1.0000
  C   C107      1.0  0.01886  0.76985  0.40700  1.0000
  C   C108      1.0  0.00239  0.78658  0.33925  1.0000
  H   H59       1.0  0.03120  0.72519  0.45510  1.0000
  N   N15       1.0  0.03609  0.78635  0.47310  1.0000
  O   O13       1.0  0.02630  0.78047  0.55086  1.0000
  O   O14       1.0  0.06478  0.78009  0.46948  1.0000
  C   C109      1.0  0.28651  0.50340  0.34064  1.0000
  C   C110      1.0  0.26951  0.51925  0.40811  1.0000
  C   C111      1.0  0.23637  0.51955  0.41003  1.0000
  C   C112      1.0  0.21918  0.50355  0.34233  1.0000
  H   H60       1.0  0.28132  0.53150  0.45640  1.0000
  N   N16       1.0  0.22030  0.53636  0.47790  1.0000
  O   O15       1.0  0.22663  0.52600  0.55477  1.0000
  O   O16       1.0  0.22662  0.56505  0.47563  1.0000
  C   C113      1.0  0.93647  0.47425  0.33735  1.0000
  C   C114      1.0  0.53268  0.43592  0.33963  1.0000
  C   C115      1.0  0.00233  0.08526  0.34253  1.0000
  C   C116      1.0  0.97271  0.07022  0.34030  1.0000
  C   C117      1.0  0.92078  0.06225  0.33923  1.0000
  C   C118      1.0  0.94362  0.08508  0.33889  1.0000
  C   C119      1.0  0.83715  0.50700  0.25897  1.0000
  C   C120      1.0  0.87011  0.50701  0.25823  1.0000
  C   C121      1.0  0.00264  0.11870  0.34261  1.0000
  C   C122      1.0  0.00673  0.16834  0.26130  1.0000
  C   C123      1.0  0.00676  0.13539  0.26171  1.0000
  C   C124      1.0  0.63545  0.01457  0.26896  1.0000
  C   C125      1.0  0.66839  0.01517  0.26916  1.0000
  C   C126      1.0  0.51297  0.37002  0.26216  1.0000
  C   C127      1.0  0.51325  0.33708  0.26312  1.0000
  H   H61       1.0  0.52169  0.32550  0.20813  1.0000
  H   H62       1.0  0.52090  0.38148  0.20633  1.0000
  H   H63       1.0  0.94009  0.39896  0.32237  1.0000
  H   H64       1.0  0.62377  0.02279  0.21384  1.0000
  H   H65       1.0  0.67972  0.02413  0.21442  1.0000
  H   H66       1.0  0.56483  0.10729  0.36310  1.0000
  H   H67       1.0  0.89727  0.06657  0.33848  1.0000
  H   H68       1.0  0.93931  0.10859  0.33870  1.0000
  H   H69       1.0  0.00979  0.12367  0.20247  1.0000
  H   H70       1.0  0.01023  0.17957  0.20152  1.0000
  H   H71       1.0  0.88161  0.50997  0.19861  1.0000
  H   H72       1.0  0.82570  0.51043  0.19951  1.0000
  C   C128      1.0  0.48600  0.26939  0.27230  1.0000
  C   C129      1.0  0.48637  0.23625  0.27403  1.0000
  H   H73       1.0  0.47387  0.22442  0.22629  1.0000
  N   N17       1.0  0.46872  0.28546  0.20540  1.0000
  O   O17       1.0  0.44006  0.27909  0.20923  1.0000
  O   O18       1.0  0.47857  0.27917  0.12795  1.0000
  C   C130      1.0  0.73590  0.98748  0.27379  1.0000
  C   C131      1.0  0.76904  0.98765  0.27400  1.0000
  H   H74       1.0  0.78051  0.97532  0.22520  1.0000
  N   N18       1.0  0.71936  0.97069  0.20679  1.0000
  O   O19       1.0  0.72560  0.94198  0.20883  1.0000
  O   O20       1.0  0.72524  0.98100  0.12958  1.0000
  C   C132      1.0  0.94459  0.42230  0.32907  1.0000
  C   C133      1.0  0.92180  0.44517  0.32983  1.0000
  N   N19       1.0  0.96755  0.46787  0.34141  1.0000
  C   C134      1.0  0.97380  0.43676  0.33698  1.0000
  C   C135      1.0  0.00305  0.42072  0.33824  1.0000
  N   N20       1.0  0.53879  0.46700  0.34086  1.0000
  C   C136      1.0  0.56987  0.47313  0.34084  1.0000
  C   C137      1.0  0.58464  0.44399  0.33859  1.0000
  C   C138      1.0  0.56183  0.42117  0.33973  1.0000
  C   C139      1.0  0.58508  0.50274  0.34339  1.0000
  C   C140      1.0  0.56901  0.03196  0.34603  1.0000
  N   N21       1.0  0.53793  0.03824  0.34031  1.0000
  C   C141      1.0  0.53155  0.06931  0.34548  1.0000
  C   C142      1.0  0.56058  0.08392  0.35556  1.0000
  C   C143      1.0  0.58341  0.06110  0.35663  1.0000
  N   N22       1.0  0.96667  0.03917  0.34058  1.0000
  C   C144      1.0  0.93562  0.03314  0.33973  1.0000
  C   C145      1.0  0.92056  0.50352  0.33874  1.0000
  C   C146      1.0  0.88713  0.50325  0.33873  1.0000
  C   C147      1.0  0.87043  0.99942  0.41975  1.0000
  C   C148      1.0  0.83749  0.99945  0.42019  1.0000
  C   C149      1.0  0.82010  0.50328  0.33990  1.0000
  C   C150      1.0  0.49862  0.13570  0.42303  1.0000
  C   C151      1.0  0.49867  0.16866  0.42236  1.0000
  C   C152      1.0  0.00266  0.18570  0.34153  1.0000
  C   C153      1.0  0.61864  0.50316  0.34386  1.0000
  C   C154      1.0  0.68563  0.50360  0.34314  1.0000
  C   C155      1.0  0.66873  0.49200  0.41775  1.0000
  C   C156      1.0  0.63578  0.49221  0.41872  1.0000
  C   C157      1.0  0.00266  0.38715  0.33780  1.0000
  C   C158      1.0  0.99195  0.37032  0.41350  1.0000
  C   C159      1.0  0.99137  0.33738  0.41330  1.0000
  C   C160      1.0  0.00231  0.32014  0.33851  1.0000
  H   H75       1.0  0.98289  0.32604  0.46864  1.0000
  H   H76       1.0  0.98420  0.38198  0.46920  1.0000
  H   H77       1.0  0.89838  0.44086  0.32392  1.0000
  H   H78       1.0  0.98337  0.48364  0.34893  1.0000
  H   H79       1.0  0.52227  0.02254  0.32938  1.0000
  H   H80       1.0  0.56631  0.39771  0.33937  1.0000
  H   H81       1.0  0.60810  0.43953  0.33755  1.0000
  H   H82       1.0  0.62434  0.48380  0.47400  1.0000
  H   H83       1.0  0.68032  0.48311  0.47213  1.0000
  H   H84       1.0  0.60671  0.06553  0.36486  1.0000
  H   H85       1.0  0.49546  0.12419  0.48255  1.0000
  H   H86       1.0  0.49513  0.18013  0.48174  1.0000
  H   H87       1.0  0.82630  0.99609  0.48008  1.0000
  H   H88       1.0  0.88217  0.99656  0.47906  1.0000
  C   C161      1.0  0.50255  0.21927  0.34083  1.0000
  C   C162      1.0  0.51864  0.23670  0.40685  1.0000
  C   C163      1.0  0.51886  0.26984  0.40700  1.0000
  C   C164      1.0  0.50239  0.28658  0.33925  1.0000
  H   H89       1.0  0.53120  0.22519  0.45510  1.0000
  N   N23       1.0  0.53609  0.28635  0.47310  1.0000
  O   O21       1.0  0.52630  0.28047  0.55086  1.0000
  O   O22       1.0  0.56478  0.28008  0.46948  1.0000
  C   C165      1.0  0.78651  0.00340  0.34064  1.0000
  C   C166      1.0  0.76951  0.01925  0.40811  1.0000
  C   C167      1.0  0.73637  0.01954  0.41003  1.0000
  C   C168      1.0  0.71918  0.00355  0.34233  1.0000
  H   H90       1.0  0.78132  0.03150  0.45640  1.0000
  N   N24       1.0  0.72030  0.03636  0.47790  1.0000
  O   O23       1.0  0.72663  0.02600  0.55477  1.0000
  O   O24       1.0  0.72662  0.06505  0.47563  1.0000
  C   C169      1.0  0.93647  0.97425  0.33735  1.0000
  C   C170      1.0  0.53268  0.93592  0.33963  1.0000
  C   C171      1.0  0.00233  0.58527  0.34253  1.0000
  C   C172      1.0  0.97271  0.57022  0.34030  1.0000
  C   C173      1.0  0.92078  0.56225  0.33923  1.0000
  C   C174      1.0  0.94362  0.58508  0.33889  1.0000
  C   C175      1.0  0.83715  0.00700  0.25897  1.0000
  C   C176      1.0  0.87011  0.00701  0.25823  1.0000
  C   C177      1.0  0.00264  0.61870  0.34261  1.0000
  C   C178      1.0  0.00673  0.66834  0.26130  1.0000
  C   C179      1.0  0.00676  0.63540  0.26171  1.0000
  C   C180      1.0  0.63545  0.51457  0.26896  1.0000
  C   C181      1.0  0.66839  0.51517  0.26916  1.0000
  C   C182      1.0  0.51297  0.87002  0.26216  1.0000
  C   C183      1.0  0.51325  0.83708  0.26312  1.0000
  H   H91       1.0  0.52169  0.82550  0.20813  1.0000
  H   H92       1.0  0.52090  0.88148  0.20633  1.0000
  H   H93       1.0  0.94009  0.89896  0.32237  1.0000
  H   H94       1.0  0.62377  0.52279  0.21384  1.0000
  H   H95       1.0  0.67972  0.52412  0.21442  1.0000
  H   H96       1.0  0.56483  0.60728  0.36310  1.0000
  H   H97       1.0  0.89727  0.56657  0.33848  1.0000
  H   H98       1.0  0.93931  0.60859  0.33870  1.0000
  H   H99       1.0  0.00979  0.62367  0.20247  1.0000
  H   H100      1.0  0.01023  0.67957  0.20152  1.0000
  H   H101      1.0  0.88161  0.00997  0.19861  1.0000
  H   H102      1.0  0.82570  0.01043  0.19951  1.0000
  C   C184      1.0  0.48600  0.76939  0.27230  1.0000
  C   C185      1.0  0.48637  0.73625  0.27403  1.0000
  H   H103      1.0  0.47387  0.72442  0.22629  1.0000
  N   N25       1.0  0.46872  0.78546  0.20540  1.0000
  O   O25       1.0  0.44006  0.77909  0.20923  1.0000
  O   O26       1.0  0.47857  0.77917  0.12795  1.0000
  C   C186      1.0  0.73590  0.48748  0.27379  1.0000
  C   C187      1.0  0.76904  0.48765  0.27400  1.0000
  H   H104      1.0  0.78051  0.47532  0.22520  1.0000
  N   N26       1.0  0.71936  0.47069  0.20679  1.0000
  O   O27       1.0  0.72560  0.44198  0.20883  1.0000
  O   O28       1.0  0.72524  0.48100  0.12958  1.0000
  C   C188      1.0  0.94459  0.92231  0.32907  1.0000
  C   C189      1.0  0.92180  0.94517  0.32983  1.0000
  N   N27       1.0  0.96755  0.96787  0.34141  1.0000
  C   C190      1.0  0.97380  0.93676  0.33698  1.0000
  C   C191      1.0  0.00305  0.92071  0.33824  1.0000
  N   N28       1.0  0.53879  0.96700  0.34086  1.0000
  C   C192      1.0  0.56987  0.97313  0.34084  1.0000
  C   C193      1.0  0.58464  0.94399  0.33859  1.0000
  C   C194      1.0  0.56183  0.92117  0.33973  1.0000
  C   C195      1.0  0.58508  0.00274  0.34339  1.0000
  C   C196      1.0  0.56901  0.53196  0.34603  1.0000
  N   N29       1.0  0.53793  0.53824  0.34031  1.0000
  C   C197      1.0  0.53155  0.56931  0.34548  1.0000
  C   C198      1.0  0.56058  0.58391  0.35556  1.0000
  C   C199      1.0  0.58341  0.56110  0.35663  1.0000
  N   N30       1.0  0.96667  0.53917  0.34058  1.0000
  C   C200      1.0  0.93562  0.53314  0.33973  1.0000
  C   C201      1.0  0.92056  0.00352  0.33874  1.0000
  C   C202      1.0  0.88713  0.00325  0.33873  1.0000
  C   C203      1.0  0.87043  0.49942  0.41975  1.0000
  C   C204      1.0  0.83749  0.49945  0.42019  1.0000
  C   C205      1.0  0.82010  0.00328  0.33990  1.0000
  C   C206      1.0  0.49862  0.63570  0.42303  1.0000
  C   C207      1.0  0.49867  0.66866  0.42236  1.0000
  C   C208      1.0  0.00266  0.68570  0.34153  1.0000
  C   C209      1.0  0.61864  0.00316  0.34386  1.0000
  C   C210      1.0  0.68563  0.00361  0.34314  1.0000
  C   C211      1.0  0.66873  0.99200  0.41775  1.0000
  C   C212      1.0  0.63578  0.99221  0.41872  1.0000
  C   C213      1.0  0.00266  0.88715  0.33780  1.0000
  C   C214      1.0  0.99195  0.87032  0.41350  1.0000
  C   C215      1.0  0.99137  0.83738  0.41330  1.0000
  C   C216      1.0  0.00231  0.82014  0.33851  1.0000
  H   H105      1.0  0.98289  0.82604  0.46864  1.0000
  H   H106      1.0  0.98420  0.88198  0.46920  1.0000
  H   H107      1.0  0.89838  0.94086  0.32392  1.0000
  H   H108      1.0  0.98337  0.98364  0.34893  1.0000
  H   H109      1.0  0.52227  0.52255  0.32938  1.0000
  H   H110      1.0  0.56631  0.89771  0.33937  1.0000
  H   H111      1.0  0.60810  0.93953  0.33755  1.0000
  H   H112      1.0  0.62434  0.98380  0.47400  1.0000
  H   H113      1.0  0.68032  0.98311  0.47213  1.0000
  H   H114      1.0  0.60671  0.56553  0.36486  1.0000
  H   H115      1.0  0.49546  0.62419  0.48255  1.0000
  H   H116      1.0  0.49513  0.68013  0.48174  1.0000
  H   H117      1.0  0.82630  0.49609  0.48008  1.0000
  H   H118      1.0  0.88217  0.49656  0.47906  1.0000
  C   C217      1.0  0.50255  0.71927  0.34083  1.0000
  C   C218      1.0  0.51864  0.73670  0.40685  1.0000
  C   C219      1.0  0.51886  0.76985  0.40700  1.0000
  C   C220      1.0  0.50239  0.78658  0.33925  1.0000
  H   H119      1.0  0.53120  0.72519  0.45510  1.0000
  N   N31       1.0  0.53609  0.78635  0.47310  1.0000
  O   O29       1.0  0.52630  0.78047  0.55086  1.0000
  O   O30       1.0  0.56478  0.78009  0.46948  1.0000
  C   C221      1.0  0.78651  0.50340  0.34064  1.0000
  C   C222      1.0  0.76951  0.51925  0.40811  1.0000
  C   C223      1.0  0.73637  0.51955  0.41003  1.0000
  C   C224      1.0  0.71918  0.50355  0.34233  1.0000
  H   H120      1.0  0.78132  0.53150  0.45640  1.0000
  N   N32       1.0  0.72030  0.53636  0.47790  1.0000
  O   O31       1.0  0.72663  0.52600  0.55477  1.0000
  O   O32       1.0  0.72662  0.56505  0.47563  1.0000
