data_image0
_chemical_formula_structural       C3H2C5H2C4H2C4H2C2H2C2H2C2H2C20H13C24H15C24H15C24H15C2H2C2H2C2H2C4H2C4H2C4H2
_chemical_formula_sum              "C132 H84"
_cell_length_a       45.7377
_cell_length_b       45.7377
_cell_length_c       14.9542
_cell_angle_alpha    90
_cell_angle_beta     90
_cell_angle_gamma    120

_space_group_name_H-M_alt    "P 1"
_space_group_IT_number       1

loop_
  _space_group_symop_operation_xyz
  'x, y, z'

loop_
  _atom_site_type_symbol
  _atom_site_label
  _atom_site_symmetry_multiplicity
  _atom_site_fract_x
  _atom_site_fract_y
  _atom_site_fract_z
  _atom_site_occupancy
  C   C1        1.0  0.01177  0.03280  0.34200  1.0000
  C   C2        1.0  0.03040  0.01568  0.34042  1.0000
  C   C3        1.0  0.01191  0.97994  0.33549  1.0000
  H   H1        1.0  0.02450  0.05845  0.34999  1.0000
  H   H2        1.0  0.02484  0.96705  0.33534  1.0000
  C   C4        1.0  0.06672  0.03406  0.34196  1.0000
  C   C5        1.0  0.22967  0.12061  0.25854  1.0000
  C   C6        1.0  0.19410  0.10298  0.25955  1.0000
  C   C7        1.0  0.17578  0.08847  0.33927  1.0000
  C   C8        1.0  0.24851  0.12450  0.33721  1.0000
  H   H3        1.0  0.18167  0.10016  0.20048  1.0000
  H   H4        1.0  0.24170  0.12995  0.19883  1.0000
  C   C9        1.0  0.88168  0.12072  0.25522  1.0000
  C   C10       1.0  0.89961  0.10307  0.25494  1.0000
  C   C11       1.0  0.90346  0.08826  0.33394  1.0000
  C   C12       1.0  0.86689  0.12439  0.33454  1.0000
  H   H5        1.0  0.90918  0.10048  0.19553  1.0000
  H   H6        1.0  0.87893  0.13028  0.19598  1.0000
  C   C13       1.0  0.88135  0.76136  0.25165  1.0000
  C   C14       1.0  0.89921  0.79694  0.25014  1.0000
  C   C15       1.0  0.90345  0.81601  0.32859  1.0000
  C   C16       1.0  0.86696  0.74325  0.33170  1.0000
  H   H7        1.0  0.90842  0.80882  0.19019  1.0000
  H   H8        1.0  0.87828  0.74877  0.19272  1.0000
  C   C17       1.0  0.54744  0.13461  0.25426  1.0000
  C   C18       1.0  0.57820  0.13463  0.25421  1.0000
  H   H9        1.0  0.53576  0.13253  0.19428  1.0000
  H   H10       1.0  0.58773  0.13247  0.19420  1.0000
  C   C19       1.0  0.85771  0.41384  0.26266  1.0000
  C   C20       1.0  0.85764  0.44455  0.26263  1.0000
  H   H11       1.0  0.86038  0.40453  0.20284  1.0000
  H   H12       1.0  0.86033  0.45653  0.20280  1.0000
  C   C21       1.0  0.57772  0.44408  0.25773  1.0000
  C   C22       1.0  0.54691  0.41340  0.25897  1.0000
  H   H13       1.0  0.58692  0.45567  0.19743  1.0000
  H   H14       1.0  0.53485  0.40372  0.19945  1.0000
  C   C23       1.0  0.97612  0.01567  0.33548  1.0000
  C   C24       1.0  0.97618  0.96141  0.33051  1.0000
  C   C25       1.0  0.95903  0.98001  0.32907  1.0000
  C   C26       1.0  0.08531  0.06452  0.29327  1.0000
  C   C27       1.0  0.12086  0.08232  0.29269  1.0000
  C   C28       1.0  0.13956  0.07044  0.34049  1.0000
  C   C29       1.0  0.12107  0.04006  0.38941  1.0000
  C   C30       1.0  0.08549  0.02229  0.39015  1.0000
  C   C31       1.0  0.95797  0.03381  0.33501  1.0000
  C   C32       1.0  0.97025  0.06467  0.28802  1.0000
  C   C33       1.0  0.95243  0.08241  0.28740  1.0000
  C   C34       1.0  0.92152  0.07012  0.33391  1.0000
  C   C35       1.0  0.90918  0.03928  0.38083  1.0000
  C   C36       1.0  0.92700  0.02155  0.38138  1.0000
  C   C37       1.0  0.95785  0.92509  0.32809  1.0000
  C   C38       1.0  0.92727  0.90633  0.37617  1.0000
  C   C39       1.0  0.90943  0.87079  0.37565  1.0000
  C   C40       1.0  0.92138  0.85223  0.32738  1.0000
  C   C41       1.0  0.95183  0.87088  0.27887  1.0000
  C   C42       1.0  0.96965  0.90647  0.27928  1.0000
  H   H15       1.0  0.96264  0.10481  0.25346  1.0000
  H   H16       1.0  0.99220  0.07440  0.25218  1.0000
  H   H17       1.0  0.88673  0.02910  0.41453  1.0000
  H   H18       1.0  0.91722  0.99967  0.41755  1.0000
  H   H19       1.0  0.91787  0.91836  0.41400  1.0000
  H   H20       1.0  0.88734  0.85858  0.41083  1.0000
  H   H21       1.0  0.99131  0.91866  0.24237  1.0000
  H   H22       1.0  0.96179  0.85869  0.24390  1.0000
  H   H23       1.0  0.07344  0.00072  0.42741  1.0000
  H   H24       1.0  0.13335  0.03013  0.42408  1.0000
  H   H25       1.0  0.13296  0.10436  0.25724  1.0000
  H   H26       1.0  0.07314  0.07386  0.25579  1.0000
  H   H27       1.0  0.93339  0.96727  0.32082  1.0000
  C   C43       1.0  0.44801  0.25129  0.34525  1.0000
  C   C44       1.0  0.41232  0.23300  0.34595  1.0000
  C   C45       1.0  0.39381  0.19715  0.34276  1.0000
  C   C46       1.0  0.41237  0.17986  0.33998  1.0000
  C   C47       1.0  0.44804  0.19726  0.34057  1.0000
  C   C48       1.0  0.46525  0.23287  0.34456  1.0000
  C   C49       1.0  0.35752  0.17888  0.34005  1.0000
  C   C50       1.0  0.33911  0.19077  0.29062  1.0000
  C   C51       1.0  0.30354  0.17293  0.28899  1.0000
  C   C52       1.0  0.28472  0.14232  0.33667  1.0000
  C   C53       1.0  0.30307  0.13016  0.38505  1.0000
  C   C54       1.0  0.33860  0.14804  0.38683  1.0000
  C   C55       1.0  0.46684  0.28730  0.33954  1.0000
  C   C56       1.0  0.46199  0.30833  0.39989  1.0000
  C   C57       1.0  0.48352  0.34371  0.39839  1.0000
  C   C58       1.0  0.50996  0.35920  0.33499  1.0000
  C   C59       1.0  0.51383  0.33810  0.27265  1.0000
  C   C60       1.0  0.49268  0.30293  0.27476  1.0000
  C   C61       1.0  0.46683  0.18011  0.33322  1.0000
  C   C62       1.0  0.49344  0.19124  0.27046  1.0000
  C   C63       1.0  0.51467  0.17730  0.26850  1.0000
  C   C64       1.0  0.51010  0.15156  0.32901  1.0000
  C   C65       1.0  0.48293  0.13972  0.39028  1.0000
  C   C66       1.0  0.46135  0.15348  0.39161  1.0000
  H   H28       1.0  0.48025  0.35806  0.44546  1.0000
  H   H29       1.0  0.44399  0.29793  0.44880  1.0000
  H   H30       1.0  0.53331  0.34794  0.22765  1.0000
  H   H31       1.0  0.49702  0.28870  0.22956  1.0000
  H   H32       1.0  0.49833  0.21048  0.22704  1.0000
  H   H33       1.0  0.53468  0.18752  0.22517  1.0000
  H   H34       1.0  0.44282  0.14525  0.43920  1.0000
  H   H35       1.0  0.47920  0.12155  0.43610  1.0000
  H   H36       1.0  0.35051  0.13848  0.42471  1.0000
  H   H37       1.0  0.29070  0.10789  0.41953  1.0000
  H   H38       1.0  0.29149  0.18302  0.25383  1.0000
  H   H39       1.0  0.35144  0.21255  0.25411  1.0000
  H   H40       1.0  0.39969  0.24620  0.34716  1.0000
  H   H41       1.0  0.49112  0.24580  0.34646  1.0000
  H   H42       1.0  0.39980  0.15414  0.33344  1.0000
  C   C67       1.0  0.74028  0.19726  0.34042  1.0000
  C   C68       1.0  0.75856  0.17987  0.34040  1.0000
  C   C69       1.0  0.79440  0.19718  0.34309  1.0000
  C   C70       1.0  0.81174  0.23302  0.34603  1.0000
  C   C71       1.0  0.79434  0.25132  0.34492  1.0000
  C   C72       1.0  0.75868  0.23289  0.34396  1.0000
  C   C73       1.0  0.81244  0.17895  0.34020  1.0000
  C   C74       1.0  0.80073  0.14821  0.38734  1.0000
  C   C75       1.0  0.81834  0.13030  0.38482  1.0000
  C   C76       1.0  0.84860  0.14231  0.33528  1.0000
  C   C77       1.0  0.86021  0.17289  0.28751  1.0000
  C   C78       1.0  0.84252  0.19075  0.28984  1.0000
  C   C79       1.0  0.70434  0.18008  0.33309  1.0000
  C   C80       1.0  0.68321  0.15354  0.39172  1.0000
  C   C81       1.0  0.64787  0.13979  0.39045  1.0000
  C   C82       1.0  0.63249  0.15146  0.32882  1.0000
  C   C83       1.0  0.65366  0.17710  0.26803  1.0000
  C   C84       1.0  0.68884  0.19108  0.27003  1.0000
  C   C85       1.0  0.81155  0.28733  0.33968  1.0000
  C   C86       1.0  0.80152  0.30317  0.27506  1.0000
  C   C87       1.0  0.81557  0.33836  0.27369  1.0000
  C   C88       1.0  0.84034  0.35924  0.33677  1.0000
  C   C89       1.0  0.85117  0.34354  0.39984  1.0000
  C   C90       1.0  0.83730  0.30817  0.40061  1.0000
  H   H43       1.0  0.63345  0.12169  0.43644  1.0000
  H   H44       1.0  0.69353  0.14543  0.43959  1.0000
  H   H45       1.0  0.64385  0.18726  0.22453  1.0000
  H   H46       1.0  0.70317  0.21025  0.22644  1.0000
  H   H47       1.0  0.78303  0.28908  0.22957  1.0000
  H   H48       1.0  0.80600  0.34835  0.22894  1.0000
  H   H49       1.0  0.84482  0.29762  0.44929  1.0000
  H   H50       1.0  0.86868  0.35774  0.44732  1.0000
  H   H51       1.0  0.85180  0.21245  0.25306  1.0000
  H   H52       1.0  0.88217  0.18290  0.25158  1.0000
  H   H53       1.0  0.80855  0.10806  0.41941  1.0000
  H   H54       1.0  0.77941  0.13872  0.42580  1.0000
  H   H55       1.0  0.74542  0.15413  0.33410  1.0000
  H   H56       1.0  0.74574  0.24582  0.34557  1.0000
  H   H57       1.0  0.83757  0.24621  0.34732  1.0000
  C   C91       1.0  0.79422  0.54370  0.34472  1.0000
  C   C92       1.0  0.81167  0.57939  0.34611  1.0000
  C   C93       1.0  0.79441  0.59796  0.34326  1.0000
  C   C94       1.0  0.75857  0.57950  0.34052  1.0000
  C   C95       1.0  0.74021  0.54382  0.34023  1.0000
  C   C96       1.0  0.75856  0.52653  0.34354  1.0000
  C   C97       1.0  0.81254  0.63424  0.34016  1.0000
  C   C98       1.0  0.84249  0.65237  0.28921  1.0000
  C   C99       1.0  0.86017  0.68791  0.28607  1.0000
  C   C100      1.0  0.84871  0.70703  0.33367  1.0000
  C   C101      1.0  0.81865  0.68895  0.38408  1.0000
  C   C102      1.0  0.80102  0.65342  0.38734  1.0000
  C   C103      1.0  0.81141  0.52487  0.33959  1.0000
  C   C104      1.0  0.83711  0.52973  0.40064  1.0000
  C   C105      1.0  0.85098  0.50824  0.39991  1.0000
  C   C106      1.0  0.84025  0.48178  0.33669  1.0000
  C   C107      1.0  0.81548  0.47788  0.27360  1.0000
  C   C108      1.0  0.80140  0.49900  0.27496  1.0000
  C   C109      1.0  0.70424  0.52511  0.33326  1.0000
  C   C110      1.0  0.68856  0.49851  0.27056  1.0000
  C   C111      1.0  0.65336  0.47729  0.26926  1.0000
  C   C112      1.0  0.63237  0.48183  0.33055  1.0000
  C   C113      1.0  0.64793  0.50901  0.39172  1.0000
  C   C114      1.0  0.68327  0.53060  0.39229  1.0000
  H   H58       1.0  0.86848  0.51156  0.44742  1.0000
  H   H59       1.0  0.84460  0.54779  0.44935  1.0000
  H   H60       1.0  0.80594  0.45833  0.22880  1.0000
  H   H61       1.0  0.78292  0.49459  0.22941  1.0000
  H   H62       1.0  0.70276  0.49362  0.22664  1.0000
  H   H63       1.0  0.64342  0.45727  0.22595  1.0000
  H   H64       1.0  0.69371  0.54911  0.43991  1.0000
  H   H65       1.0  0.63365  0.51275  0.43804  1.0000
  H   H66       1.0  0.77978  0.64169  0.42611  1.0000
  H   H67       1.0  0.80898  0.70151  0.41862  1.0000
  H   H68       1.0  0.88199  0.69973  0.24954  1.0000
  H   H69       1.0  0.85162  0.63983  0.25234  1.0000
  H   H70       1.0  0.83750  0.59198  0.34743  1.0000
  H   H71       1.0  0.74558  0.50066  0.34500  1.0000
  H   H72       1.0  0.74548  0.59216  0.33449  1.0000
  C   C115      1.0  0.19465  0.09252  0.41798  1.0000
  C   C116      1.0  0.23018  0.11015  0.41698  1.0000
  H   H73       1.0  0.18266  0.08323  0.47776  1.0000
  H   H74       1.0  0.24259  0.11295  0.47611  1.0000
  C   C117      1.0  0.88879  0.09204  0.41329  1.0000
  C   C118      1.0  0.87095  0.10973  0.41359  1.0000
  H   H75       1.0  0.89155  0.08249  0.47257  1.0000
  H   H76       1.0  0.86151  0.11238  0.47315  1.0000
  C   C119      1.0  0.88923  0.79789  0.40870  1.0000
  C   C120      1.0  0.87140  0.76235  0.41021  1.0000
  H   H77       1.0  0.89227  0.81044  0.46769  1.0000
  H   H78       1.0  0.86226  0.75054  0.47027  1.0000
  C   C121      1.0  0.58351  0.14513  0.41406  1.0000
  C   C122      1.0  0.55269  0.14511  0.41415  1.0000
  C   C123      1.0  0.53506  0.14156  0.33342  1.0000
  C   C124      1.0  0.59755  0.14154  0.33330  1.0000
  H   H79       1.0  0.54541  0.15170  0.47192  1.0000
  H   H80       1.0  0.59735  0.15166  0.47187  1.0000
  C   C125      1.0  0.84608  0.43881  0.42189  1.0000
  C   C126      1.0  0.84615  0.40802  0.42195  1.0000
  C   C127      1.0  0.85027  0.39421  0.34141  1.0000
  C   C128      1.0  0.85018  0.45674  0.34136  1.0000
  H   H81       1.0  0.83921  0.39399  0.47943  1.0000
  H   H82       1.0  0.83916  0.44588  0.47943  1.0000
  C   C129      1.0  0.55306  0.40848  0.41852  1.0000
  C   C130      1.0  0.58383  0.43934  0.41740  1.0000
  C   C131      1.0  0.59746  0.45675  0.33613  1.0000
  C   C132      1.0  0.53494  0.39421  0.33851  1.0000
  H   H83       1.0  0.59793  0.44682  0.47475  1.0000
  H   H84       1.0  0.54603  0.39484  0.47666  1.0000
