data_image0
_chemical_formula_structural       C2HCHC3HC2HC3HCHC3H3C3HC3H3C3HC3H3C2NC2HNC2NC2HNCHNC2NCHC2NC2HNCHC2NC2HNCHC2NC2HNCHC3N2H3C3NC3NH4C3NC3NH4C2HCN2C2HC3N2HC4N2HC2HC3N2HC2HC3N2HC2HC3N2H
_chemical_formula_sum              "C96 H48 N30"
_cell_length_a       31.517
_cell_length_b       31.517
_cell_length_c       14.8397
_cell_angle_alpha    90
_cell_angle_beta     90
_cell_angle_gamma    120

_space_group_name_H-M_alt    "P 1"
_space_group_IT_number       1

loop_
  _space_group_symop_operation_xyz
  'x, y, z'

loop_
  _atom_site_type_symbol
  _atom_site_label
  _atom_site_symmetry_multiplicity
  _atom_site_fract_x
  _atom_site_fract_y
  _atom_site_fract_z
  _atom_site_occupancy
  C   C1        1.0  0.03525  0.51899  0.34409  1.0000
  C   C2        1.0  0.06373  0.57127  0.34346  1.0000
  H   H1        1.0  0.04702  0.59177  0.34361  1.0000
  C   C3        1.0  0.06370  0.49515  0.34468  1.0000
  H   H2        1.0  0.04697  0.45794  0.34606  1.0000
  C   C4        1.0  0.11563  0.59795  0.34271  1.0000
  C   C5        1.0  0.11560  0.52033  0.34362  1.0000
  C   C6        1.0  0.15995  0.48594  0.26407  1.0000
  H   H3        1.0  0.14808  0.49106  0.20308  1.0000
  C   C7        1.0  0.14099  0.65031  0.34445  1.0000
  C   C8        1.0  0.16020  0.67674  0.26339  1.0000
  H   H4        1.0  0.14836  0.65978  0.20238  1.0000
  C   C9        1.0  0.14241  0.57253  0.34204  1.0000
  C   C10       1.0  0.14092  0.49330  0.34521  1.0000
  C   C11       1.0  0.16194  0.48969  0.42714  1.0000
  H   H5        1.0  0.15187  0.49854  0.48673  1.0000
  C   C12       1.0  0.16187  0.67481  0.42653  1.0000
  H   H6        1.0  0.15150  0.65581  0.48603  1.0000
  C   C13       1.0  0.98104  0.49189  0.34412  1.0000
  C   C14       1.0  0.95256  0.43961  0.34358  1.0000
  C   C15       1.0  0.90066  0.41293  0.34288  1.0000
  H   H7        1.0  0.96927  0.41911  0.34379  1.0000
  H   H8        1.0  0.21186  0.63308  0.33788  1.0000
  H   H9        1.0  0.80443  0.37778  0.33814  1.0000
  C   C16       1.0  0.52164  0.49181  0.34406  1.0000
  C   C17       1.0  0.57392  0.51562  0.34329  1.0000
  C   C18       1.0  0.60060  0.49040  0.34261  1.0000
  H   H10       1.0  0.59442  0.55283  0.34327  1.0000
  C   C19       1.0  0.49454  0.51893  0.34408  1.0000
  C   C20       1.0  0.41557  0.52033  0.34280  1.0000
  C   C21       1.0  0.44226  0.49512  0.34346  1.0000
  H   H11       1.0  0.42176  0.45791  0.34356  1.0000
  H   H12       1.0  0.38041  0.58140  0.33823  1.0000
  H   H13       1.0  0.63572  0.42928  0.33785  1.0000
  C   C22       1.0  0.52164  0.03252  0.34402  1.0000
  C   C23       1.0  0.49781  0.06098  0.34338  1.0000
  C   C24       1.0  0.52301  0.11288  0.34269  1.0000
  H   H14       1.0  0.46060  0.04426  0.34347  1.0000
  C   C25       1.0  0.49452  0.97831  0.34404  1.0000
  C   C26       1.0  0.49314  0.89795  0.34270  1.0000
  C   C27       1.0  0.51834  0.94985  0.34336  1.0000
  H   H15       1.0  0.55555  0.96657  0.34342  1.0000
  H   H16       1.0  0.43207  0.80171  0.33802  1.0000
  H   H17       1.0  0.58406  0.20911  0.33819  1.0000
  C   C28       1.0  0.36322  0.49333  0.34481  1.0000
  C   C29       1.0  0.33682  0.48614  0.26369  1.0000
  N   N1        1.0  0.29085  0.47980  0.26523  1.0000
  C   C30       1.0  0.26694  0.47818  0.34261  1.0000
  C   C31       1.0  0.22204  0.47815  0.34272  1.0000
  H   H18       1.0  0.35374  0.49117  0.20264  1.0000
  N   N2        1.0  0.19964  0.47970  0.26544  1.0000
  C   C32       1.0  0.52014  0.87261  0.34462  1.0000
  C   C33       1.0  0.52744  0.85344  0.26354  1.0000
  N   N3        1.0  0.53363  0.81371  0.26513  1.0000
  C   C34       1.0  0.53524  0.79143  0.34253  1.0000
  C   C35       1.0  0.53528  0.74656  0.34267  1.0000
  H   H19       1.0  0.52217  0.86514  0.20250  1.0000
  N   N4        1.0  0.53370  0.72258  0.26543  1.0000
  C   C36       1.0  0.52741  0.67663  0.26416  1.0000
  H   H20       1.0  0.52245  0.65963  0.20321  1.0000
  N   N5        1.0  0.19988  0.72269  0.26509  1.0000
  C   C37       1.0  0.22211  0.74653  0.34256  1.0000
  C   C38       1.0  0.26698  0.79144  0.34283  1.0000
  N   N6        1.0  0.29098  0.81390  0.26562  1.0000
  C   C39       1.0  0.33688  0.85366  0.26432  1.0000
  H   H21       1.0  0.35397  0.86555  0.20343  1.0000
  C   C40       1.0  0.65294  0.51738  0.34435  1.0000
  C   C41       1.0  0.67944  0.52461  0.26336  1.0000
  N   N7        1.0  0.72542  0.53095  0.26497  1.0000
  C   C42       1.0  0.74928  0.53255  0.34238  1.0000
  C   C43       1.0  0.79422  0.53263  0.34260  1.0000
  H   H22       1.0  0.66257  0.51962  0.20227  1.0000
  N   N8        1.0  0.81666  0.53110  0.26538  1.0000
  C   C44       1.0  0.85639  0.52490  0.26408  1.0000
  H   H23       1.0  0.86829  0.51979  0.20313  1.0000
  C   C45       1.0  0.49600  0.13822  0.34463  1.0000
  C   C46       1.0  0.48883  0.15744  0.26354  1.0000
  N   N9        1.0  0.48248  0.19708  0.26519  1.0000
  C   C47       1.0  0.48083  0.21930  0.34265  1.0000
  C   C48       1.0  0.48080  0.26418  0.34286  1.0000
  H   H24       1.0  0.49390  0.14560  0.20247  1.0000
  N   N10       1.0  0.48238  0.28818  0.26565  1.0000
  C   C49       1.0  0.48863  0.33412  0.26441  1.0000
  H   H25       1.0  0.49374  0.35112  0.20344  1.0000
  C   C50       1.0  0.87531  0.36058  0.34487  1.0000
  C   C51       1.0  0.85618  0.33418  0.26372  1.0000
  N   N11       1.0  0.81644  0.28825  0.26528  1.0000
  C   C52       1.0  0.79414  0.26434  0.34265  1.0000
  C   C53       1.0  0.74926  0.21943  0.34274  1.0000
  H   H26       1.0  0.86790  0.35117  0.20271  1.0000
  N   N12       1.0  0.72530  0.19706  0.26546  1.0000
  C   C54       1.0  0.67934  0.15740  0.26415  1.0000
  H   H27       1.0  0.66236  0.14539  0.20319  1.0000
  C   C55       1.0  0.87387  0.43835  0.34220  1.0000
  C   C56       1.0  0.90069  0.49055  0.34369  1.0000
  C   C57       1.0  0.95259  0.51573  0.34469  1.0000
  N   N13       1.0  0.82360  0.41322  0.34020  1.0000
  N   N14       1.0  0.19269  0.59764  0.33997  1.0000
  H   H28       1.0  0.21184  0.58135  0.33868  1.0000
  H   H29       1.0  0.80444  0.42951  0.33887  1.0000
  H   H30       1.0  0.96932  0.55294  0.34602  1.0000
  C   C58       1.0  0.57517  0.43819  0.34209  1.0000
  C   C59       1.0  0.52298  0.41281  0.34376  1.0000
  C   C60       1.0  0.49780  0.43953  0.34485  1.0000
  N   N15       1.0  0.60029  0.41302  0.34005  1.0000
  C   C61       1.0  0.51837  0.57121  0.34471  1.0000
  C   C62       1.0  0.49318  0.59792  0.34369  1.0000
  C   C63       1.0  0.44098  0.57253  0.34220  1.0000
  N   N16       1.0  0.41585  0.59768  0.34024  1.0000
  H   H31       1.0  0.43213  0.63313  0.33902  1.0000
  H   H32       1.0  0.58398  0.37757  0.33891  1.0000
  H   H33       1.0  0.46060  0.41906  0.34642  1.0000
  H   H34       1.0  0.55558  0.59169  0.34612  1.0000
  C   C64       1.0  0.57522  0.13968  0.34211  1.0000
  C   C65       1.0  0.60062  0.11288  0.34362  1.0000
  C   C66       1.0  0.57392  0.06098  0.34466  1.0000
  N   N17       1.0  0.60035  0.18996  0.34016  1.0000
  C   C67       1.0  0.44224  0.94985  0.34478  1.0000
  C   C68       1.0  0.41553  0.89795  0.34375  1.0000
  C   C69       1.0  0.44093  0.87115  0.34215  1.0000
  N   N18       1.0  0.41579  0.82087  0.34013  1.0000
  H   H35       1.0  0.38034  0.80170  0.33894  1.0000
  H   H36       1.0  0.63580  0.20914  0.33900  1.0000
  H   H37       1.0  0.59440  0.04427  0.34607  1.0000
  H   H38       1.0  0.42176  0.96657  0.34628  1.0000
  C   C70       1.0  0.29081  0.48270  0.42607  1.0000
  C   C71       1.0  0.33861  0.48962  0.42677  1.0000
  H   H39       1.0  0.35758  0.49843  0.48631  1.0000
  C   C72       1.0  0.20280  0.48273  0.42627  1.0000
  N   N19       1.0  0.22765  0.48588  0.50310  1.0000
  N   N20       1.0  0.26919  0.48586  0.50300  1.0000
  C   C73       1.0  0.53079  0.81083  0.42596  1.0000
  C   C74       1.0  0.52380  0.85166  0.42658  1.0000
  H   H40       1.0  0.51516  0.86198  0.48611  1.0000
  C   C75       1.0  0.52019  0.65027  0.34532  1.0000
  C   C76       1.0  0.52377  0.67498  0.42715  1.0000
  C   C77       1.0  0.53078  0.72281  0.42625  1.0000
  N   N21       1.0  0.52770  0.74456  0.50308  1.0000
  N   N22       1.0  0.52771  0.78611  0.50294  1.0000
  H   H41       1.0  0.51513  0.65609  0.48677  1.0000
  C   C78       1.0  0.20270  0.72262  0.42596  1.0000
  C   C79       1.0  0.36317  0.87260  0.34562  1.0000
  C   C80       1.0  0.33852  0.85151  0.42746  1.0000
  C   C81       1.0  0.29070  0.81069  0.42646  1.0000
  N   N23       1.0  0.26892  0.78579  0.50322  1.0000
  N   N24       1.0  0.22738  0.74423  0.50299  1.0000
  H   H42       1.0  0.35743  0.86172  0.48706  1.0000
  C   C82       1.0  0.72535  0.52797  0.42578  1.0000
  C   C83       1.0  0.67751  0.52091  0.42631  1.0000
  H   H43       1.0  0.65860  0.51237  0.48592  1.0000
  C   C84       1.0  0.87536  0.51758  0.34534  1.0000
  C   C85       1.0  0.85433  0.52119  0.42724  1.0000
  C   C86       1.0  0.81343  0.52808  0.42621  1.0000
  N   N25       1.0  0.78853  0.52492  0.50299  1.0000
  N   N26       1.0  0.74696  0.52487  0.50279  1.0000
  H   H44       1.0  0.86438  0.51233  0.48684  1.0000
  C   C87       1.0  0.48532  0.19989  0.42607  1.0000
  C   C88       1.0  0.49226  0.15902  0.42669  1.0000
  H   H45       1.0  0.50105  0.14882  0.48620  1.0000
  C   C89       1.0  0.49595  0.36047  0.34563  1.0000
  C   C90       1.0  0.49230  0.33574  0.42744  1.0000
  C   C91       1.0  0.48534  0.28792  0.42646  1.0000
  N   N27       1.0  0.48847  0.26617  0.50324  1.0000
  N   N28       1.0  0.48845  0.22462  0.50305  1.0000
  H   H46       1.0  0.50115  0.35463  0.48706  1.0000
  C   C92       1.0  0.81352  0.28816  0.42611  1.0000
  C   C93       1.0  0.85436  0.33597  0.42682  1.0000
  H   H47       1.0  0.86468  0.35493  0.48636  1.0000
  C   C94       1.0  0.65296  0.13823  0.34529  1.0000
  C   C95       1.0  0.67766  0.15933  0.42714  1.0000
  C   C96       1.0  0.72549  0.20015  0.42629  1.0000
  N   N29       1.0  0.74723  0.22495  0.50315  1.0000
  N   N30       1.0  0.78879  0.26649  0.50307  1.0000
  H   H48       1.0  0.65876  0.14907  0.48675  1.0000
