data_image0
_chemical_formula_structural       CHC2NCHCH2C4H2CH2C2H2OCH2CHCH2C21H13C24H15C4NC2NHOHC4NC2NH2C3NOH
_chemical_formula_sum              "C75 H48 N6 O3"
_cell_length_a       29.9432
_cell_length_b       29.9431
_cell_length_c       14.8533
_cell_angle_alpha    90
_cell_angle_beta     90
_cell_angle_gamma    120

_space_group_name_H-M_alt    "P 1"
_space_group_IT_number       1

loop_
  _space_group_symop_operation_xyz
  'x, y, z'

loop_
  _atom_site_type_symbol
  _atom_site_label
  _atom_site_symmetry_multiplicity
  _atom_site_fract_x
  _atom_site_fract_y
  _atom_site_fract_z
  _atom_site_occupancy
  C   C1        1.0  0.03564  0.52557  0.27259  1.0000
  H   H1        1.0  0.05447  0.54004  0.21293  1.0000
  C   C2        1.0  0.03521  0.51064  0.43316  1.0000
  C   C3        1.0  0.06388  0.53265  0.35300  1.0000
  N   N1        1.0  0.05874  0.51580  0.51413  1.0000
  C   C4        1.0  0.03310  0.49488  0.59200  1.0000
  H   H2        1.0  0.05306  0.49964  0.65030  1.0000
  C   C5        1.0  0.11931  0.56060  0.35073  1.0000
  H   H3        1.0  0.13052  0.50627  0.42478  1.0000
  H   H4        1.0  0.12769  0.62408  0.27355  1.0000
  C   C6        1.0  0.14854  0.54122  0.39285  1.0000
  C   C7        1.0  0.14698  0.60832  0.30499  1.0000
  C   C8        1.0  0.50365  0.52972  0.27448  1.0000
  C   C9        1.0  0.53070  0.50252  0.27221  1.0000
  H   H5        1.0  0.54526  0.49943  0.21188  1.0000
  H   H6        1.0  0.49964  0.54505  0.21554  1.0000
  C   C10       1.0  0.55364  0.45797  0.02783  1.0000
  H   H7        1.0  0.55134  0.43710  0.08935  1.0000
  H   H8        1.0  0.57512  0.49925  0.04249  1.0000
  C   C11       1.0  0.50011  0.97802  0.28019  1.0000
  C   C12       1.0  0.52714  0.03223  0.27651  1.0000
  H   H9        1.0  0.54000  0.04940  0.21524  1.0000
  H   H10       1.0  0.49443  0.95821  0.22122  1.0000
  O   O1        1.0  0.50937  0.06758  0.00583  1.0000
  C   C13       1.0  0.56171  0.10316  0.03137  1.0000
  H   H11       1.0  0.56096  0.12279  0.09261  1.0000
  H   H12       1.0  0.58300  0.08307  0.04530  1.0000
  C   C14       1.0  0.98136  0.49798  0.27151  1.0000
  H   H13       1.0  0.96293  0.49469  0.21192  1.0000
  C   C15       1.0  0.91445  0.45673  0.02523  1.0000
  H   H14       1.0  0.89561  0.43619  0.08671  1.0000
  H   H15       1.0  0.93287  0.49812  0.03852  1.0000
  C   C16       1.0  0.28642  0.64539  0.34711  1.0000
  C   C17       1.0  0.31526  0.61962  0.34408  1.0000
  C   C18       1.0  0.36972  0.64573  0.35156  1.0000
  C   C19       1.0  0.39550  0.70018  0.35937  1.0000
  C   C20       1.0  0.36922  0.72857  0.35793  1.0000
  C   C21       1.0  0.31460  0.69997  0.35284  1.0000
  C   C22       1.0  0.39757  0.61796  0.35199  1.0000
  C   C23       1.0  0.37706  0.56897  0.39367  1.0000
  C   C24       1.0  0.40399  0.54159  0.39378  1.0000
  C   C25       1.0  0.45336  0.56235  0.35397  1.0000
  C   C26       1.0  0.47396  0.61116  0.31197  1.0000
  C   C27       1.0  0.44664  0.63819  0.31074  1.0000
  C   C28       1.0  0.23078  0.61693  0.34643  1.0000
  C   C29       1.0  0.20283  0.56897  0.39165  1.0000
  C   C30       1.0  0.20134  0.63570  0.30266  1.0000
  C   C31       1.0  0.39710  0.78419  0.36079  1.0000
  C   C32       1.0  0.37770  0.81252  0.40653  1.0000
  C   C33       1.0  0.40448  0.86687  0.40669  1.0000
  C   C34       1.0  0.45254  0.89568  0.36252  1.0000
  C   C35       1.0  0.47210  0.86759  0.31683  1.0000
  C   C36       1.0  0.44493  0.81327  0.31563  1.0000
  H   H16       1.0  0.22175  0.55379  0.42602  1.0000
  H   H17       1.0  0.21920  0.66957  0.26748  1.0000
  H   H18       1.0  0.34371  0.79384  0.44125  1.0000
  H   H19       1.0  0.38796  0.88526  0.43867  1.0000
  H   H20       1.0  0.46032  0.79517  0.27936  1.0000
  H   H21       1.0  0.50671  0.88653  0.28389  1.0000
  H   H22       1.0  0.46297  0.67282  0.27788  1.0000
  H   H23       1.0  0.50955  0.62789  0.28230  1.0000
  H   H24       1.0  0.38678  0.50588  0.42299  1.0000
  H   H25       1.0  0.34221  0.55264  0.42581  1.0000
  H   H26       1.0  0.29597  0.58058  0.33435  1.0000
  H   H27       1.0  0.29471  0.71947  0.35346  1.0000
  H   H28       1.0  0.43457  0.71971  0.36869  1.0000
  C   C37       1.0  0.73114  0.36745  0.34103  1.0000
  C   C38       1.0  0.70314  0.39410  0.34002  1.0000
  C   C39       1.0  0.64856  0.36816  0.33456  1.0000
  C   C40       1.0  0.62245  0.31357  0.32959  1.0000
  C   C41       1.0  0.64814  0.28470  0.33462  1.0000
  C   C42       1.0  0.70270  0.31284  0.33972  1.0000
  C   C43       1.0  0.62036  0.39562  0.33638  1.0000
  C   C44       1.0  0.63954  0.44468  0.29561  1.0000
  C   C45       1.0  0.61221  0.47168  0.29986  1.0000
  C   C46       1.0  0.56409  0.45078  0.34453  1.0000
  C   C47       1.0  0.54424  0.40129  0.38341  1.0000
  C   C48       1.0  0.57199  0.37479  0.38054  1.0000
  C   C49       1.0  0.78649  0.39470  0.34391  1.0000
  C   C50       1.0  0.81441  0.43706  0.40258  1.0000
  C   C51       1.0  0.86874  0.46374  0.40479  1.0000
  C   C52       1.0  0.89737  0.44927  0.34813  1.0000
  C   C53       1.0  0.86968  0.40728  0.28891  1.0000
  C   C54       1.0  0.81534  0.38046  0.28709  1.0000
  C   C55       1.0  0.61960  0.22912  0.33736  1.0000
  C   C56       1.0  0.63793  0.19880  0.29552  1.0000
  C   C57       1.0  0.61034  0.14450  0.30072  1.0000
  C   C58       1.0  0.56293  0.11787  0.34767  1.0000
  C   C59       1.0  0.54397  0.14796  0.38783  1.0000
  C   C60       1.0  0.57190  0.20218  0.38369  1.0000
  H   H29       1.0  0.88732  0.49427  0.44795  1.0000
  H   H30       1.0  0.79535  0.44846  0.44568  1.0000
  H   H31       1.0  0.88893  0.39531  0.24742  1.0000
  H   H32       1.0  0.79697  0.35063  0.24253  1.0000
  H   H33       1.0  0.67165  0.21597  0.25983  1.0000
  H   H34       1.0  0.62578  0.12450  0.27074  1.0000
  H   H35       1.0  0.55708  0.22183  0.41681  1.0000
  H   H36       1.0  0.50932  0.13063  0.42075  1.0000
  H   H37       1.0  0.55645  0.34007  0.41294  1.0000
  H   H38       1.0  0.50903  0.38376  0.41444  1.0000
  H   H39       1.0  0.62835  0.50741  0.27083  1.0000
  H   H40       1.0  0.67371  0.46136  0.26130  1.0000
  H   H41       1.0  0.72319  0.43350  0.34346  1.0000
  H   H42       1.0  0.72232  0.29314  0.34591  1.0000
  H   H43       1.0  0.58334  0.29409  0.32084  1.0000
  C   C61       1.0  0.53646  0.47853  0.34995  1.0000
  C   C62       1.0  0.51428  0.48354  0.43121  1.0000
  C   C63       1.0  0.48716  0.51141  0.43377  1.0000
  C   C64       1.0  0.48115  0.53473  0.35486  1.0000
  N   N2        1.0  0.46793  0.51539  0.51464  1.0000
  C   C65       1.0  0.47250  0.49401  0.59197  1.0000
  C   C66       1.0  0.49932  0.46672  0.59001  1.0000
  N   N3        1.0  0.51869  0.46260  0.50976  1.0000
  H   H44       1.0  0.45651  0.49773  0.65018  1.0000
  O   O2        1.0  0.50201  0.44200  0.66547  1.0000
  H   H45       1.0  0.57447  0.44876  0.64416  1.0000
  C   C67       1.0  0.53520  0.06258  0.35434  1.0000
  C   C68       1.0  0.51524  0.03609  0.43699  1.0000
  C   C69       1.0  0.48822  0.98113  0.44096  1.0000
  C   C70       1.0  0.48000  0.95113  0.36207  1.0000
  N   N4        1.0  0.47132  0.95866  0.52311  1.0000
  C   C71       1.0  0.47806  0.98533  0.60044  1.0000
  C   C72       1.0  0.50471  0.03942  0.59699  1.0000
  N   N5        1.0  0.52181  0.06218  0.51549  1.0000
  H   H46       1.0  0.46370  0.96615  0.65970  1.0000
  H   H47       1.0  0.58178  0.13236  0.64612  1.0000
  C   C73       1.0  0.95255  0.47609  0.35086  1.0000
  C   C74       1.0  0.98025  0.48241  0.43170  1.0000
  C   C75       1.0  0.97899  0.46623  0.59030  1.0000
  N   N6        1.0  0.95512  0.46092  0.51007  1.0000
  O   O3        1.0  0.95180  0.44224  0.66637  1.0000
  H   H48       1.0  0.88475  0.44603  0.64031  1.0000
