data_image0
_chemical_formula_structural       C7H2C2O2C2NCH3NHC2NCH3NHC5HC4H3C2O2CNCHNHCNCHNHC7H2C2O2C2NCH3NHC2NCH3NHC5HC4H3C2O2CNCHNHCNCHNHC7H2C2O2C2NCH3NHC2NCH3NHC5HC4H3C2O2CNCHNHCNCHNHC7H2C2O2C2NCH3NHC2NCH3NHC5HC4H3C2O2CNCHNHCNCHNH
_chemical_formula_sum              "C120 H72 O16 N32"
_cell_length_a       30.62
_cell_length_b       30.62
_cell_length_c       15.045
_cell_angle_alpha    90
_cell_angle_beta     90
_cell_angle_gamma    90

_space_group_name_H-M_alt    "P 1"
_space_group_IT_number       1

loop_
  _space_group_symop_operation_xyz
  'x, y, z'

loop_
  _atom_site_type_symbol
  _atom_site_label
  _atom_site_symmetry_multiplicity
  _atom_site_fract_x
  _atom_site_fract_y
  _atom_site_fract_z
  _atom_site_occupancy
  C   C1        1.0  0.05839  0.99268  0.28157  1.0000
  C   C2        1.0  0.09285  0.02191  0.26086  1.0000
  C   C3        1.0  0.08608  0.06691  0.27313  1.0000
  C   C4        1.0  0.48311  0.47883  0.33456  1.0000
  C   C5        1.0  0.40744  0.46563  0.38621  1.0000
  C   C6        1.0  0.44264  0.49477  0.36889  1.0000
  C   C7        1.0  0.43977  0.03939  0.39150  1.0000
  H   H1        1.0  0.09043  0.43520  0.23617  1.0000
  H   H2        1.0  0.41279  0.05155  0.42308  1.0000
  C   C8        1.0  0.13611  0.00873  0.24181  1.0000
  C   C9        1.0  0.36463  0.47845  0.41173  1.0000
  O   O1        1.0  0.15587  0.03038  0.17406  1.0000
  O   O2        1.0  0.34362  0.44975  0.46563  1.0000
  C   C10       1.0  0.46895  0.22274  0.26078  1.0000
  C   C11       1.0  0.50168  0.19849  0.30683  1.0000
  N   N1        1.0  0.46523  0.26620  0.27699  1.0000
  C   C12       1.0  0.43930  0.20658  0.19007  1.0000
  H   H3        1.0  0.44599  0.17337  0.16852  1.0000
  H   H4        1.0  0.94224  0.22743  0.13148  1.0000
  H   H5        1.0  0.40566  0.20807  0.21379  1.0000
  N   N2        1.0  0.50753  0.15450  0.29570  1.0000
  H   H6        1.0  0.48428  0.13850  0.26660  1.0000
  C   C13       1.0  0.27597  0.51501  0.26071  1.0000
  C   C14       1.0  0.29642  0.50489  0.34374  1.0000
  N   N3        1.0  0.23190  0.51084  0.25328  1.0000
  C   C15       1.0  0.29722  0.52725  0.17557  1.0000
  H   H7        1.0  0.33259  0.52944  0.17804  1.0000
  H   H8        1.0  0.28487  0.05899  0.15415  1.0000
  H   H9        1.0  0.28896  0.50312  0.12485  1.0000
  N   N4        1.0  0.34101  0.50391  0.35424  1.0000
  H   H10       1.0  0.35800  0.51777  0.30786  1.0000
  C   C16       1.0  0.01782  0.00880  0.31474  1.0000
  C   C17       1.0  0.04660  0.08457  0.30592  1.0000
  C   C18       1.0  0.01251  0.05470  0.32927  1.0000
  C   C19       1.0  0.06265  0.44761  0.26435  1.0000
  C   C20       1.0  0.47409  0.06825  0.37371  1.0000
  H   H11       1.0  0.11146  0.08745  0.25801  1.0000
  C   C21       1.0  0.48840  0.43308  0.31855  1.0000
  C   C22       1.0  0.45299  0.40381  0.33407  1.0000
  C   C23       1.0  0.41347  0.42101  0.36673  1.0000
  C   C24       1.0  0.02813  0.41883  0.28031  1.0000
  H   H12       1.0  0.38784  0.40000  0.37678  1.0000
  H   H13       1.0  0.03261  0.38719  0.26114  1.0000
  H   H14       1.0  0.47047  0.09949  0.39604  1.0000
  C   C25       1.0  0.04437  0.13091  0.31307  1.0000
  C   C26       1.0  0.45401  0.35821  0.31777  1.0000
  O   O3        1.0  0.08255  0.15358  0.31547  1.0000
  O   O4        1.0  0.41656  0.33884  0.28944  1.0000
  C   C27       1.0  0.02676  0.22255  0.36936  1.0000
  N   N5        1.0  0.02093  0.26589  0.38119  1.0000
  C   C28       1.0  0.99040  0.28863  0.33555  1.0000
  H   H15       1.0  0.04868  0.20770  0.41043  1.0000
  N   N6        1.0  0.98675  0.33231  0.34886  1.0000
  H   H16       1.0  0.00850  0.34572  0.38768  1.0000
  C   C29       1.0  0.26722  0.99415  0.41373  1.0000
  N   N7        1.0  0.22367  0.99089  0.40034  1.0000
  C   C30       1.0  0.20498  0.99827  0.32015  1.0000
  H   H17       1.0  0.27777  0.99015  0.47739  1.0000
  N   N8        1.0  0.16081  0.99522  0.31222  1.0000
  H   H18       1.0  0.14527  0.98583  0.36574  1.0000
  C   C31       1.0  0.05839  0.49268  0.28157  1.0000
  C   C32       1.0  0.09285  0.52191  0.26086  1.0000
  C   C33       1.0  0.08608  0.56691  0.27313  1.0000
  C   C34       1.0  0.48311  0.97883  0.33456  1.0000
  C   C35       1.0  0.40744  0.96563  0.38621  1.0000
  C   C36       1.0  0.44264  0.99477  0.36889  1.0000
  C   C37       1.0  0.43977  0.53939  0.39150  1.0000
  H   H19       1.0  0.09043  0.93520  0.23617  1.0000
  H   H20       1.0  0.41279  0.55155  0.42308  1.0000
  C   C38       1.0  0.13611  0.50873  0.24181  1.0000
  C   C39       1.0  0.36463  0.97845  0.41173  1.0000
  O   O5        1.0  0.15587  0.53038  0.17406  1.0000
  O   O6        1.0  0.34362  0.94975  0.46563  1.0000
  C   C40       1.0  0.46895  0.72274  0.26078  1.0000
  C   C41       1.0  0.50168  0.69849  0.30683  1.0000
  N   N9        1.0  0.46523  0.76621  0.27699  1.0000
  C   C42       1.0  0.43930  0.70658  0.19007  1.0000
  H   H21       1.0  0.44599  0.67337  0.16852  1.0000
  H   H22       1.0  0.94224  0.72743  0.13148  1.0000
  H   H23       1.0  0.40566  0.70807  0.21379  1.0000
  N   N10       1.0  0.50753  0.65449  0.29570  1.0000
  H   H24       1.0  0.48428  0.63850  0.26660  1.0000
  C   C43       1.0  0.27597  0.01501  0.26071  1.0000
  C   C44       1.0  0.29642  0.00489  0.34374  1.0000
  N   N11       1.0  0.23190  0.01084  0.25328  1.0000
  C   C45       1.0  0.29722  0.02725  0.17557  1.0000
  H   H25       1.0  0.33259  0.02944  0.17804  1.0000
  H   H26       1.0  0.28487  0.55899  0.15415  1.0000
  H   H27       1.0  0.28896  0.00312  0.12485  1.0000
  N   N12       1.0  0.34101  0.00391  0.35424  1.0000
  H   H28       1.0  0.35800  0.01777  0.30786  1.0000
  C   C46       1.0  0.01782  0.50880  0.31474  1.0000
  C   C47       1.0  0.04660  0.58457  0.30592  1.0000
  C   C48       1.0  0.01251  0.55469  0.32927  1.0000
  C   C49       1.0  0.06265  0.94761  0.26435  1.0000
  C   C50       1.0  0.47409  0.56825  0.37371  1.0000
  H   H29       1.0  0.11146  0.58745  0.25801  1.0000
  C   C51       1.0  0.48840  0.93308  0.31855  1.0000
  C   C52       1.0  0.45299  0.90381  0.33407  1.0000
  C   C53       1.0  0.41347  0.92101  0.36673  1.0000
  C   C54       1.0  0.02813  0.91883  0.28031  1.0000
  H   H30       1.0  0.38784  0.90000  0.37678  1.0000
  H   H31       1.0  0.03261  0.88719  0.26114  1.0000
  H   H32       1.0  0.47047  0.59949  0.39604  1.0000
  C   C55       1.0  0.04437  0.63091  0.31307  1.0000
  C   C56       1.0  0.45401  0.85821  0.31777  1.0000
  O   O7        1.0  0.08255  0.65358  0.31547  1.0000
  O   O8        1.0  0.41656  0.83884  0.28944  1.0000
  C   C57       1.0  0.02676  0.72255  0.36936  1.0000
  N   N13       1.0  0.02093  0.76589  0.38119  1.0000
  C   C58       1.0  0.99040  0.78863  0.33555  1.0000
  H   H33       1.0  0.04868  0.70770  0.41043  1.0000
  N   N14       1.0  0.98675  0.83231  0.34886  1.0000
  H   H34       1.0  0.00850  0.84572  0.38768  1.0000
  C   C59       1.0  0.26722  0.49415  0.41373  1.0000
  N   N15       1.0  0.22367  0.49089  0.40034  1.0000
  C   C60       1.0  0.20498  0.49827  0.32015  1.0000
  H   H35       1.0  0.27777  0.49015  0.47739  1.0000
  N   N16       1.0  0.16081  0.49522  0.31222  1.0000
  H   H36       1.0  0.14527  0.48583  0.36574  1.0000
  C   C61       1.0  0.55839  0.99268  0.28157  1.0000
  C   C62       1.0  0.59284  0.02191  0.26086  1.0000
  C   C63       1.0  0.58608  0.06691  0.27313  1.0000
  C   C64       1.0  0.98311  0.47883  0.33456  1.0000
  C   C65       1.0  0.90744  0.46563  0.38621  1.0000
  C   C66       1.0  0.94264  0.49477  0.36889  1.0000
  C   C67       1.0  0.93977  0.03939  0.39150  1.0000
  H   H37       1.0  0.59043  0.43520  0.23617  1.0000
  H   H38       1.0  0.91279  0.05155  0.42308  1.0000
  C   C68       1.0  0.63611  0.00873  0.24181  1.0000
  C   C69       1.0  0.86463  0.47845  0.41173  1.0000
  O   O9        1.0  0.65587  0.03038  0.17406  1.0000
  O   O10       1.0  0.84362  0.44975  0.46563  1.0000
  C   C70       1.0  0.96895  0.22274  0.26078  1.0000
  C   C71       1.0  0.00168  0.19849  0.30683  1.0000
  N   N17       1.0  0.96523  0.26620  0.27699  1.0000
  C   C72       1.0  0.93930  0.20658  0.19007  1.0000
  H   H39       1.0  0.94599  0.17337  0.16852  1.0000
  H   H40       1.0  0.44224  0.22743  0.13148  1.0000
  H   H41       1.0  0.90566  0.20807  0.21379  1.0000
  N   N18       1.0  0.00753  0.15450  0.29570  1.0000
  H   H42       1.0  0.98428  0.13850  0.26660  1.0000
  C   C73       1.0  0.77597  0.51501  0.26071  1.0000
  C   C74       1.0  0.79642  0.50489  0.34374  1.0000
  N   N19       1.0  0.73190  0.51084  0.25328  1.0000
  C   C75       1.0  0.79722  0.52725  0.17557  1.0000
  H   H43       1.0  0.83259  0.52944  0.17804  1.0000
  H   H44       1.0  0.78487  0.05899  0.15415  1.0000
  H   H45       1.0  0.78896  0.50312  0.12485  1.0000
  N   N20       1.0  0.84101  0.50391  0.35424  1.0000
  H   H46       1.0  0.85800  0.51777  0.30786  1.0000
  C   C76       1.0  0.51782  0.00880  0.31474  1.0000
  C   C77       1.0  0.54660  0.08457  0.30592  1.0000
  C   C78       1.0  0.51251  0.05470  0.32927  1.0000
  C   C79       1.0  0.56265  0.44761  0.26435  1.0000
  C   C80       1.0  0.97409  0.06825  0.37371  1.0000
  H   H47       1.0  0.61146  0.08745  0.25801  1.0000
  C   C81       1.0  0.98840  0.43308  0.31855  1.0000
  C   C82       1.0  0.95299  0.40381  0.33407  1.0000
  C   C83       1.0  0.91347  0.42101  0.36673  1.0000
  C   C84       1.0  0.52813  0.41883  0.28031  1.0000
  H   H48       1.0  0.88784  0.40000  0.37678  1.0000
  H   H49       1.0  0.53262  0.38719  0.26114  1.0000
  H   H50       1.0  0.97047  0.09949  0.39604  1.0000
  C   C85       1.0  0.54438  0.13091  0.31307  1.0000
  C   C86       1.0  0.95401  0.35821  0.31777  1.0000
  O   O11       1.0  0.58255  0.15358  0.31547  1.0000
  O   O12       1.0  0.91656  0.33884  0.28944  1.0000
  C   C87       1.0  0.52676  0.22255  0.36936  1.0000
  N   N21       1.0  0.52093  0.26589  0.38119  1.0000
  C   C88       1.0  0.49041  0.28863  0.33555  1.0000
  H   H51       1.0  0.54868  0.20770  0.41043  1.0000
  N   N22       1.0  0.48675  0.33231  0.34886  1.0000
  H   H52       1.0  0.50850  0.34572  0.38768  1.0000
  C   C89       1.0  0.76722  0.99415  0.41373  1.0000
  N   N23       1.0  0.72367  0.99089  0.40034  1.0000
  C   C90       1.0  0.70498  0.99827  0.32015  1.0000
  H   H53       1.0  0.77777  0.99015  0.47739  1.0000
  N   N24       1.0  0.66081  0.99522  0.31222  1.0000
  H   H54       1.0  0.64527  0.98583  0.36574  1.0000
  C   C91       1.0  0.55839  0.49268  0.28157  1.0000
  C   C92       1.0  0.59284  0.52191  0.26086  1.0000
  C   C93       1.0  0.58608  0.56691  0.27313  1.0000
  C   C94       1.0  0.98311  0.97883  0.33456  1.0000
  C   C95       1.0  0.90744  0.96563  0.38621  1.0000
  C   C96       1.0  0.94264  0.99477  0.36889  1.0000
  C   C97       1.0  0.93977  0.53939  0.39150  1.0000
  H   H55       1.0  0.59043  0.93520  0.23617  1.0000
  H   H56       1.0  0.91279  0.55155  0.42308  1.0000
  C   C98       1.0  0.63611  0.50873  0.24181  1.0000
  C   C99       1.0  0.86463  0.97845  0.41173  1.0000
  O   O13       1.0  0.65587  0.53038  0.17406  1.0000
  O   O14       1.0  0.84362  0.94975  0.46563  1.0000
  C   C100      1.0  0.96895  0.72274  0.26078  1.0000
  C   C101      1.0  0.00168  0.69849  0.30683  1.0000
  N   N25       1.0  0.96523  0.76621  0.27699  1.0000
  C   C102      1.0  0.93930  0.70658  0.19007  1.0000
  H   H57       1.0  0.94599  0.67337  0.16852  1.0000
  H   H58       1.0  0.44224  0.72743  0.13148  1.0000
  H   H59       1.0  0.90566  0.70807  0.21379  1.0000
  N   N26       1.0  0.00753  0.65449  0.29570  1.0000
  H   H60       1.0  0.98428  0.63850  0.26660  1.0000
  C   C103      1.0  0.77597  0.01501  0.26071  1.0000
  C   C104      1.0  0.79642  0.00489  0.34374  1.0000
  N   N27       1.0  0.73190  0.01084  0.25328  1.0000
  C   C105      1.0  0.79722  0.02725  0.17557  1.0000
  H   H61       1.0  0.83259  0.02944  0.17804  1.0000
  H   H62       1.0  0.78487  0.55899  0.15415  1.0000
  H   H63       1.0  0.78896  0.00312  0.12485  1.0000
  N   N28       1.0  0.84101  0.00391  0.35424  1.0000
  H   H64       1.0  0.85800  0.01777  0.30786  1.0000
  C   C106      1.0  0.51782  0.50880  0.31474  1.0000
  C   C107      1.0  0.54660  0.58457  0.30592  1.0000
  C   C108      1.0  0.51251  0.55469  0.32927  1.0000
  C   C109      1.0  0.56265  0.94761  0.26435  1.0000
  C   C110      1.0  0.97409  0.56825  0.37371  1.0000
  H   H65       1.0  0.61146  0.58745  0.25801  1.0000
  C   C111      1.0  0.98840  0.93308  0.31855  1.0000
  C   C112      1.0  0.95299  0.90381  0.33407  1.0000
  C   C113      1.0  0.91347  0.92101  0.36673  1.0000
  C   C114      1.0  0.52813  0.91883  0.28031  1.0000
  H   H66       1.0  0.88784  0.90000  0.37678  1.0000
  H   H67       1.0  0.53262  0.88719  0.26114  1.0000
  H   H68       1.0  0.97047  0.59949  0.39604  1.0000
  C   C115      1.0  0.54438  0.63091  0.31307  1.0000
  C   C116      1.0  0.95401  0.85821  0.31777  1.0000
  O   O15       1.0  0.58255  0.65358  0.31547  1.0000
  O   O16       1.0  0.91656  0.83884  0.28944  1.0000
  C   C117      1.0  0.52676  0.72255  0.36936  1.0000
  N   N29       1.0  0.52093  0.76589  0.38119  1.0000
  C   C118      1.0  0.49041  0.78863  0.33555  1.0000
  H   H69       1.0  0.54868  0.70770  0.41043  1.0000
  N   N30       1.0  0.48675  0.83231  0.34886  1.0000
  H   H70       1.0  0.50850  0.84572  0.38768  1.0000
  C   C119      1.0  0.76722  0.49415  0.41373  1.0000
  N   N31       1.0  0.72367  0.49089  0.40034  1.0000
  C   C120      1.0  0.70498  0.49827  0.32015  1.0000
  H   H71       1.0  0.77777  0.49015  0.47739  1.0000
  N   N32       1.0  0.66081  0.49522  0.31222  1.0000
  H   H72       1.0  0.64527  0.48583  0.36574  1.0000
