data_image0
_chemical_formula_structural       C5H6C6H6C6H6C6H6C4HNH2NC3HNH2NC3HNH2NC3H2NC3H2NC3H2NC12H6C6H3C9H3C12H6C6H3C9H3C12H6C6H3C9H3C12H6C6H3C9H3C3H2NC3H2NC3H2NC3HNH2NC3HNH2NC3HNH2N
_chemical_formula_sum              "C168 H102 N18"
_cell_length_a       70.7126
_cell_length_b       70.7155
_cell_length_c       14.7414
_cell_angle_alpha    90
_cell_angle_beta     90
_cell_angle_gamma    119.998

_space_group_name_H-M_alt    "P 1"
_space_group_IT_number       1

loop_
  _space_group_symop_operation_xyz
  'x, y, z'

loop_
  _atom_site_type_symbol
  _atom_site_label
  _atom_site_symmetry_multiplicity
  _atom_site_fract_x
  _atom_site_fract_y
  _atom_site_fract_z
  _atom_site_occupancy
  C   C1        1.0  0.96853  0.06765  0.36388  1.0000
  C   C2        1.0  0.94207  0.90529  0.35857  1.0000
  C   C3        1.0  0.93275  0.88243  0.35104  1.0000
  C   C4        1.0  0.10473  0.04119  0.36006  1.0000
  C   C5        1.0  0.12759  0.05474  0.35244  1.0000
  H   H1        1.0  0.96186  0.09349  0.36348  1.0000
  H   H2        1.0  0.93194  0.91163  0.36692  1.0000
  H   H3        1.0  0.91611  0.87286  0.35352  1.0000
  H   H4        1.0  0.09842  0.02477  0.36988  1.0000
  H   H5        1.0  0.13719  0.04772  0.35629  1.0000
  H   H6        1.0  0.98479  0.07767  0.37761  1.0000
  C   C6        1.0  0.95498  0.07696  0.35595  1.0000
  C   C7        1.0  0.50706  0.30740  0.33885  1.0000
  C   C8        1.0  0.33394  0.17983  0.32670  1.0000
  C   C9        1.0  0.31112  0.16614  0.33505  1.0000
  C   C10       1.0  0.48201  0.16627  0.37013  1.0000
  C   C11       1.0  0.49948  0.16211  0.37670  1.0000
  H   H7        1.0  0.54000  0.33151  0.32755  1.0000
  H   H8        1.0  0.33985  0.19464  0.29511  1.0000
  H   H9        1.0  0.30117  0.17150  0.30939  1.0000
  H   H10       1.0  0.46635  0.15353  0.37702  1.0000
  H   H11       1.0  0.49595  0.14639  0.38803  1.0000
  H   H12       1.0  0.51027  0.29492  0.32922  1.0000
  C   C12       1.0  0.52461  0.32902  0.33813  1.0000
  C   C13       1.0  0.70262  0.20403  0.33885  1.0000
  C   C14       1.0  0.83016  0.15846  0.32693  1.0000
  C   C15       1.0  0.84384  0.14932  0.33518  1.0000
  C   C16       1.0  0.84377  0.32012  0.37014  1.0000
  C   C17       1.0  0.84793  0.34175  0.37664  1.0000
  H   H13       1.0  0.67851  0.21285  0.32744  1.0000
  H   H14       1.0  0.81533  0.14956  0.29553  1.0000
  H   H15       1.0  0.83846  0.13401  0.30963  1.0000
  H   H16       1.0  0.85651  0.31721  0.37697  1.0000
  H   H17       1.0  0.86366  0.35394  0.38793  1.0000
  H   H18       1.0  0.71510  0.21972  0.32919  1.0000
  C   C18       1.0  0.68099  0.19995  0.33807  1.0000
  C   C19       1.0  0.80598  0.50295  0.33868  1.0000
  C   C20       1.0  0.85148  0.67607  0.32619  1.0000
  C   C21       1.0  0.86062  0.69889  0.33461  1.0000
  C   C22       1.0  0.68988  0.52800  0.36960  1.0000
  C   C23       1.0  0.66825  0.51053  0.37617  1.0000
  H   H19       1.0  0.79717  0.47002  0.32728  1.0000
  H   H20       1.0  0.86032  0.67016  0.29411  1.0000
  H   H21       1.0  0.87587  0.70883  0.30850  1.0000
  H   H22       1.0  0.69277  0.54366  0.37617  1.0000
  H   H23       1.0  0.65605  0.51406  0.38716  1.0000
  H   H24       1.0  0.79029  0.49974  0.32900  1.0000
  C   C24       1.0  0.81006  0.48540  0.33793  1.0000
  C   C25       1.0  0.20779  0.11245  0.27910  1.0000
  C   C26       1.0  0.23096  0.12431  0.27667  1.0000
  C   C27       1.0  0.24290  0.12290  0.35165  1.0000
  H   H25       1.0  0.19926  0.11319  0.22447  1.0000
  N   N1        1.0  0.24108  0.13657  0.20204  1.0000
  H   H26       1.0  0.23275  0.13738  0.15107  1.0000
  H   H27       1.0  0.25689  0.14491  0.19697  1.0000
  N   N2        1.0  0.26482  0.13433  0.35022  1.0000
  C   C28       1.0  0.89730  0.09950  0.27872  1.0000
  C   C29       1.0  0.88547  0.11085  0.27651  1.0000
  C   C30       1.0  0.88703  0.12429  0.35134  1.0000
  H   H28       1.0  0.89646  0.09018  0.22414  1.0000
  N   N3        1.0  0.87311  0.10864  0.20217  1.0000
  H   H29       1.0  0.87220  0.09945  0.15129  1.0000
  H   H30       1.0  0.86478  0.11614  0.19725  1.0000
  N   N4        1.0  0.87562  0.13481  0.35009  1.0000
  C   C31       1.0  0.91017  0.80224  0.27914  1.0000
  C   C32       1.0  0.89887  0.77907  0.27661  1.0000
  C   C33       1.0  0.88563  0.76710  0.35181  1.0000
  H   H31       1.0  0.91936  0.81079  0.22437  1.0000
  N   N5        1.0  0.90090  0.76898  0.20165  1.0000
  H   H32       1.0  0.90995  0.77731  0.15053  1.0000
  H   H33       1.0  0.89343  0.75316  0.19650  1.0000
  N   N6        1.0  0.87515  0.74518  0.35028  1.0000
  C   C34       1.0  0.61175  0.19723  0.28620  1.0000
  C   C35       1.0  0.59166  0.19680  0.28357  1.0000
  C   C36       1.0  0.57601  0.18627  0.35235  1.0000
  H   H34       1.0  0.62280  0.20501  0.23519  1.0000
  H   H35       1.0  0.58856  0.20429  0.23089  1.0000
  N   N7        1.0  0.55771  0.18729  0.34804  1.0000
  C   C37       1.0  0.81282  0.41890  0.28603  1.0000
  C   C38       1.0  0.81327  0.39926  0.28340  1.0000
  C   C39       1.0  0.82380  0.39413  0.35221  1.0000
  H   H36       1.0  0.80506  0.42218  0.23499  1.0000
  H   H37       1.0  0.80579  0.38866  0.23070  1.0000
  N   N8        1.0  0.82276  0.37480  0.34797  1.0000
  C   C40       1.0  0.59111  0.39829  0.28595  1.0000
  C   C41       1.0  0.61076  0.41838  0.28332  1.0000
  C   C42       1.0  0.61591  0.43401  0.35224  1.0000
  H   H38       1.0  0.58782  0.38726  0.23486  1.0000
  H   H39       1.0  0.62134  0.42150  0.23056  1.0000
  N   N9        1.0  0.63523  0.45231  0.34796  1.0000
  C   C43       1.0  0.96493  0.91922  0.35295  1.0000
  C   C44       1.0  0.95991  0.04498  0.35164  1.0000
  C   C45       1.0  0.09076  0.05004  0.35254  1.0000
  C   C46       1.0  0.93247  0.06391  0.33531  1.0000
  C   C47       1.0  0.92402  0.04118  0.32373  1.0000
  C   C48       1.0  0.93746  0.03183  0.33194  1.0000
  C   C49       1.0  0.94598  0.87285  0.33750  1.0000
  C   C50       1.0  0.96888  0.88698  0.33258  1.0000
  C   C51       1.0  0.97824  0.90978  0.34039  1.0000
  C   C52       1.0  0.13713  0.07748  0.33687  1.0000
  C   C53       1.0  0.12294  0.08616  0.33007  1.0000
  C   C54       1.0  0.10014  0.07271  0.33801  1.0000
  H   H40       1.0  0.90788  0.03111  0.30832  1.0000
  H   H41       1.0  0.93066  0.01533  0.32219  1.0000
  H   H42       1.0  0.99488  0.91939  0.33554  1.0000
  H   H43       1.0  0.97908  0.88080  0.32231  1.0000
  H   H44       1.0  0.12909  0.10248  0.31838  1.0000
  H   H45       1.0  0.09051  0.07968  0.33176  1.0000
  C   C55       1.0  0.02842  0.01637  0.35972  1.0000
  C   C56       1.0  0.01675  0.99327  0.35972  1.0000
  C   C57       1.0  0.99363  0.98155  0.35977  1.0000
  C   C58       1.0  0.98220  0.99323  0.35962  1.0000
  C   C59       1.0  0.99360  0.01634  0.35962  1.0000
  C   C60       1.0  0.01671  0.02777  0.35957  1.0000
  H   H46       1.0  0.96542  0.98482  0.35924  1.0000
  H   H47       1.0  0.02516  0.98490  0.35941  1.0000
  H   H48       1.0  0.02507  0.04455  0.35916  1.0000
  C   C61       1.0  0.06943  0.03763  0.35679  1.0000
  C   C62       1.0  0.04988  0.02718  0.35880  1.0000
  C   C63       1.0  0.97233  0.03607  0.35633  1.0000
  C   C64       1.0  0.98279  0.02699  0.35857  1.0000
  C   C65       1.0  0.98298  0.96010  0.35892  1.0000
  C   C66       1.0  0.97387  0.94055  0.35702  1.0000
  C   C67       1.0  0.15951  0.09120  0.32364  1.0000
  C   C68       1.0  0.93732  0.85047  0.32428  1.0000
  C   C69       1.0  0.91878  0.07262  0.32202  1.0000
  H   H49       1.0  0.90547  0.06412  0.28433  1.0000
  H   H50       1.0  0.94600  0.84566  0.28777  1.0000
  H   H51       1.0  0.16432  0.10466  0.28694  1.0000
  C   C70       1.0  0.34839  0.17330  0.36175  1.0000
  C   C71       1.0  0.48548  0.30307  0.35226  1.0000
  C   C72       1.0  0.48612  0.18773  0.35585  1.0000
  C   C73       1.0  0.52115  0.34694  0.35089  1.0000
  C   C74       1.0  0.49940  0.34234  0.36434  1.0000
  C   C75       1.0  0.48177  0.32072  0.36519  1.0000
  C   C76       1.0  0.30203  0.14554  0.37865  1.0000
  C   C77       1.0  0.31677  0.13922  0.41332  1.0000
  C   C78       1.0  0.33954  0.15281  0.40504  1.0000
  C   C79       1.0  0.52145  0.17918  0.36888  1.0000
  C   C80       1.0  0.52534  0.20064  0.35418  1.0000
  C   C81       1.0  0.50794  0.20488  0.34775  1.0000
  H   H52       1.0  0.49614  0.35477  0.37392  1.0000
  H   H53       1.0  0.46629  0.31806  0.37521  1.0000
  H   H54       1.0  0.34952  0.14754  0.43142  1.0000
  H   H55       1.0  0.31105  0.12452  0.44549  1.0000
  H   H56       1.0  0.54095  0.21354  0.34970  1.0000
  H   H57       1.0  0.51145  0.22068  0.33831  1.0000
  C   C82       1.0  0.44558  0.20790  0.35098  1.0000
  C   C83       1.0  0.42249  0.19622  0.35098  1.0000
  C   C84       1.0  0.41061  0.20748  0.35125  1.0000
  C   C85       1.0  0.42209  0.23061  0.35180  1.0000
  C   C86       1.0  0.44518  0.24239  0.35190  1.0000
  C   C87       1.0  0.45677  0.23093  0.35145  1.0000
  H   H58       1.0  0.41363  0.23892  0.35238  1.0000
  H   H59       1.0  0.41434  0.17946  0.35109  1.0000
  H   H60       1.0  0.47358  0.23948  0.35169  1.0000
  C   C88       1.0  0.47016  0.19201  0.35291  1.0000
  C   C89       1.0  0.45714  0.19812  0.35150  1.0000
  C   C90       1.0  0.46938  0.28288  0.35279  1.0000
  C   C91       1.0  0.45642  0.26374  0.35258  1.0000
  C   C92       1.0  0.38918  0.19649  0.35248  1.0000
  C   C93       1.0  0.36965  0.18585  0.35549  1.0000
  C   C94       1.0  0.53842  0.17475  0.37991  1.0000
  C   C95       1.0  0.27955  0.13161  0.38981  1.0000
  C   C96       1.0  0.53825  0.36852  0.34969  1.0000
  H   H61       1.0  0.53478  0.38049  0.34402  1.0000
  H   H62       1.0  0.27460  0.11850  0.42888  1.0000
  H   H63       1.0  0.53543  0.16128  0.41310  1.0000
  C   C97       1.0  0.83673  0.17947  0.36184  1.0000
  C   C98       1.0  0.70696  0.18679  0.35238  1.0000
  C   C99       1.0  0.82231  0.30277  0.35596  1.0000
  C   C100      1.0  0.66309  0.17858  0.35089  1.0000
  C   C101      1.0  0.66769  0.16143  0.36444  1.0000
  C   C102      1.0  0.68931  0.16543  0.36536  1.0000
  C   C103      1.0  0.86448  0.16085  0.37852  1.0000
  C   C104      1.0  0.87083  0.18192  0.41303  1.0000
  C   C105      1.0  0.85725  0.19112  0.40486  1.0000
  C   C106      1.0  0.83086  0.34665  0.36891  1.0000
  C   C107      1.0  0.80939  0.32908  0.35427  1.0000
  C   C108      1.0  0.80515  0.30744  0.34793  1.0000
  H   H64       1.0  0.65526  0.14574  0.37407  1.0000
  H   H65       1.0  0.69197  0.15261  0.37544  1.0000
  H   H66       1.0  0.86255  0.20638  0.43110  1.0000
  H   H67       1.0  0.88557  0.19092  0.44499  1.0000
  H   H68       1.0  0.79650  0.33180  0.34992  1.0000
  H   H69       1.0  0.78935  0.29515  0.33858  1.0000
  C   C109      1.0  0.80214  0.24207  0.35117  1.0000
  C   C110      1.0  0.81381  0.23066  0.35116  1.0000
  C   C111      1.0  0.80256  0.20752  0.35142  1.0000
  C   C112      1.0  0.77943  0.19586  0.35197  1.0000
  C   C113      1.0  0.76764  0.20717  0.35209  1.0000
  C   C114      1.0  0.77910  0.23021  0.35164  1.0000
  H   H70       1.0  0.77112  0.17910  0.35256  1.0000
  H   H71       1.0  0.83058  0.23926  0.35127  1.0000
  H   H72       1.0  0.77055  0.23848  0.35188  1.0000
  C   C115      1.0  0.81802  0.28252  0.35306  1.0000
  C   C116      1.0  0.81191  0.26340  0.35167  1.0000
  C   C117      1.0  0.72715  0.19088  0.35295  1.0000
  C   C118      1.0  0.74629  0.19707  0.35277  1.0000
  C   C119      1.0  0.81354  0.19708  0.35265  1.0000
  C   C120      1.0  0.82419  0.18819  0.35564  1.0000
  C   C121      1.0  0.83529  0.36805  0.37991  1.0000
  C   C122      1.0  0.87841  0.15229  0.38952  1.0000
  C   C123      1.0  0.64150  0.17410  0.34963  1.0000
  H   H73       1.0  0.62953  0.15864  0.34379  1.0000
  H   H74       1.0  0.89157  0.16048  0.42830  1.0000
  H   H75       1.0  0.84877  0.37853  0.41306  1.0000
  C   C124      1.0  0.83056  0.66162  0.36184  1.0000
  C   C125      1.0  0.82322  0.52453  0.35222  1.0000
  C   C126      1.0  0.70724  0.52389  0.35583  1.0000
  C   C127      1.0  0.83143  0.48886  0.35079  1.0000
  C   C128      1.0  0.84858  0.51061  0.36434  1.0000
  C   C129      1.0  0.84458  0.52824  0.36523  1.0000
  C   C130      1.0  0.84918  0.70797  0.37887  1.0000
  C   C131      1.0  0.82819  0.69324  0.41411  1.0000
  C   C132      1.0  0.81900  0.67047  0.40578  1.0000
  C   C133      1.0  0.66337  0.48856  0.36884  1.0000
  C   C134      1.0  0.68096  0.48466  0.35465  1.0000
  C   C135      1.0  0.70260  0.50207  0.34823  1.0000
  H   H76       1.0  0.86427  0.51387  0.37398  1.0000
  H   H77       1.0  0.85740  0.54372  0.37532  1.0000
  H   H78       1.0  0.80380  0.66048  0.43258  1.0000
  H   H79       1.0  0.81927  0.69896  0.44675  1.0000
  H   H80       1.0  0.67825  0.46905  0.35053  1.0000
  H   H81       1.0  0.71490  0.49856  0.33917  1.0000
  C   C136      1.0  0.76795  0.56444  0.35096  1.0000
  C   C137      1.0  0.77936  0.58752  0.35094  1.0000
  C   C138      1.0  0.80250  0.59939  0.35119  1.0000
  C   C139      1.0  0.81415  0.58792  0.35175  1.0000
  C   C140      1.0  0.80285  0.56483  0.35187  1.0000
  C   C141      1.0  0.77980  0.55324  0.35142  1.0000
  H   H82       1.0  0.83091  0.59637  0.35233  1.0000
  H   H83       1.0  0.77076  0.59568  0.35106  1.0000
  H   H84       1.0  0.77153  0.53643  0.35168  1.0000
  C   C142      1.0  0.72749  0.53986  0.35290  1.0000
  C   C143      1.0  0.74661  0.55288  0.35148  1.0000
  C   C144      1.0  0.81912  0.54062  0.35276  1.0000
  C   C145      1.0  0.81294  0.55358  0.35256  1.0000
  C   C146      1.0  0.81295  0.62083  0.35244  1.0000
  C   C147      1.0  0.82184  0.64036  0.35549  1.0000
  C   C148      1.0  0.64197  0.47159  0.37988  1.0000
  C   C149      1.0  0.85774  0.73046  0.39007  1.0000
  C   C150      1.0  0.83592  0.47177  0.34952  1.0000
  H   H85       1.0  0.85137  0.47525  0.34372  1.0000
  H   H86       1.0  0.84961  0.73540  0.42938  1.0000
  H   H87       1.0  0.63149  0.47458  0.41307  1.0000
  C   C151      1.0  0.23112  0.10982  0.42688  1.0000
  C   C152      1.0  0.20814  0.09813  0.42774  1.0000
  C   C153      1.0  0.19607  0.09942  0.35437  1.0000
  H   H88       1.0  0.23918  0.10882  0.48260  1.0000
  H   H89       1.0  0.20022  0.08889  0.48343  1.0000
  N   N10       1.0  0.17424  0.08788  0.35941  1.0000
  C   C154      1.0  0.90020  0.12563  0.42627  1.0000
  C   C155      1.0  0.91184  0.11429  0.42697  1.0000
  C   C156      1.0  0.91044  0.10086  0.35369  1.0000
  H   H90       1.0  0.90130  0.13475  0.48193  1.0000
  H   H91       1.0  0.92115  0.11565  0.48245  1.0000
  N   N11       1.0  0.92194  0.09052  0.35865  1.0000
  C   C157      1.0  0.88444  0.77886  0.42736  1.0000
  C   C158      1.0  0.89572  0.80184  0.42832  1.0000
  C   C159      1.0  0.90895  0.81393  0.35471  1.0000
  H   H92       1.0  0.87547  0.77078  0.48324  1.0000
  H   H93       1.0  0.89447  0.80974  0.48423  1.0000
  N   N12       1.0  0.91924  0.83576  0.35983  1.0000
  C   C160      1.0  0.58122  0.17669  0.42532  1.0000
  C   C161      1.0  0.60149  0.17717  0.42994  1.0000
  C   C162      1.0  0.61672  0.18721  0.35791  1.0000
  H   H94       1.0  0.57036  0.16986  0.47761  1.0000
  N   N13       1.0  0.60589  0.16851  0.50387  1.0000
  H   H95       1.0  0.59544  0.16206  0.55327  1.0000
  H   H96       1.0  0.61991  0.16932  0.51182  1.0000
  N   N14       1.0  0.63643  0.18916  0.35701  1.0000
  C   C163      1.0  0.83333  0.40890  0.42528  1.0000
  C   C164      1.0  0.83283  0.42868  0.42991  1.0000
  C   C165      1.0  0.82281  0.43388  0.35781  1.0000
  H   H97       1.0  0.84013  0.40485  0.47764  1.0000
  N   N15       1.0  0.84144  0.44172  0.50391  1.0000
  H   H98       1.0  0.84792  0.43774  0.55328  1.0000
  H   H99       1.0  0.84067  0.45494  0.51178  1.0000
  N   N16       1.0  0.82086  0.45163  0.35690  1.0000
  C   C166      1.0  0.60114  0.42877  0.42531  1.0000
  C   C167      1.0  0.58137  0.40850  0.42996  1.0000
  C   C168      1.0  0.57616  0.39328  0.35783  1.0000
  H   H100      1.0  0.60520  0.43961  0.47772  1.0000
  N   N17       1.0  0.56834  0.40406  0.50401  1.0000
  H   H101      1.0  0.57235  0.41450  0.55348  1.0000
  H   H102      1.0  0.55515  0.39004  0.51199  1.0000
  N   N18       1.0  0.55839  0.37358  0.35690  1.0000
