data_image0
_chemical_formula_structural       C17H12C17H12NCHNCHNCHC13H9C13H9C2NC2O2HC2NC2O2HC2NC2O2H
_chemical_formula_sum              "C75 H48 N6 O6"
_cell_length_a       37.2972
_cell_length_b       37.2717
_cell_length_c       14.8695
_cell_angle_alpha    90
_cell_angle_beta     90
_cell_angle_gamma    120.036

_space_group_name_H-M_alt    "P 1"
_space_group_IT_number       1

loop_
  _space_group_symop_operation_xyz
  'x, y, z'

loop_
  _atom_site_type_symbol
  _atom_site_label
  _atom_site_symmetry_multiplicity
  _atom_site_fract_x
  _atom_site_fract_y
  _atom_site_fract_z
  _atom_site_occupancy
  C   C1        1.0  0.47756  0.89243  0.32974  1.0000
  C   C2        1.0  0.45426  0.84880  0.33165  1.0000
  C   C3        1.0  0.38962  0.75796  0.29748  1.0000
  C   C4        1.0  0.36485  0.71508  0.30371  1.0000
  C   C5        1.0  0.32110  0.69564  0.30320  1.0000
  C   C6        1.0  0.29591  0.65197  0.30355  1.0000
  C   C7        1.0  0.31532  0.62763  0.30267  1.0000
  C   C8        1.0  0.35895  0.64613  0.30319  1.0000
  C   C9        1.0  0.38331  0.68991  0.30282  1.0000
  C   C10       1.0  0.37704  0.62138  0.29671  1.0000
  C   C11       1.0  0.42555  0.60002  0.34680  1.0000
  C   C12       1.0  0.40325  0.55677  0.33073  1.0000
  C   C13       1.0  0.42357  0.53350  0.32860  1.0000
  C   C14       1.0  0.25304  0.63388  0.29731  1.0000
  C   C15       1.0  0.18313  0.58490  0.34637  1.0000
  C   C16       1.0  0.15885  0.54147  0.35748  1.0000
  C   C17       1.0  0.11531  0.52131  0.35562  1.0000
  H   H1        1.0  0.50885  0.90643  0.31932  1.0000
  H   H2        1.0  0.46936  0.83247  0.32270  1.0000
  H   H3        1.0  0.41495  0.70366  0.30012  1.0000
  H   H4        1.0  0.30739  0.71358  0.30081  1.0000
  H   H5        1.0  0.29740  0.59596  0.29987  1.0000
  H   H6        1.0  0.40623  0.50216  0.31856  1.0000
  H   H7        1.0  0.37179  0.54162  0.32216  1.0000
  H   H8        1.0  0.09897  0.48977  0.36269  1.0000
  H   H9        1.0  0.17271  0.52398  0.36718  1.0000
  H   H10       1.0  0.36741  0.60078  0.24696  1.0000
  H   H11       1.0  0.41017  0.76899  0.24767  1.0000
  H   H12       1.0  0.24209  0.64401  0.24854  1.0000
  C   C18       1.0  0.54069  0.11648  0.37099  1.0000
  C   C19       1.0  0.56484  0.16001  0.37403  1.0000
  C   C20       1.0  0.62382  0.25066  0.30606  1.0000
  C   C21       1.0  0.64865  0.29375  0.31179  1.0000
  C   C22       1.0  0.69247  0.31386  0.31125  1.0000
  C   C23       1.0  0.71740  0.35759  0.31166  1.0000
  C   C24       1.0  0.69733  0.38134  0.31084  1.0000
  C   C25       1.0  0.65362  0.36252  0.31142  1.0000
  C   C26       1.0  0.62987  0.31867  0.31096  1.0000
  C   C27       1.0  0.63541  0.38736  0.30533  1.0000
  C   C28       1.0  0.58314  0.40517  0.34015  1.0000
  C   C29       1.0  0.60365  0.44626  0.37292  1.0000
  C   C30       1.0  0.58433  0.47043  0.36976  1.0000
  C   C31       1.0  0.76046  0.37581  0.30576  1.0000
  C   C32       1.0  0.83059  0.42817  0.34031  1.0000
  C   C33       1.0  0.85471  0.46809  0.30279  1.0000
  C   C34       1.0  0.89817  0.48702  0.29873  1.0000
  H   H13       1.0  0.51110  0.10277  0.39565  1.0000
  H   H14       1.0  0.55241  0.17652  0.40182  1.0000
  H   H15       1.0  0.59822  0.30453  0.30788  1.0000
  H   H16       1.0  0.70656  0.29630  0.30840  1.0000
  H   H17       1.0  0.71487  0.41300  0.30764  1.0000
  H   H18       1.0  0.60017  0.49998  0.39471  1.0000
  H   H19       1.0  0.63252  0.45866  0.40104  1.0000
  H   H20       1.0  0.91440  0.51640  0.27320  1.0000
  H   H21       1.0  0.84084  0.48396  0.27889  1.0000
  H   H22       1.0  0.64967  0.41260  0.26697  1.0000
  H   H23       1.0  0.59864  0.23961  0.26755  1.0000
  H   H24       1.0  0.77143  0.36141  0.26790  1.0000
  N   N1        1.0  0.47795  0.50052  0.27758  1.0000
  C   C35       1.0  0.49506  0.47598  0.26956  1.0000
  H   H25       1.0  0.48707  0.45642  0.21574  1.0000
  N   N2        1.0  0.51060  0.97989  0.27915  1.0000
  C   C36       1.0  0.53515  0.02158  0.27118  1.0000
  H   H26       1.0  0.55465  0.03317  0.21728  1.0000
  N   N3        1.0  0.03135  0.53345  0.27820  1.0000
  C   C37       1.0  0.98972  0.51653  0.27039  1.0000
  H   H27       1.0  0.97830  0.52511  0.21730  1.0000
  C   C38       1.0  0.45868  0.91664  0.34590  1.0000
  C   C39       1.0  0.41108  0.82784  0.34809  1.0000
  C   C40       1.0  0.39207  0.85203  0.36245  1.0000
  C   C41       1.0  0.41540  0.89560  0.36075  1.0000
  C   C42       1.0  0.38733  0.78478  0.35458  1.0000
  C   C43       1.0  0.40626  0.62374  0.35352  1.0000
  C   C44       1.0  0.46878  0.61910  0.36066  1.0000
  C   C45       1.0  0.46669  0.55245  0.34433  1.0000
  C   C46       1.0  0.48900  0.59579  0.35884  1.0000
  C   C47       1.0  0.22613  0.60408  0.35308  1.0000
  C   C48       1.0  0.16231  0.60748  0.33304  1.0000
  C   C49       1.0  0.09442  0.54389  0.34377  1.0000
  C   C50       1.0  0.11871  0.58724  0.33088  1.0000
  H   H28       1.0  0.40027  0.91186  0.37013  1.0000
  H   H29       1.0  0.36087  0.83808  0.37438  1.0000
  H   H30       1.0  0.17871  0.63906  0.32653  1.0000
  H   H31       1.0  0.48608  0.65034  0.37234  1.0000
  H   H32       1.0  0.52042  0.61097  0.36789  1.0000
  H   H33       1.0  0.10480  0.60475  0.32281  1.0000
  H   H34       1.0  0.41581  0.64468  0.40265  1.0000
  H   H35       1.0  0.36642  0.77333  0.40375  1.0000
  H   H36       1.0  0.23744  0.59401  0.40128  1.0000
  C   C51       1.0  0.55654  0.09202  0.33479  1.0000
  C   C52       1.0  0.60596  0.18058  0.34163  1.0000
  C   C53       1.0  0.62218  0.15651  0.30597  1.0000
  C   C54       1.0  0.59774  0.11301  0.30189  1.0000
  C   C55       1.0  0.63105  0.22323  0.34955  1.0000
  C   C56       1.0  0.60062  0.38006  0.34830  1.0000
  C   C57       1.0  0.54293  0.38899  0.30406  1.0000
  C   C58       1.0  0.54409  0.45461  0.33314  1.0000
  C   C59       1.0  0.52393  0.41345  0.29989  1.0000
  C   C60       1.0  0.78800  0.41078  0.34827  1.0000
  C   C61       1.0  0.85107  0.40786  0.37455  1.0000
  C   C62       1.0  0.91912  0.46704  0.33323  1.0000
  C   C63       1.0  0.89455  0.42708  0.37124  1.0000
  H   H37       1.0  0.61110  0.09675  0.27775  1.0000
  H   H38       1.0  0.65214  0.17045  0.28339  1.0000
  H   H39       1.0  0.83453  0.37919  0.40365  1.0000
  H   H40       1.0  0.52693  0.35905  0.28125  1.0000
  H   H41       1.0  0.49435  0.40009  0.27549  1.0000
  H   H42       1.0  0.90814  0.41131  0.39717  1.0000
  H   H43       1.0  0.58584  0.35514  0.38717  1.0000
  H   H44       1.0  0.65591  0.23344  0.38855  1.0000
  H   H45       1.0  0.77791  0.42572  0.38672  1.0000
  C   C64       1.0  0.48681  0.52842  0.34511  1.0000
  C   C65       1.0  0.52430  0.47901  0.33396  1.0000
  N   N4        1.0  0.53268  0.50662  0.40175  1.0000
  C   C66       1.0  0.51586  0.53148  0.41100  1.0000
  C   C67       1.0  0.52560  0.55576  0.48781  1.0000
  O   O1        1.0  0.56168  0.57372  0.51281  1.0000
  O   O2        1.0  0.49996  0.54786  0.54826  1.0000
  H   H46       1.0  0.47279  0.53204  0.54204  1.0000
  C   C68       1.0  0.48274  0.96083  0.34672  1.0000
  C   C69       1.0  0.53214  0.04780  0.33562  1.0000
  N   N5        1.0  0.50457  0.02856  0.40345  1.0000
  C   C70       1.0  0.47973  0.98684  0.41267  1.0000
  C   C71       1.0  0.45556  0.97236  0.48967  1.0000
  O   O3        1.0  0.43731  0.99016  0.51468  1.0000
  O   O4        1.0  0.46355  0.95441  0.54957  1.0000
  H   H47       1.0  0.47946  0.94318  0.54303  1.0000
  C   C72       1.0  0.05028  0.52383  0.34458  1.0000
  C   C73       1.0  0.96335  0.48672  0.33381  1.0000
  N   N6        1.0  0.98253  0.47756  0.40036  1.0000
  C   C74       1.0  0.02419  0.49413  0.40937  1.0000
  C   C75       1.0  0.03854  0.48326  0.48478  1.0000
  O   O5        1.0  0.02029  0.44700  0.50859  1.0000
  O   O6        1.0  0.05698  0.50835  0.54592  1.0000
  H   H48       1.0  0.06858  0.53561  0.54109  1.0000
