data_image0
_chemical_formula_structural       C3HC2H2C2H2CHCNCNCNC18H12CNCNCNC18H12C4NC2NHOHC4NC2NHOHC3NCNHOH
_chemical_formula_sum              "C66 H36 N12 O3"
_cell_length_a       29.4901
_cell_length_b       29.4902
_cell_length_c       14.9504
_cell_angle_alpha    90
_cell_angle_beta     90
_cell_angle_gamma    120

_space_group_name_H-M_alt    "P 1"
_space_group_IT_number       1

loop_
  _space_group_symop_operation_xyz
  'x, y, z'

loop_
  _atom_site_type_symbol
  _atom_site_label
  _atom_site_symmetry_multiplicity
  _atom_site_fract_x
  _atom_site_fract_y
  _atom_site_fract_z
  _atom_site_occupancy
  C   C1        1.0  0.02966  0.51525  0.25752  1.0000
  C   C2        1.0  0.03071  0.51577  0.42035  1.0000
  C   C3        1.0  0.03307  0.51695  0.58001  1.0000
  H   H1        1.0  0.04870  0.52476  0.19725  1.0000
  C   C4        1.0  0.48890  0.51525  0.25752  1.0000
  C   C5        1.0  0.51641  0.48774  0.25849  1.0000
  H   H2        1.0  0.52621  0.47793  0.19876  1.0000
  H   H3        1.0  0.47938  0.52476  0.19726  1.0000
  C   C6        1.0  0.48890  0.97448  0.25752  1.0000
  C   C7        1.0  0.51641  0.02950  0.25849  1.0000
  H   H4        1.0  0.52621  0.04911  0.19876  1.0000
  H   H5        1.0  0.47938  0.95545  0.19726  1.0000
  C   C8        1.0  0.97464  0.48774  0.25849  1.0000
  H   H6        1.0  0.95503  0.47793  0.19876  1.0000
  C   C9        1.0  0.36287  0.72243  0.33623  1.0000
  N   N1        1.0  0.38822  0.69453  0.33621  1.0000
  C   C10       1.0  0.36287  0.64128  0.33622  1.0000
  N   N2        1.0  0.30962  0.61593  0.33621  1.0000
  C   C11       1.0  0.28172  0.64128  0.33623  1.0000
  N   N3        1.0  0.30962  0.69453  0.33621  1.0000
  C   C12       1.0  0.39085  0.61330  0.33596  1.0000
  C   C13       1.0  0.44638  0.63998  0.33591  1.0000
  C   C14       1.0  0.47402  0.61251  0.33586  1.0000
  C   C15       1.0  0.44685  0.55730  0.33553  1.0000
  C   C16       1.0  0.39164  0.53013  0.33586  1.0000
  C   C17       1.0  0.36416  0.55776  0.33591  1.0000
  C   C18       1.0  0.39085  0.77838  0.33596  1.0000
  C   C19       1.0  0.44638  0.80723  0.33591  1.0000
  C   C20       1.0  0.47402  0.86234  0.33586  1.0000
  C   C21       1.0  0.44685  0.89039  0.33553  1.0000
  C   C22       1.0  0.39164  0.86234  0.33586  1.0000
  C   C23       1.0  0.36416  0.80723  0.33592  1.0000
  C   C24       1.0  0.22576  0.61330  0.33597  1.0000
  C   C25       1.0  0.19692  0.63998  0.33592  1.0000
  C   C26       1.0  0.14180  0.61251  0.33586  1.0000
  C   C27       1.0  0.11375  0.55729  0.33552  1.0000
  C   C28       1.0  0.14180  0.53013  0.33586  1.0000
  C   C29       1.0  0.19692  0.55776  0.33591  1.0000
  H   H7        1.0  0.51409  0.88183  0.33647  1.0000
  H   H8        1.0  0.46764  0.78846  0.33624  1.0000
  H   H9        1.0  0.37105  0.88183  0.33646  1.0000
  H   H10       1.0  0.32414  0.78846  0.33624  1.0000
  H   H11       1.0  0.21568  0.68000  0.33625  1.0000
  H   H12       1.0  0.12232  0.63310  0.33646  1.0000
  H   H13       1.0  0.21568  0.53651  0.33625  1.0000
  H   H14       1.0  0.12232  0.49005  0.33647  1.0000
  H   H15       1.0  0.32414  0.53651  0.33624  1.0000
  H   H16       1.0  0.37105  0.49005  0.33646  1.0000
  H   H17       1.0  0.51409  0.63310  0.33646  1.0000
  H   H18       1.0  0.46764  0.68000  0.33624  1.0000
  C   C30       1.0  0.64210  0.28088  0.33598  1.0000
  N   N4        1.0  0.61675  0.30879  0.33599  1.0000
  C   C31       1.0  0.64210  0.36205  0.33598  1.0000
  N   N5        1.0  0.69535  0.38739  0.33599  1.0000
  C   C32       1.0  0.72326  0.36205  0.33598  1.0000
  N   N6        1.0  0.69535  0.30879  0.33599  1.0000
  C   C33       1.0  0.61411  0.39003  0.33602  1.0000
  C   C34       1.0  0.55858  0.36335  0.33620  1.0000
  C   C35       1.0  0.53094  0.39083  0.33679  1.0000
  C   C36       1.0  0.55810  0.44605  0.33697  1.0000
  C   C37       1.0  0.61332  0.47321  0.33678  1.0000
  C   C38       1.0  0.64079  0.44556  0.33621  1.0000
  C   C39       1.0  0.61411  0.22491  0.33603  1.0000
  C   C40       1.0  0.55858  0.19606  0.33622  1.0000
  C   C41       1.0  0.53094  0.14094  0.33679  1.0000
  C   C42       1.0  0.55810  0.11288  0.33697  1.0000
  C   C43       1.0  0.61332  0.14094  0.33679  1.0000
  C   C44       1.0  0.64079  0.19606  0.33621  1.0000
  C   C45       1.0  0.77923  0.39003  0.33602  1.0000
  C   C46       1.0  0.80809  0.36335  0.33621  1.0000
  C   C47       1.0  0.86321  0.39083  0.33679  1.0000
  C   C48       1.0  0.89127  0.44605  0.33698  1.0000
  C   C49       1.0  0.86320  0.47321  0.33677  1.0000
  C   C50       1.0  0.80809  0.44556  0.33620  1.0000
  H   H19       1.0  0.49087  0.12146  0.33759  1.0000
  H   H20       1.0  0.53733  0.21482  0.33633  1.0000
  H   H21       1.0  0.63391  0.12146  0.33759  1.0000
  H   H22       1.0  0.68081  0.21482  0.33634  1.0000
  H   H23       1.0  0.78932  0.32333  0.33632  1.0000
  H   H24       1.0  0.88269  0.37024  0.33759  1.0000
  H   H25       1.0  0.78932  0.46682  0.33633  1.0000
  H   H26       1.0  0.88268  0.51328  0.33759  1.0000
  H   H27       1.0  0.68081  0.46682  0.33633  1.0000
  H   H28       1.0  0.63391  0.51328  0.33759  1.0000
  H   H29       1.0  0.49087  0.37024  0.33759  1.0000
  H   H30       1.0  0.53732  0.32333  0.33634  1.0000
  C   C51       1.0  0.53035  0.47380  0.34010  1.0000
  C   C52       1.0  0.51631  0.48784  0.42232  1.0000
  C   C53       1.0  0.48838  0.51577  0.42036  1.0000
  C   C54       1.0  0.47459  0.52955  0.33821  1.0000
  N   N7        1.0  0.47518  0.52897  0.49942  1.0000
  C   C55       1.0  0.48720  0.51694  0.58002  1.0000
  C   C56       1.0  0.51465  0.48950  0.58268  1.0000
  N   N8        1.0  0.52828  0.47586  0.50450  1.0000
  H   H31       1.0  0.47635  0.52780  0.63737  1.0000
  O   O1        1.0  0.52720  0.47695  0.66237  1.0000
  H   H32       1.0  0.54729  0.45685  0.50880  1.0000
  C   C57       1.0  0.53035  0.05738  0.34010  1.0000
  C   C58       1.0  0.51631  0.02929  0.42231  1.0000
  C   C59       1.0  0.48838  0.97344  0.42035  1.0000
  C   C60       1.0  0.47460  0.94588  0.33820  1.0000
  N   N9        1.0  0.47518  0.94704  0.49941  1.0000
  C   C61       1.0  0.48720  0.97108  0.58001  1.0000
  C   C62       1.0  0.51465  0.02598  0.58268  1.0000
  N   N10       1.0  0.52829  0.05325  0.50450  1.0000
  H   H33       1.0  0.47635  0.94938  0.63737  1.0000
  O   O2        1.0  0.52720  0.05108  0.66237  1.0000
  H   H34       1.0  0.54729  0.09127  0.50880  1.0000
  C   C63       1.0  0.94676  0.47380  0.34010  1.0000
  C   C64       1.0  0.97485  0.48784  0.42232  1.0000
  C   C65       1.0  0.05827  0.52955  0.33820  1.0000
  N   N11       1.0  0.05711  0.52897  0.49941  1.0000
  C   C66       1.0  0.97817  0.48950  0.58268  1.0000
  N   N12       1.0  0.95090  0.47586  0.50451  1.0000
  H   H35       1.0  0.05477  0.52780  0.63737  1.0000
  O   O3        1.0  0.95307  0.47695  0.66237  1.0000
  H   H36       1.0  0.91288  0.45686  0.50881  1.0000
