data_image0
_chemical_formula_structural       C6H6N2C6H6N2C7H3CH2C7H3CH2C7H3CH2C12H5CNC2NHN2C12H5CNC2NHN2C2HC3HC2H4CHC2HC3HC2H4CHC2HC3HC2H4CH
_chemical_formula_sum              "C90 H60 N12"
_cell_length_a       44.1594
_cell_length_b       44.1594
_cell_length_c       15.0016
_cell_angle_alpha    90
_cell_angle_beta     90
_cell_angle_gamma    120

_space_group_name_H-M_alt    "P 1"
_space_group_IT_number       1

loop_
  _space_group_symop_operation_xyz
  'x, y, z'

loop_
  _atom_site_type_symbol
  _atom_site_label
  _atom_site_symmetry_multiplicity
  _atom_site_fract_x
  _atom_site_fract_y
  _atom_site_fract_z
  _atom_site_occupancy
  C   C1        1.0  0.37012  0.73994  0.33967  1.0000
  C   C2        1.0  0.20418  0.62930  0.32021  1.0000
  C   C3        1.0  0.24094  0.64763  0.32269  1.0000
  C   C4        1.0  0.35296  0.75933  0.35530  1.0000
  C   C5        1.0  0.37145  0.79612  0.35402  1.0000
  C   C6        1.0  0.40751  0.81466  0.33493  1.0000
  H   H1        1.0  0.19134  0.64280  0.30838  1.0000
  H   H2        1.0  0.25364  0.67399  0.31111  1.0000
  H   H3        1.0  0.32675  0.74691  0.36880  1.0000
  H   H4        1.0  0.35826  0.80929  0.36588  1.0000
  H   H5        1.0  0.35706  0.54851  0.30823  1.0000
  H   H6        1.0  0.32587  0.57963  0.31099  1.0000
  N   N1        1.0  0.31585  0.68423  0.34061  1.0000
  N   N2        1.0  0.42382  0.84935  0.33529  1.0000
  C   C7        1.0  0.62950  0.25993  0.33463  1.0000
  C   C8        1.0  0.79570  0.36992  0.34697  1.0000
  C   C9        1.0  0.75892  0.35178  0.34712  1.0000
  C   C10       1.0  0.64675  0.24050  0.32125  1.0000
  C   C11       1.0  0.62809  0.20371  0.32015  1.0000
  C   C12       1.0  0.59167  0.18513  0.33419  1.0000
  H   H7        1.0  0.80844  0.35611  0.35484  1.0000
  H   H8        1.0  0.74621  0.32530  0.35664  1.0000
  H   H9        1.0  0.67318  0.25289  0.31092  1.0000
  H   H10       1.0  0.64138  0.19055  0.30952  1.0000
  H   H11       1.0  0.64376  0.45231  0.35499  1.0000
  H   H12       1.0  0.67457  0.42089  0.35671  1.0000
  N   N3        1.0  0.68390  0.31558  0.33476  1.0000
  N   N4        1.0  0.57538  0.15046  0.33014  1.0000
  C   C13       1.0  0.44516  0.53819  0.29426  1.0000
  C   C14       1.0  0.46179  0.53348  0.21966  1.0000
  C   C15       1.0  0.48359  0.51898  0.22948  1.0000
  C   C16       1.0  0.48909  0.50802  0.31384  1.0000
  C   C17       1.0  0.51169  0.49349  0.32630  1.0000
  C   C18       1.0  0.52053  0.47781  0.25613  1.0000
  C   C19       1.0  0.54252  0.46378  0.27041  1.0000
  H   H13       1.0  0.51062  0.47568  0.19350  1.0000
  H   H14       1.0  0.54849  0.45310  0.21739  1.0000
  H   H15       1.0  0.45855  0.54100  0.15742  1.0000
  C   C20       1.0  0.42325  0.55185  0.28325  1.0000
  H   H16       1.0  0.40666  0.54366  0.23210  1.0000
  H   H17       1.0  0.49591  0.51730  0.17369  1.0000
  C   C21       1.0  0.46165  0.90693  0.29430  1.0000
  C   C22       1.0  0.46639  0.92827  0.21967  1.0000
  C   C23       1.0  0.48091  0.96457  0.22946  1.0000
  C   C24       1.0  0.49188  0.98104  0.31381  1.0000
  C   C25       1.0  0.50640  0.01817  0.32624  1.0000
  C   C26       1.0  0.52207  0.04269  0.25604  1.0000
  C   C27       1.0  0.53611  0.07870  0.27030  1.0000
  H   H18       1.0  0.52422  0.03490  0.19343  1.0000
  H   H19       1.0  0.54679  0.09535  0.21727  1.0000
  H   H20       1.0  0.45885  0.91751  0.15745  1.0000
  C   C28       1.0  0.44796  0.87136  0.28331  1.0000
  H   H21       1.0  0.45618  0.86294  0.23225  1.0000
  H   H22       1.0  0.48258  0.97856  0.17367  1.0000
  C   C29       1.0  0.09293  0.55470  0.29427  1.0000
  C   C30       1.0  0.07159  0.53807  0.21966  1.0000
  C   C31       1.0  0.03529  0.51628  0.22946  1.0000
  C   C32       1.0  0.01883  0.51078  0.31381  1.0000
  C   C33       1.0  0.98170  0.48819  0.32626  1.0000
  C   C34       1.0  0.95718  0.47934  0.25607  1.0000
  C   C35       1.0  0.92117  0.45735  0.27033  1.0000
  H   H23       1.0  0.96497  0.48926  0.19344  1.0000
  H   H24       1.0  0.90452  0.45138  0.21729  1.0000
  H   H25       1.0  0.08236  0.54131  0.15743  1.0000
  C   C36       1.0  0.12850  0.57660  0.28327  1.0000
  H   H26       1.0  0.13692  0.59321  0.23216  1.0000
  H   H27       1.0  0.02130  0.50396  0.17367  1.0000
  C   C37       1.0  0.25993  0.63015  0.33958  1.0000
  C   C38       1.0  0.36971  0.62974  0.33952  1.0000
  C   C39       1.0  0.24054  0.59361  0.35520  1.0000
  C   C40       1.0  0.20374  0.57530  0.35388  1.0000
  C   C41       1.0  0.18520  0.59282  0.33477  1.0000
  C   C42       1.0  0.42501  0.79569  0.32031  1.0000
  C   C43       1.0  0.40658  0.75893  0.32277  1.0000
  C   C44       1.0  0.40626  0.64689  0.35516  1.0000
  C   C45       1.0  0.42456  0.62840  0.35384  1.0000
  C   C46       1.0  0.40704  0.59235  0.33468  1.0000
  C   C47       1.0  0.37057  0.57485  0.32009  1.0000
  C   C48       1.0  0.35223  0.59328  0.32257  1.0000
  H   H28       1.0  0.19057  0.54894  0.36578  1.0000
  H   H29       1.0  0.42024  0.74623  0.31118  1.0000
  H   H30       1.0  0.45135  0.80853  0.30847  1.0000
  H   H31       1.0  0.42005  0.67309  0.36876  1.0000
  H   H32       1.0  0.45092  0.64158  0.36578  1.0000
  C   C49       1.0  0.35118  0.64848  0.34064  1.0000
  N   N5        1.0  0.36828  0.68402  0.34057  1.0000
  C   C50       1.0  0.35139  0.70267  0.34071  1.0000
  C   C51       1.0  0.29719  0.64869  0.34067  1.0000
  N   N6        1.0  0.31563  0.63158  0.34053  1.0000
  H   H33       1.0  0.25295  0.57981  0.36874  1.0000
  N   N7        1.0  0.42539  0.57601  0.33515  1.0000
  N   N8        1.0  0.15051  0.57446  0.33520  1.0000
  C   C52       1.0  0.73994  0.36955  0.33465  1.0000
  C   C53       1.0  0.63033  0.37037  0.33470  1.0000
  C   C54       1.0  0.75937  0.40623  0.32130  1.0000
  C   C55       1.0  0.79616  0.42435  0.32018  1.0000
  C   C56       1.0  0.81474  0.40651  0.33423  1.0000
  C   C57       1.0  0.57412  0.20417  0.34694  1.0000
  C   C58       1.0  0.59276  0.24095  0.34710  1.0000
  C   C59       1.0  0.59364  0.35312  0.32137  1.0000
  C   C60       1.0  0.57552  0.37179  0.32026  1.0000
  C   C61       1.0  0.59335  0.40820  0.33441  1.0000
  C   C62       1.0  0.62995  0.42575  0.34706  1.0000
  C   C63       1.0  0.64809  0.40711  0.34719  1.0000
  H   H34       1.0  0.80932  0.45080  0.30956  1.0000
  H   H35       1.0  0.57898  0.25366  0.35664  1.0000
  H   H36       1.0  0.54756  0.19143  0.35482  1.0000
  H   H37       1.0  0.57961  0.32670  0.31094  1.0000
  H   H38       1.0  0.54907  0.35850  0.30965  1.0000
  C   C64       1.0  0.64875  0.35152  0.33480  1.0000
  N   N9        1.0  0.63157  0.31597  0.33478  1.0000
  C   C65       1.0  0.64835  0.29721  0.33477  1.0000
  C   C66       1.0  0.70266  0.35112  0.33478  1.0000
  N   N10       1.0  0.68429  0.36830  0.33479  1.0000
  H   H39       1.0  0.74698  0.42027  0.31094  1.0000
  N   N11       1.0  0.57498  0.42449  0.33031  1.0000
  N   N12       1.0  0.84941  0.42489  0.33018  1.0000
  C   C67       1.0  0.47276  0.51340  0.38939  1.0000
  C   C68       1.0  0.45086  0.52801  0.37899  1.0000
  H   H40       1.0  0.43866  0.53090  0.43372  1.0000
  C   C69       1.0  0.55644  0.46471  0.35576  1.0000
  C   C70       1.0  0.54736  0.47972  0.42658  1.0000
  C   C71       1.0  0.52482  0.49341  0.41307  1.0000
  H   H41       1.0  0.55711  0.48055  0.48910  1.0000
  C   C72       1.0  0.51559  0.50879  0.48949  1.0000
  C   C73       1.0  0.47802  0.50263  0.47946  1.0000
  H   H42       1.0  0.53420  0.53688  0.49152  1.0000
  H   H43       1.0  0.51731  0.49752  0.55292  1.0000
  H   H44       1.0  0.47348  0.51701  0.53219  1.0000
  H   H45       1.0  0.45919  0.47482  0.48824  1.0000
  C   C74       1.0  0.57908  0.45204  0.37038  1.0000
  H   H46       1.0  0.59822  0.46405  0.41476  1.0000
  C   C75       1.0  0.48648  0.95933  0.38938  1.0000
  C   C76       1.0  0.47185  0.92283  0.37902  1.0000
  H   H47       1.0  0.46895  0.90774  0.43376  1.0000
  C   C77       1.0  0.53517  0.09170  0.35563  1.0000
  C   C78       1.0  0.52016  0.06763  0.42647  1.0000
  C   C79       1.0  0.50648  0.03139  0.41300  1.0000
  H   H48       1.0  0.51933  0.07656  0.48898  1.0000
  C   C80       1.0  0.49111  0.00680  0.48944  1.0000
  C   C81       1.0  0.49726  0.97538  0.47943  1.0000
  H   H49       1.0  0.46302  0.99731  0.49148  1.0000
  H   H50       1.0  0.50239  0.01980  0.55285  1.0000
  H   H51       1.0  0.48289  0.95647  0.53218  1.0000
  H   H52       1.0  0.52508  0.98436  0.48820  1.0000
  C   C82       1.0  0.54783  0.12702  0.37020  1.0000
  H   H53       1.0  0.53582  0.13415  0.41458  1.0000
  C   C83       1.0  0.04053  0.52711  0.38937  1.0000
  C   C84       1.0  0.07704  0.54900  0.37899  1.0000
  H   H54       1.0  0.09213  0.56121  0.43373  1.0000
  C   C85       1.0  0.90817  0.44343  0.35567  1.0000
  C   C86       1.0  0.93224  0.45251  0.42652  1.0000
  C   C87       1.0  0.96848  0.47506  0.41302  1.0000
  H   H55       1.0  0.92331  0.44276  0.48903  1.0000
  C   C88       1.0  0.99308  0.48429  0.48946  1.0000
  C   C89       1.0  0.02449  0.52185  0.47943  1.0000
  H   H56       1.0  0.00256  0.46568  0.49150  1.0000
  H   H57       1.0  0.98008  0.48257  0.55288  1.0000
  H   H58       1.0  0.04341  0.52639  0.53217  1.0000
  H   H59       1.0  0.01551  0.54069  0.48820  1.0000
  C   C90       1.0  0.87285  0.42079  0.37026  1.0000
  H   H60       1.0  0.86572  0.40164  0.41464  1.0000
