data_image0
_chemical_formula_structural       C4HC4H3C2H2CH3C2H2CH3CH2CH3CNCNCNCNCNCNC4NC2NCH2C2H2C4NC2NCH2C2H3C3NCNCH2CH2C2H2CH3C2H2CH3CH2CH3CNCNCNCNCNCNC4NC2NCH2C2H2C4NC2NCH2C2H3C3NCNCH2CH2C2H2CH3C2H2CH3C2H2CH3CNCNCNCNCNCNC4NC2NCH2C2H3C4NC2NCH2C2H3C4NC2NCH2C2H3C2H2CH3C2H2CH3C2H2CH3CNCNCNCNCNCNC4NC2NCH2C2H3C4NC2NCH2C2H3C4NC2NCH2C2H3
_chemical_formula_sum              "C168 H120 N48"
_cell_length_a       29.5003
_cell_length_b       29.5003
_cell_length_c       14.9601
_cell_angle_alpha    90
_cell_angle_beta     90
_cell_angle_gamma    120

_space_group_name_H-M_alt    "P 1"
_space_group_IT_number       1

loop_
  _space_group_symop_operation_xyz
  'x, y, z'

loop_
  _atom_site_type_symbol
  _atom_site_label
  _atom_site_symmetry_multiplicity
  _atom_site_fract_x
  _atom_site_fract_y
  _atom_site_fract_z
  _atom_site_occupancy
  C   C1        1.0  0.02960  0.22723  0.38589  1.0000
  C   C2        1.0  0.02987  0.30378  0.44381  1.0000
  C   C3        1.0  0.02966  0.37189  0.53240  1.0000
  C   C4        1.0  0.02878  0.43587  0.64680  1.0000
  H   H1        1.0  0.02332  0.46404  0.60760  1.0000
  C   C5        1.0  0.02960  0.72723  0.38589  1.0000
  C   C6        1.0  0.02988  0.80378  0.44381  1.0000
  C   C7        1.0  0.02966  0.87189  0.53240  1.0000
  C   C8        1.0  0.02878  0.93587  0.64680  1.0000
  H   H2        1.0  0.02332  0.96404  0.60760  1.0000
  H   H3        1.0  0.03929  0.05994  0.60758  1.0000
  H   H4        1.0  0.03929  0.55995  0.60758  1.0000
  C   C9        1.0  0.30373  0.27548  0.38595  1.0000
  C   C10       1.0  0.27610  0.30304  0.38588  1.0000
  H   H5        1.0  0.29531  0.34091  0.36358  1.0000
  H   H6        1.0  0.34159  0.29469  0.36358  1.0000
  C   C11       1.0  0.11359  0.08534  0.00681  1.0000
  H   H7        1.0  0.14047  0.11726  0.05056  1.0000
  H   H8        1.0  0.09895  0.04885  0.04390  1.0000
  H   H9        1.0  0.04781  0.09545  0.04070  1.0000
  C   C12       1.0  0.22786  0.02893  0.38597  1.0000
  C   C13       1.0  0.20030  0.47374  0.38588  1.0000
  H   H10       1.0  0.16243  0.45508  0.36360  1.0000
  H   H11       1.0  0.20865  0.04757  0.36361  1.0000
  C   C14       1.0  0.41799  0.02890  0.00679  1.0000
  H   H12       1.0  0.38607  0.02387  0.05054  1.0000
  H   H13       1.0  0.45448  0.05075  0.04390  1.0000
  H   H14       1.0  0.40789  0.45302  0.04067  1.0000
  C   C15       1.0  0.47441  0.19961  0.38596  1.0000
  H   H15       1.0  0.04826  0.20802  0.36361  1.0000
  H   H16       1.0  0.45577  0.16175  0.36360  1.0000
  C   C16       1.0  0.47442  0.38974  0.00681  1.0000
  H   H17       1.0  0.47945  0.36285  0.05056  1.0000
  H   H18       1.0  0.45257  0.40438  0.04392  1.0000
  H   H19       1.0  0.05030  0.45551  0.04072  1.0000
  C   C17       1.0  0.19624  0.38889  0.40873  1.0000
  N   N1        1.0  0.14298  0.36131  0.40848  1.0000
  C   C18       1.0  0.11445  0.30802  0.40875  1.0000
  N   N2        1.0  0.14203  0.28234  0.40849  1.0000
  C   C19       1.0  0.19532  0.30710  0.40874  1.0000
  N   N3        1.0  0.22100  0.36036  0.40847  1.0000
  C   C20       1.0  0.30865  0.11378  0.40880  1.0000
  N   N4        1.0  0.36195  0.14229  0.40853  1.0000
  C   C21       1.0  0.38955  0.19554  0.40879  1.0000
  N   N5        1.0  0.36105  0.22033  0.40852  1.0000
  C   C22       1.0  0.30779  0.19468  0.40879  1.0000
  N   N6        1.0  0.28300  0.14139  0.40854  1.0000
  C   C23       1.0  0.22273  0.27890  0.41125  1.0000
  C   C24       1.0  0.19956  0.22677  0.44382  1.0000
  C   C25       1.0  0.22751  0.19895  0.44400  1.0000
  C   C26       1.0  0.27962  0.22212  0.41136  1.0000
  N   N7        1.0  0.20573  0.15275  0.48916  1.0000
  C   C27       1.0  0.15921  0.13088  0.53248  1.0000
  C   C28       1.0  0.13145  0.15844  0.53240  1.0000
  N   N8        1.0  0.15336  0.20495  0.48899  1.0000
  C   C29       1.0  0.14307  0.08396  0.58867  1.0000
  H   H20       1.0  0.17724  0.08124  0.60902  1.0000
  H   H21       1.0  0.11771  0.04934  0.54889  1.0000
  C   C30       1.0  0.06746  0.09358  0.64679  1.0000
  C   C31       1.0  0.08582  0.14437  0.59121  1.0000
  H   H22       1.0  0.09672  0.17684  0.63767  1.0000
  H   H23       1.0  0.05329  0.14046  0.55055  1.0000
  C   C32       1.0  0.22444  0.44451  0.41122  1.0000
  C   C33       1.0  0.27657  0.47346  0.44380  1.0000
  C   C34       1.0  0.30439  0.02923  0.44400  1.0000
  C   C35       1.0  0.28122  0.05817  0.41138  1.0000
  N   N9        1.0  0.35059  0.05365  0.48915  1.0000
  C   C36       1.0  0.37246  0.02899  0.53246  1.0000
  C   C37       1.0  0.34490  0.47367  0.53238  1.0000
  N   N10       1.0  0.29839  0.44908  0.48896  1.0000
  C   C38       1.0  0.41938  0.05978  0.58867  1.0000
  H   H24       1.0  0.42210  0.09666  0.60902  1.0000
  H   H25       1.0  0.45400  0.06903  0.54888  1.0000
  C   C39       1.0  0.40976  0.47454  0.64676  1.0000
  C   C40       1.0  0.35897  0.44211  0.59117  1.0000
  H   H26       1.0  0.44339  0.48001  0.60756  1.0000
  H   H27       1.0  0.32650  0.42053  0.63762  1.0000
  H   H28       1.0  0.36288  0.41350  0.55050  1.0000
  C   C41       1.0  0.05883  0.28060  0.41125  1.0000
  C   C42       1.0  0.47411  0.27583  0.44399  1.0000
  C   C43       1.0  0.44516  0.22373  0.41133  1.0000
  N   N11       1.0  0.44968  0.29761  0.48914  1.0000
  C   C44       1.0  0.47434  0.34413  0.53248  1.0000
  N   N12       1.0  0.05426  0.34998  0.48898  1.0000
  C   C45       1.0  0.44355  0.36027  0.58868  1.0000
  H   H29       1.0  0.40667  0.32610  0.60902  1.0000
  H   H30       1.0  0.43430  0.38563  0.54890  1.0000
  C   C46       1.0  0.06122  0.41752  0.59121  1.0000
  H   H31       1.0  0.08279  0.40661  0.63767  1.0000
  H   H32       1.0  0.08984  0.45005  0.55056  1.0000
  C   C47       1.0  0.30373  0.77548  0.38595  1.0000
  C   C48       1.0  0.27610  0.80304  0.38588  1.0000
  H   H33       1.0  0.29531  0.84091  0.36358  1.0000
  H   H34       1.0  0.34159  0.79469  0.36358  1.0000
  C   C49       1.0  0.11359  0.58534  0.00681  1.0000
  H   H35       1.0  0.14047  0.61726  0.05056  1.0000
  H   H36       1.0  0.09895  0.54885  0.04390  1.0000
  H   H37       1.0  0.04781  0.59544  0.04070  1.0000
  C   C50       1.0  0.22786  0.52893  0.38597  1.0000
  C   C51       1.0  0.20030  0.97374  0.38588  1.0000
  H   H38       1.0  0.16243  0.95508  0.36360  1.0000
  H   H39       1.0  0.20865  0.54757  0.36361  1.0000
  C   C52       1.0  0.41799  0.52890  0.00679  1.0000
  H   H40       1.0  0.38607  0.52387  0.05054  1.0000
  H   H41       1.0  0.45448  0.55075  0.04390  1.0000
  H   H42       1.0  0.40789  0.95302  0.04067  1.0000
  C   C53       1.0  0.47441  0.69961  0.38596  1.0000
  H   H43       1.0  0.04826  0.70802  0.36361  1.0000
  H   H44       1.0  0.45577  0.66175  0.36360  1.0000
  C   C54       1.0  0.47442  0.88974  0.00681  1.0000
  H   H45       1.0  0.47945  0.86285  0.05056  1.0000
  H   H46       1.0  0.45257  0.90438  0.04392  1.0000
  H   H47       1.0  0.05030  0.95551  0.04072  1.0000
  C   C55       1.0  0.19624  0.88889  0.40873  1.0000
  N   N13       1.0  0.14298  0.86131  0.40848  1.0000
  C   C56       1.0  0.11444  0.80802  0.40875  1.0000
  N   N14       1.0  0.14203  0.78234  0.40849  1.0000
  C   C57       1.0  0.19532  0.80710  0.40874  1.0000
  N   N15       1.0  0.22100  0.86036  0.40847  1.0000
  C   C58       1.0  0.30865  0.61378  0.40880  1.0000
  N   N16       1.0  0.36195  0.64229  0.40853  1.0000
  C   C59       1.0  0.38955  0.69555  0.40879  1.0000
  N   N17       1.0  0.36105  0.72033  0.40852  1.0000
  C   C60       1.0  0.30779  0.69468  0.40879  1.0000
  N   N18       1.0  0.28300  0.64139  0.40854  1.0000
  C   C61       1.0  0.22273  0.77890  0.41125  1.0000
  C   C62       1.0  0.19956  0.72677  0.44382  1.0000
  C   C63       1.0  0.22751  0.69895  0.44400  1.0000
  C   C64       1.0  0.27962  0.72212  0.41136  1.0000
  N   N19       1.0  0.20573  0.65275  0.48916  1.0000
  C   C65       1.0  0.15921  0.63088  0.53248  1.0000
  C   C66       1.0  0.13145  0.65844  0.53240  1.0000
  N   N20       1.0  0.15336  0.70495  0.48899  1.0000
  C   C67       1.0  0.14307  0.58396  0.58867  1.0000
  H   H48       1.0  0.17724  0.58124  0.60902  1.0000
  H   H49       1.0  0.11771  0.54934  0.54889  1.0000
  C   C68       1.0  0.06746  0.59358  0.64679  1.0000
  C   C69       1.0  0.08582  0.64437  0.59121  1.0000
  H   H50       1.0  0.09672  0.67684  0.63767  1.0000
  H   H51       1.0  0.05329  0.64046  0.55055  1.0000
  C   C70       1.0  0.22444  0.94450  0.41122  1.0000
  C   C71       1.0  0.27657  0.97346  0.44380  1.0000
  C   C72       1.0  0.30439  0.52923  0.44400  1.0000
  C   C73       1.0  0.28122  0.55817  0.41138  1.0000
  N   N21       1.0  0.35059  0.55365  0.48915  1.0000
  C   C74       1.0  0.37246  0.52899  0.53246  1.0000
  C   C75       1.0  0.34490  0.97367  0.53238  1.0000
  N   N22       1.0  0.29839  0.94908  0.48896  1.0000
  C   C76       1.0  0.41938  0.55977  0.58867  1.0000
  H   H52       1.0  0.42210  0.59666  0.60902  1.0000
  H   H53       1.0  0.45400  0.56903  0.54888  1.0000
  C   C77       1.0  0.40975  0.97454  0.64676  1.0000
  C   C78       1.0  0.35897  0.94211  0.59117  1.0000
  H   H54       1.0  0.44339  0.98001  0.60756  1.0000
  H   H55       1.0  0.32650  0.92053  0.63762  1.0000
  H   H56       1.0  0.36288  0.91350  0.55050  1.0000
  C   C79       1.0  0.05883  0.78060  0.41125  1.0000
  C   C80       1.0  0.47410  0.77583  0.44399  1.0000
  C   C81       1.0  0.44516  0.72372  0.41133  1.0000
  N   N23       1.0  0.44968  0.79761  0.48914  1.0000
  C   C82       1.0  0.47434  0.84413  0.53248  1.0000
  N   N24       1.0  0.05426  0.84998  0.48898  1.0000
  C   C83       1.0  0.44355  0.86027  0.58868  1.0000
  H   H57       1.0  0.40667  0.82610  0.60902  1.0000
  H   H58       1.0  0.43430  0.88563  0.54890  1.0000
  C   C84       1.0  0.06121  0.91752  0.59121  1.0000
  H   H59       1.0  0.08279  0.90661  0.63767  1.0000
  H   H60       1.0  0.08983  0.95004  0.55056  1.0000
  C   C85       1.0  0.80373  0.27548  0.38595  1.0000
  C   C86       1.0  0.77611  0.30304  0.38588  1.0000
  H   H61       1.0  0.79531  0.34091  0.36358  1.0000
  H   H62       1.0  0.84158  0.29469  0.36358  1.0000
  C   C87       1.0  0.61359  0.08534  0.00681  1.0000
  H   H63       1.0  0.64047  0.11726  0.05056  1.0000
  H   H64       1.0  0.59895  0.04885  0.04390  1.0000
  H   H65       1.0  0.54781  0.09545  0.04070  1.0000
  C   C88       1.0  0.72786  0.02893  0.38597  1.0000
  C   C89       1.0  0.70030  0.47374  0.38588  1.0000
  H   H66       1.0  0.66243  0.45508  0.36360  1.0000
  H   H67       1.0  0.70865  0.04757  0.36361  1.0000
  C   C90       1.0  0.91800  0.02890  0.00679  1.0000
  H   H68       1.0  0.88607  0.02387  0.05054  1.0000
  H   H69       1.0  0.95448  0.05075  0.04390  1.0000
  H   H70       1.0  0.90789  0.45302  0.04067  1.0000
  C   C91       1.0  0.97441  0.19961  0.38596  1.0000
  C   C92       1.0  0.52960  0.22723  0.38589  1.0000
  H   H71       1.0  0.54826  0.20802  0.36361  1.0000
  H   H72       1.0  0.95576  0.16175  0.36360  1.0000
  C   C93       1.0  0.97442  0.38974  0.00681  1.0000
  H   H73       1.0  0.97945  0.36285  0.05056  1.0000
  H   H74       1.0  0.95257  0.40438  0.04392  1.0000
  H   H75       1.0  0.55030  0.45551  0.04072  1.0000
  C   C94       1.0  0.69624  0.38889  0.40873  1.0000
  N   N25       1.0  0.64298  0.36131  0.40848  1.0000
  C   C95       1.0  0.61445  0.30802  0.40875  1.0000
  N   N26       1.0  0.64203  0.28234  0.40849  1.0000
  C   C96       1.0  0.69532  0.30710  0.40874  1.0000
  N   N27       1.0  0.72100  0.36036  0.40847  1.0000
  C   C97       1.0  0.80865  0.11378  0.40880  1.0000
  N   N28       1.0  0.86195  0.14229  0.40853  1.0000
  C   C98       1.0  0.88955  0.19554  0.40879  1.0000
  N   N29       1.0  0.86105  0.22033  0.40852  1.0000
  C   C99       1.0  0.80779  0.19468  0.40879  1.0000
  N   N30       1.0  0.78301  0.14139  0.40854  1.0000
  C   C100      1.0  0.72273  0.27890  0.41125  1.0000
  C   C101      1.0  0.69956  0.22677  0.44382  1.0000
  C   C102      1.0  0.72751  0.19895  0.44400  1.0000
  C   C103      1.0  0.77962  0.22212  0.41136  1.0000
  N   N31       1.0  0.70573  0.15275  0.48916  1.0000
  C   C104      1.0  0.65921  0.13088  0.53248  1.0000
  C   C105      1.0  0.63145  0.15844  0.53240  1.0000
  N   N32       1.0  0.65336  0.20495  0.48899  1.0000
  C   C106      1.0  0.64307  0.08396  0.58867  1.0000
  H   H76       1.0  0.67723  0.08124  0.60902  1.0000
  H   H77       1.0  0.61771  0.04934  0.54889  1.0000
  C   C107      1.0  0.56746  0.09358  0.64679  1.0000
  C   C108      1.0  0.58582  0.14437  0.59121  1.0000
  H   H78       1.0  0.53929  0.05994  0.60758  1.0000
  H   H79       1.0  0.59672  0.17684  0.63767  1.0000
  H   H80       1.0  0.55329  0.14046  0.55055  1.0000
  C   C109      1.0  0.72444  0.44451  0.41122  1.0000
  C   C110      1.0  0.77657  0.47346  0.44380  1.0000
  C   C111      1.0  0.80439  0.02923  0.44400  1.0000
  C   C112      1.0  0.78122  0.05817  0.41138  1.0000
  N   N33       1.0  0.85059  0.05365  0.48915  1.0000
  C   C113      1.0  0.87246  0.02899  0.53246  1.0000
  C   C114      1.0  0.84490  0.47367  0.53238  1.0000
  N   N34       1.0  0.79839  0.44908  0.48896  1.0000
  C   C115      1.0  0.91938  0.05978  0.58867  1.0000
  H   H81       1.0  0.92210  0.09666  0.60902  1.0000
  H   H82       1.0  0.95400  0.06903  0.54888  1.0000
  C   C116      1.0  0.90975  0.47454  0.64676  1.0000
  C   C117      1.0  0.85897  0.44211  0.59117  1.0000
  H   H83       1.0  0.94339  0.48001  0.60756  1.0000
  H   H84       1.0  0.82650  0.42053  0.63762  1.0000
  H   H85       1.0  0.86288  0.41350  0.55050  1.0000
  C   C118      1.0  0.55883  0.28060  0.41125  1.0000
  C   C119      1.0  0.52988  0.30378  0.44381  1.0000
  C   C120      1.0  0.97411  0.27583  0.44399  1.0000
  C   C121      1.0  0.94516  0.22373  0.41133  1.0000
  N   N35       1.0  0.94968  0.29761  0.48914  1.0000
  C   C122      1.0  0.97434  0.34413  0.53248  1.0000
  C   C123      1.0  0.52966  0.37189  0.53240  1.0000
  N   N36       1.0  0.55426  0.34998  0.48898  1.0000
  C   C124      1.0  0.94355  0.36027  0.58868  1.0000
  H   H86       1.0  0.90667  0.32610  0.60902  1.0000
  H   H87       1.0  0.93430  0.38563  0.54890  1.0000
  C   C125      1.0  0.52878  0.43587  0.64680  1.0000
  C   C126      1.0  0.56122  0.41752  0.59121  1.0000
  H   H88       1.0  0.52332  0.46404  0.60760  1.0000
  H   H89       1.0  0.58279  0.40661  0.63767  1.0000
  H   H90       1.0  0.58984  0.45005  0.55056  1.0000
  C   C127      1.0  0.80373  0.77548  0.38595  1.0000
  C   C128      1.0  0.77610  0.80304  0.38588  1.0000
  H   H91       1.0  0.79531  0.84091  0.36358  1.0000
  H   H92       1.0  0.84159  0.79469  0.36358  1.0000
  C   C129      1.0  0.61358  0.58534  0.00681  1.0000
  H   H93       1.0  0.64047  0.61726  0.05056  1.0000
  H   H94       1.0  0.59895  0.54885  0.04390  1.0000
  H   H95       1.0  0.54781  0.59544  0.04070  1.0000
  C   C130      1.0  0.72786  0.52893  0.38597  1.0000
  C   C131      1.0  0.70030  0.97374  0.38588  1.0000
  H   H96       1.0  0.66242  0.95508  0.36360  1.0000
  H   H97       1.0  0.70865  0.54757  0.36361  1.0000
  C   C132      1.0  0.91799  0.52890  0.00679  1.0000
  H   H98       1.0  0.88607  0.52387  0.05054  1.0000
  H   H99       1.0  0.95448  0.55075  0.04390  1.0000
  H   H100      1.0  0.90789  0.95302  0.04067  1.0000
  C   C133      1.0  0.97441  0.69961  0.38596  1.0000
  C   C134      1.0  0.52960  0.72723  0.38589  1.0000
  H   H101      1.0  0.54826  0.70802  0.36361  1.0000
  H   H102      1.0  0.95577  0.66175  0.36360  1.0000
  C   C135      1.0  0.97442  0.88974  0.00681  1.0000
  H   H103      1.0  0.97945  0.86285  0.05056  1.0000
  H   H104      1.0  0.95257  0.90438  0.04392  1.0000
  H   H105      1.0  0.55030  0.95551  0.04072  1.0000
  C   C136      1.0  0.69624  0.88889  0.40873  1.0000
  N   N37       1.0  0.64298  0.86131  0.40848  1.0000
  C   C137      1.0  0.61444  0.80802  0.40875  1.0000
  N   N38       1.0  0.64202  0.78234  0.40849  1.0000
  C   C138      1.0  0.69532  0.80710  0.40874  1.0000
  N   N39       1.0  0.72100  0.86036  0.40847  1.0000
  C   C139      1.0  0.80865  0.61378  0.40880  1.0000
  N   N40       1.0  0.86195  0.64229  0.40853  1.0000
  C   C140      1.0  0.88955  0.69555  0.40879  1.0000
  N   N41       1.0  0.86105  0.72033  0.40852  1.0000
  C   C141      1.0  0.80779  0.69468  0.40879  1.0000
  N   N42       1.0  0.78300  0.64139  0.40854  1.0000
  C   C142      1.0  0.72273  0.77890  0.41125  1.0000
  C   C143      1.0  0.69956  0.72677  0.44382  1.0000
  C   C144      1.0  0.72751  0.69895  0.44400  1.0000
  C   C145      1.0  0.77962  0.72212  0.41136  1.0000
  N   N43       1.0  0.70573  0.65275  0.48916  1.0000
  C   C146      1.0  0.65921  0.63088  0.53248  1.0000
  C   C147      1.0  0.63144  0.65844  0.53240  1.0000
  N   N44       1.0  0.65336  0.70495  0.48899  1.0000
  C   C148      1.0  0.64306  0.58396  0.58867  1.0000
  H   H106      1.0  0.67724  0.58124  0.60902  1.0000
  H   H107      1.0  0.61771  0.54934  0.54889  1.0000
  C   C149      1.0  0.56746  0.59358  0.64679  1.0000
  C   C150      1.0  0.58582  0.64437  0.59121  1.0000
  H   H108      1.0  0.53929  0.55995  0.60758  1.0000
  H   H109      1.0  0.59672  0.67684  0.63767  1.0000
  H   H110      1.0  0.55329  0.64046  0.55055  1.0000
  C   C151      1.0  0.72444  0.94450  0.41122  1.0000
  C   C152      1.0  0.77657  0.97346  0.44380  1.0000
  C   C153      1.0  0.80439  0.52923  0.44400  1.0000
  C   C154      1.0  0.78122  0.55817  0.41138  1.0000
  N   N45       1.0  0.85059  0.55365  0.48915  1.0000
  C   C155      1.0  0.87245  0.52899  0.53246  1.0000
  C   C156      1.0  0.84490  0.97367  0.53238  1.0000
  N   N46       1.0  0.79839  0.94908  0.48896  1.0000
  C   C157      1.0  0.91938  0.55977  0.58867  1.0000
  H   H111      1.0  0.92210  0.59666  0.60902  1.0000
  H   H112      1.0  0.95400  0.56903  0.54888  1.0000
  C   C158      1.0  0.90975  0.97454  0.64676  1.0000
  C   C159      1.0  0.85897  0.94211  0.59117  1.0000
  H   H113      1.0  0.94340  0.98001  0.60756  1.0000
  H   H114      1.0  0.82650  0.92053  0.63762  1.0000
  H   H115      1.0  0.86288  0.91350  0.55050  1.0000
  C   C160      1.0  0.55883  0.78060  0.41125  1.0000
  C   C161      1.0  0.52987  0.80378  0.44381  1.0000
  C   C162      1.0  0.97410  0.77583  0.44399  1.0000
  C   C163      1.0  0.94516  0.72372  0.41133  1.0000
  N   N47       1.0  0.94968  0.79761  0.48914  1.0000
  C   C164      1.0  0.97434  0.84413  0.53248  1.0000
  C   C165      1.0  0.52966  0.87189  0.53240  1.0000
  N   N48       1.0  0.55426  0.84998  0.48898  1.0000
  C   C166      1.0  0.94355  0.86027  0.58868  1.0000
  H   H116      1.0  0.90667  0.82610  0.60902  1.0000
  H   H117      1.0  0.93429  0.88563  0.54890  1.0000
  C   C167      1.0  0.52878  0.93587  0.64680  1.0000
  C   C168      1.0  0.56122  0.91752  0.59121  1.0000
  H   H118      1.0  0.52332  0.96404  0.60760  1.0000
  H   H119      1.0  0.58279  0.90661  0.63767  1.0000
  H   H120      1.0  0.58983  0.95004  0.55056  1.0000
