data_image0
_chemical_formula_structural       C2HC3HC2H4NC2HC3HC2H4NC2HC3HC2H4NCNCNCNC3H3CNCNCNC3H3C7H3NO2NC7H3NO2NC7H3NO2N
_chemical_formula_sum              "C54 H33 N15 O6"
_cell_length_a       29.2411
_cell_length_b       29.2412
_cell_length_c       14.9941
_cell_angle_alpha    90
_cell_angle_beta     90
_cell_angle_gamma    120

_space_group_name_H-M_alt    "P 1"
_space_group_IT_number       1

loop_
  _space_group_symop_operation_xyz
  'x, y, z'

loop_
  _atom_site_type_symbol
  _atom_site_label
  _atom_site_symmetry_multiplicity
  _atom_site_fract_x
  _atom_site_fract_y
  _atom_site_fract_z
  _atom_site_occupancy
  C   C1        1.0  0.46278  0.51963  0.28140  1.0000
  C   C2        1.0  0.43354  0.54612  0.28126  1.0000
  H   H1        1.0  0.42162  0.55434  0.22215  1.0000
  C   C3        1.0  0.57241  0.43162  0.34298  1.0000
  C   C4        1.0  0.53546  0.42488  0.27631  1.0000
  C   C5        1.0  0.50514  0.45016  0.28310  1.0000
  H   H2        1.0  0.53168  0.40253  0.22131  1.0000
  C   C6        1.0  0.47009  0.44691  0.20838  1.0000
  C   C7        1.0  0.47359  0.50119  0.19535  1.0000
  H   H3        1.0  0.42947  0.41702  0.22462  1.0000
  H   H4        1.0  0.48078  0.43543  0.14579  1.0000
  H   H5        1.0  0.44557  0.49724  0.14342  1.0000
  H   H6        1.0  0.51322  0.53026  0.17272  1.0000
  N   N1        1.0  0.60314  0.41033  0.33791  1.0000
  C   C8        1.0  0.48085  0.94326  0.28140  1.0000
  C   C9        1.0  0.45432  0.88755  0.28124  1.0000
  H   H7        1.0  0.44610  0.86740  0.22213  1.0000
  C   C10       1.0  0.56892  0.14090  0.34308  1.0000
  C   C11       1.0  0.57563  0.11070  0.27636  1.0000
  C   C12       1.0  0.55039  0.05510  0.28315  1.0000
  H   H8        1.0  0.59799  0.12929  0.22138  1.0000
  C   C13       1.0  0.55360  0.02330  0.20840  1.0000
  C   C14       1.0  0.49932  0.97253  0.19537  1.0000
  H   H9        1.0  0.58349  0.01256  0.22462  1.0000
  H   H10       1.0  0.56508  0.04548  0.14582  1.0000
  H   H11       1.0  0.50327  0.94845  0.14344  1.0000
  H   H12       1.0  0.47026  0.98311  0.17272  1.0000
  N   N2        1.0  0.59017  0.19292  0.33804  1.0000
  C   C15       1.0  0.05724  0.53771  0.28139  1.0000
  C   C16       1.0  0.11296  0.56694  0.28124  1.0000
  H   H13       1.0  0.13310  0.57886  0.22214  1.0000
  C   C17       1.0  0.85960  0.42808  0.34300  1.0000
  C   C18       1.0  0.88981  0.46503  0.27633  1.0000
  C   C19       1.0  0.94541  0.49535  0.28311  1.0000
  H   H14       1.0  0.87123  0.46881  0.22133  1.0000
  C   C20       1.0  0.97721  0.53040  0.20838  1.0000
  C   C21       1.0  0.02798  0.52690  0.19535  1.0000
  H   H15       1.0  0.98793  0.57101  0.22463  1.0000
  H   H16       1.0  0.95504  0.51971  0.14580  1.0000
  H   H17       1.0  0.05205  0.55491  0.14342  1.0000
  H   H18       1.0  0.01741  0.48726  0.17272  1.0000
  N   N3        1.0  0.80758  0.39736  0.33795  1.0000
  C   C22       1.0  0.35235  0.72012  0.34083  1.0000
  N   N4        1.0  0.29959  0.68536  0.34045  1.0000
  C   C23       1.0  0.28036  0.63232  0.34091  1.0000
  N   N5        1.0  0.31511  0.61432  0.34053  1.0000
  C   C24       1.0  0.36815  0.64813  0.34091  1.0000
  N   N6        1.0  0.38616  0.70090  0.34046  1.0000
  C   C25       1.0  0.40347  0.63008  0.33837  1.0000
  C   C26       1.0  0.37039  0.77348  0.33821  1.0000
  C   C27       1.0  0.22699  0.59701  0.33836  1.0000
  H   H19       1.0  0.21460  0.56011  0.31852  1.0000
  H   H20       1.0  0.34591  0.78587  0.31817  1.0000
  H   H21       1.0  0.44037  0.65458  0.31851  1.0000
  C   C28       1.0  0.65152  0.28096  0.31420  1.0000
  N   N7        1.0  0.70355  0.31827  0.31404  1.0000
  C   C29       1.0  0.71953  0.37066  0.31411  1.0000
  N   N8        1.0  0.68223  0.38539  0.31395  1.0000
  C   C30       1.0  0.62983  0.34898  0.31410  1.0000
  N   N9        1.0  0.61510  0.29694  0.31403  1.0000
  C   C31       1.0  0.59189  0.36368  0.31374  1.0000
  C   C32       1.0  0.63683  0.22832  0.31394  1.0000
  C   C33       1.0  0.77218  0.40860  0.31376  1.0000
  H   H22       1.0  0.78245  0.44551  0.29742  1.0000
  H   H23       1.0  0.66348  0.21806  0.29761  1.0000
  H   H24       1.0  0.55498  0.33703  0.29745  1.0000
  C   C34       1.0  0.41933  0.56034  0.36180  1.0000
  C   C35       1.0  0.43221  0.54543  0.44285  1.0000
  C   C36       1.0  0.46206  0.51939  0.44498  1.0000
  C   C37       1.0  0.47982  0.50825  0.36350  1.0000
  C   C38       1.0  0.51018  0.48168  0.35911  1.0000
  C   C39       1.0  0.54997  0.49073  0.42215  1.0000
  C   C40       1.0  0.58048  0.46605  0.41439  1.0000
  H   H25       1.0  0.55904  0.51728  0.47271  1.0000
  H   H26       1.0  0.60891  0.47363  0.46120  1.0000
  H   H27       1.0  0.41917  0.55301  0.50137  1.0000
  N   N10       1.0  0.47015  0.50102  0.52767  1.0000
  O   O1        1.0  0.49476  0.53809  0.58221  1.0000
  O   O2        1.0  0.42733  0.46733  0.56266  1.0000
  N   N11       1.0  0.38955  0.58265  0.36210  1.0000
  C   C41       1.0  0.44008  0.85909  0.36177  1.0000
  C   C42       1.0  0.45504  0.88687  0.44283  1.0000
  C   C43       1.0  0.48112  0.94276  0.44500  1.0000
  C   C44       1.0  0.49230  0.97168  0.36352  1.0000
  C   C45       1.0  0.51887  0.02861  0.35915  1.0000
  C   C46       1.0  0.50985  0.05933  0.42229  1.0000
  C   C47       1.0  0.53449  0.11452  0.41450  1.0000
  H   H28       1.0  0.48325  0.04184  0.47275  1.0000
  H   H29       1.0  0.52688  0.13535  0.46131  1.0000
  H   H30       1.0  0.44747  0.86624  0.50134  1.0000
  N   N12       1.0  0.49952  0.96919  0.52770  1.0000
  O   O3        1.0  0.46246  0.95675  0.58226  1.0000
  O   O4        1.0  0.53318  0.96000  0.56265  1.0000
  N   N13       1.0  0.41778  0.80701  0.36210  1.0000
  C   C48       1.0  0.14140  0.58116  0.36179  1.0000
  C   C49       1.0  0.11361  0.56828  0.44284  1.0000
  C   C50       1.0  0.05772  0.53843  0.44498  1.0000
  C   C51       1.0  0.02881  0.52066  0.36350  1.0000
  C   C52       1.0  0.97189  0.49031  0.35912  1.0000
  C   C53       1.0  0.94116  0.45052  0.42217  1.0000
  C   C54       1.0  0.88596  0.42002  0.41441  1.0000
  H   H31       1.0  0.95863  0.44145  0.47272  1.0000
  H   H32       1.0  0.86512  0.39159  0.46123  1.0000
  H   H33       1.0  0.13423  0.58132  0.50136  1.0000
  N   N14       1.0  0.03126  0.53034  0.52767  1.0000
  O   O5        1.0  0.04373  0.50574  0.58221  1.0000
  O   O6        1.0  0.04040  0.57317  0.56266  1.0000
  N   N15       1.0  0.19348  0.61093  0.36208  1.0000
