data_image0
_chemical_formula_structural       C2H2C4NC2NC4NC3NC35H23C21H18C16H16C2H2C2H2C4H2C2H2C2H2C4H2C18H17C3NC3NC2NC5NC34H24C3NC3NC5NC5NC36H26C4HNH2C4HNH2C2HNH2C4HNH2C4HNH2C2HNH2
_chemical_formula_sum              "C240 H156 N18"
_cell_length_a       58.7179
_cell_length_b       58.718
_cell_length_c       14.9675
_cell_angle_alpha    89.7738
_cell_angle_beta     90.2262
_cell_angle_gamma    120

_space_group_name_H-M_alt    "P 1"
_space_group_IT_number       1

loop_
  _space_group_symop_operation_xyz
  'x, y, z'

loop_
  _atom_site_type_symbol
  _atom_site_label
  _atom_site_symmetry_multiplicity
  _atom_site_fract_x
  _atom_site_fract_y
  _atom_site_fract_z
  _atom_site_occupancy
  C   C1        1.0  0.01154  0.50440  0.32922  1.0000
  C   C2        1.0  0.01167  0.60261  0.32727  1.0000
  H   H1        1.0  0.00868  0.46606  0.32159  1.0000
  H   H2        1.0  0.00904  0.63822  0.31850  1.0000
  C   C3        1.0  0.02008  0.48608  0.32402  1.0000
  C   C4        1.0  0.02035  0.62951  0.32216  1.0000
  C   C5        1.0  0.04723  0.49963  0.32239  1.0000
  C   C6        1.0  0.05591  0.52651  0.32737  1.0000
  N   N1        1.0  0.03376  0.52826  0.33086  1.0000
  C   C7        1.0  0.98481  0.49806  0.33272  1.0000
  C   C8        1.0  0.97619  0.51677  0.33391  1.0000
  N   N2        1.0  0.99105  0.54327  0.33018  1.0000
  C   C9        1.0  0.97621  0.55494  0.33186  1.0000
  C   C10       1.0  0.95011  0.53458  0.33697  1.0000
  C   C11       1.0  0.95010  0.51107  0.33808  1.0000
  C   C12       1.0  0.98487  0.58227  0.32885  1.0000
  N   N3        1.0  0.03382  0.60086  0.33083  1.0000
  C   C13       1.0  0.05603  0.62473  0.32918  1.0000
  C   C14       1.0  0.04749  0.64305  0.32385  1.0000
  C   C15       1.0  0.08278  0.63106  0.33282  1.0000
  N   N4        1.0  0.07653  0.58587  0.33036  1.0000
  C   C16       1.0  0.09137  0.57419  0.33199  1.0000
  C   C17       1.0  0.11747  0.59455  0.33701  1.0000
  C   C18       1.0  0.11749  0.61806  0.33817  1.0000
  C   C19       1.0  0.08271  0.54687  0.32893  1.0000
  C   C20       1.0  0.10247  0.53952  0.32695  1.0000
  C   C21       1.0  0.11616  0.54171  0.24710  1.0000
  C   C22       1.0  0.13709  0.53651  0.24665  1.0000
  C   C23       1.0  0.14478  0.52876  0.32564  1.0000
  C   C24       1.0  0.16716  0.52527  0.32652  1.0000
  C   C25       1.0  0.21379  0.54195  0.29287  1.0000
  C   C26       1.0  0.19123  0.54448  0.28833  1.0000
  C   C27       1.0  0.10253  0.65814  0.33548  1.0000
  C   C28       1.0  0.11313  0.67245  0.25574  1.0000
  C   C29       1.0  0.13374  0.69874  0.25876  1.0000
  C   C30       1.0  0.14445  0.71137  0.34132  1.0000
  C   C31       1.0  0.16645  0.73751  0.34417  1.0000
  C   C32       1.0  0.16765  0.75778  0.28938  1.0000
  C   C33       1.0  0.18979  0.78326  0.29065  1.0000
  C   C34       1.0  0.21160  0.78944  0.34669  1.0000
  C   C35       1.0  0.96512  0.58965  0.32703  1.0000
  C   C36       1.0  0.92325  0.60106  0.32571  1.0000
  C   C37       1.0  0.93053  0.59304  0.24690  1.0000
  C   C38       1.0  0.95124  0.58752  0.24734  1.0000
  C   C39       1.0  0.90119  0.60507  0.32651  1.0000
  C   C40       1.0  0.87686  0.58612  0.28896  1.0000
  C   C41       1.0  0.85464  0.58921  0.29332  1.0000
  C   C42       1.0  0.85604  0.61141  0.33518  1.0000
  C   C43       1.0  0.96504  0.47099  0.33534  1.0000
  C   C44       1.0  0.95406  0.45691  0.25558  1.0000
  C   C45       1.0  0.93325  0.43071  0.25859  1.0000
  C   C46       1.0  0.92269  0.41796  0.34117  1.0000
  C   C47       1.0  0.90040  0.39200  0.34407  1.0000
  C   C48       1.0  0.85458  0.34051  0.34641  1.0000
  C   C49       1.0  0.87611  0.34642  0.28977  1.0000
  C   C50       1.0  0.89858  0.37169  0.28858  1.0000
  H   H3        1.0  0.87571  0.33227  0.24905  1.0000
  H   H4        1.0  0.91377  0.37505  0.24708  1.0000
  H   H5        1.0  0.92515  0.42140  0.19953  1.0000
  H   H6        1.0  0.96071  0.46584  0.19484  1.0000
  H   H7        1.0  0.05853  0.49092  0.31883  1.0000
  H   H8        1.0  0.03380  0.54455  0.33705  1.0000
  H   H9        1.0  0.03379  0.58456  0.33719  1.0000
  H   H10       1.0  0.93356  0.49295  0.34143  1.0000
  H   H11       1.0  0.93359  0.53620  0.33982  1.0000
  H   H12       1.0  0.95576  0.58139  0.18953  1.0000
  H   H13       1.0  0.92068  0.59103  0.18822  1.0000
  H   H14       1.0  0.05889  0.66307  0.32141  1.0000
  H   H15       1.0  0.13403  0.63618  0.34141  1.0000
  H   H16       1.0  0.10631  0.66364  0.19499  1.0000
  H   H17       1.0  0.14154  0.70825  0.19967  1.0000
  H   H18       1.0  0.18974  0.79738  0.25048  1.0000
  H   H19       1.0  0.15223  0.75423  0.24837  1.0000
  H   H20       1.0  0.19285  0.56107  0.25952  1.0000
  H   H21       1.0  0.23103  0.55662  0.26671  1.0000
  H   H22       1.0  0.14682  0.53862  0.18789  1.0000
  H   H23       1.0  0.11140  0.54774  0.18922  1.0000
  H   H24       1.0  0.87482  0.56936  0.26065  1.0000
  H   H25       1.0  0.83719  0.57472  0.26765  1.0000
  C   C51       1.0  0.54515  0.52009  0.33454  1.0000
  C   C52       1.0  0.56552  0.51435  0.33948  1.0000
  C   C53       1.0  0.58902  0.53783  0.34059  1.0000
  C   C54       1.0  0.55843  0.67345  0.24984  1.0000
  C   C55       1.0  0.56362  0.69958  0.24937  1.0000
  C   C56       1.0  0.55817  0.77075  0.29542  1.0000
  C   C57       1.0  0.55562  0.74566  0.29098  1.0000
  C   C58       1.0  0.42771  0.53964  0.25785  1.0000
  C   C59       1.0  0.40141  0.53395  0.26055  1.0000
  C   C60       1.0  0.34235  0.50874  0.29057  1.0000
  C   C61       1.0  0.31687  0.50539  0.29145  1.0000
  C   C62       1.0  0.31063  0.52094  0.34712  1.0000
  C   C63       1.0  0.50703  0.43647  0.24961  1.0000
  C   C64       1.0  0.51254  0.46271  0.25006  1.0000
  C   C65       1.0  0.51398  0.38966  0.29167  1.0000
  C   C66       1.0  0.51090  0.36435  0.29602  1.0000
  C   C67       1.0  0.64313  0.59615  0.25775  1.0000
  C   C68       1.0  0.66933  0.60153  0.26044  1.0000
  C   C69       1.0  0.75961  0.61290  0.34690  1.0000
  C   C70       1.0  0.75364  0.62865  0.29060  1.0000
  C   C71       1.0  0.72838  0.62585  0.28982  1.0000
  H   H26       1.0  0.76776  0.64250  0.24980  1.0000
  H   H27       1.0  0.72497  0.63777  0.24853  1.0000
  H   H28       1.0  0.67861  0.60292  0.20126  1.0000
  H   H29       1.0  0.63416  0.59403  0.19711  1.0000
  H   H30       1.0  0.60715  0.53942  0.34384  1.0000
  H   H31       1.0  0.51868  0.47347  0.19226  1.0000
  H   H32       1.0  0.50903  0.42876  0.19092  1.0000
  H   H33       1.0  0.46186  0.46967  0.32164  1.0000
  H   H34       1.0  0.43655  0.54170  0.19721  1.0000
  H   H35       1.0  0.39193  0.53229  0.20134  1.0000
  H   H36       1.0  0.30279  0.49128  0.25123  1.0000
  H   H37       1.0  0.34594  0.49693  0.24982  1.0000
  H   H38       1.0  0.53905  0.73075  0.26214  1.0000
  H   H39       1.0  0.54348  0.77335  0.26931  1.0000
  H   H40       1.0  0.56151  0.70732  0.19059  1.0000
  H   H41       1.0  0.55238  0.66277  0.19199  1.0000
  H   H42       1.0  0.53073  0.40444  0.26329  1.0000
  H   H43       1.0  0.52538  0.36144  0.27029  1.0000
  C   C72       1.0  0.42677  0.98404  0.25103  1.0000
  C   C73       1.0  0.40065  0.96310  0.25008  1.0000
  C   C74       1.0  0.32941  0.88635  0.29473  1.0000
  C   C75       1.0  0.35451  0.90891  0.29077  1.0000
  C   C76       1.0  0.56048  0.98704  0.26035  1.0000
  C   C77       1.0  0.56620  0.96645  0.26310  1.0000
  C   C78       1.0  0.59140  0.93254  0.29322  1.0000
  C   C79       1.0  0.59474  0.91039  0.29411  1.0000
  C   C80       1.0  0.66349  0.16946  0.25028  1.0000
  C   C81       1.0  0.63725  0.14875  0.25126  1.0000
  C   C82       1.0  0.71037  0.22317  0.29123  1.0000
  C   C83       1.0  0.73570  0.24541  0.29508  1.0000
  C   C84       1.0  0.50393  0.14595  0.26014  1.0000
  C   C85       1.0  0.49853  0.16675  0.26288  1.0000
  C   C86       1.0  0.47147  0.22392  0.29320  1.0000
  C   C87       1.0  0.47425  0.20145  0.29239  1.0000
  H   H44       1.0  0.45761  0.22427  0.25244  1.0000
  H   H45       1.0  0.46232  0.18621  0.25111  1.0000
  H   H46       1.0  0.49717  0.17479  0.20372  1.0000
  H   H47       1.0  0.50604  0.13923  0.19949  1.0000
  H   H48       1.0  0.62640  0.14415  0.19363  1.0000
  H   H49       1.0  0.67111  0.17922  0.19142  1.0000
  H   H50       1.0  0.55841  0.99393  0.19969  1.0000
  H   H51       1.0  0.56782  0.95871  0.20392  1.0000
  H   H52       1.0  0.60884  0.91050  0.25387  1.0000
  H   H53       1.0  0.60319  0.94801  0.25243  1.0000
  H   H54       1.0  0.36946  0.90732  0.26218  1.0000
  H   H55       1.0  0.32684  0.86914  0.26847  1.0000
  H   H56       1.0  0.39300  0.95344  0.19115  1.0000
  H   H57       1.0  0.43754  0.98885  0.19335  1.0000
  H   H58       1.0  0.69555  0.22519  0.26322  1.0000
  H   H59       1.0  0.73856  0.26282  0.26932  1.0000
  C   C88       1.0  0.24839  0.51706  0.26260  1.0000
  C   C89       1.0  0.27235  0.51714  0.26420  1.0000
  H   H60       1.0  0.24008  0.51661  0.20184  1.0000
  H   H61       1.0  0.28091  0.51731  0.20458  1.0000
  C   C90       1.0  0.58304  0.83030  0.26525  1.0000
  C   C91       1.0  0.58297  0.85418  0.26685  1.0000
  H   H62       1.0  0.58347  0.82255  0.20448  1.0000
  H   H63       1.0  0.58278  0.86269  0.20725  1.0000
  C   C92       1.0  0.26992  0.85178  0.26335  1.0000
  C   C93       1.0  0.24604  0.82782  0.26445  1.0000
  C   C94       1.0  0.23468  0.81493  0.34582  1.0000
  C   C95       1.0  0.28329  0.86382  0.34355  1.0000
  H   H64       1.0  0.27775  0.86016  0.20275  1.0000
  H   H65       1.0  0.23763  0.81932  0.20467  1.0000
  C   C96       1.0  0.82091  0.61511  0.26220  1.0000
  C   C97       1.0  0.79726  0.61564  0.26380  1.0000
  H   H66       1.0  0.82893  0.61523  0.20141  1.0000
  H   H67       1.0  0.78860  0.61553  0.20421  1.0000
  C   C98       1.0  0.48501  0.30478  0.26484  1.0000
  C   C99       1.0  0.48450  0.28061  0.26642  1.0000
  H   H68       1.0  0.48486  0.31280  0.20407  1.0000
  H   H69       1.0  0.48457  0.27217  0.20681  1.0000
  C   C100      1.0  0.79522  0.27911  0.26290  1.0000
  C   C101      1.0  0.81940  0.30277  0.26402  1.0000
  C   C102      1.0  0.83118  0.31527  0.34544  1.0000
  C   C103      1.0  0.78194  0.26702  0.34314  1.0000
  H   H70       1.0  0.78711  0.27102  0.20229  1.0000
  H   H71       1.0  0.82774  0.31136  0.20426  1.0000
  C   C104      1.0  0.09139  0.61236  0.33410  1.0000
  C   C105      1.0  0.13052  0.52597  0.40493  1.0000
  C   C106      1.0  0.10975  0.53145  0.40580  1.0000
  C   C107      1.0  0.16634  0.50316  0.36806  1.0000
  C   C108      1.0  0.18884  0.50045  0.37177  1.0000
  C   C109      1.0  0.21298  0.52003  0.33546  1.0000
  C   C110      1.0  0.13342  0.69690  0.42088  1.0000
  C   C111      1.0  0.11272  0.67067  0.41816  1.0000
  C   C112      1.0  0.21035  0.76914  0.40151  1.0000
  C   C113      1.0  0.18821  0.74372  0.40042  1.0000
  C   C114      1.0  0.95822  0.59794  0.40574  1.0000
  C   C115      1.0  0.93767  0.60373  0.40486  1.0000
  C   C116      1.0  0.88044  0.63072  0.37084  1.0000
  C   C117      1.0  0.90262  0.62747  0.36727  1.0000
  C   C118      1.0  0.95504  0.45831  0.41802  1.0000
  C   C119      1.0  0.93414  0.43217  0.42075  1.0000
  C   C120      1.0  0.87891  0.38605  0.40091  1.0000
  C   C121      1.0  0.85647  0.36084  0.40198  1.0000
  H   H72       1.0  0.84108  0.35778  0.44192  1.0000
  H   H73       1.0  0.87900  0.40032  0.44023  1.0000
  H   H74       1.0  0.92725  0.42364  0.48183  1.0000
  H   H75       1.0  0.96253  0.46819  0.47674  1.0000
  H   H76       1.0  0.96775  0.59928  0.46462  1.0000
  H   H77       1.0  0.93261  0.60885  0.46369  1.0000
  H   H78       1.0  0.13400  0.59293  0.33977  1.0000
  H   H79       1.0  0.10547  0.66064  0.47686  1.0000
  H   H80       1.0  0.14042  0.70534  0.48196  1.0000
  H   H81       1.0  0.18857  0.72950  0.43921  1.0000
  H   H82       1.0  0.22596  0.77242  0.44103  1.0000
  H   H83       1.0  0.10040  0.53011  0.46482  1.0000
  H   H84       1.0  0.13589  0.52108  0.46390  1.0000
  H   H85       1.0  0.18760  0.48426  0.40253  1.0000
  H   H86       1.0  0.14925  0.48872  0.39575  1.0000
  H   H87       1.0  0.91992  0.64173  0.39444  1.0000
  H   H88       1.0  0.88212  0.64711  0.40102  1.0000
  C   C122      1.0  0.61402  0.63283  0.32673  1.0000
  C   C123      1.0  0.60047  0.64644  0.32519  1.0000
  C   C124      1.0  0.57359  0.62823  0.33018  1.0000
  N   N5        1.0  0.57184  0.60433  0.33365  1.0000
  C   C125      1.0  0.59570  0.60598  0.33190  1.0000
  C   C126      1.0  0.60203  0.58556  0.33533  1.0000
  C   C127      1.0  0.58333  0.55824  0.33658  1.0000
  N   N6        1.0  0.55683  0.54661  0.33293  1.0000
  C   C128      1.0  0.51783  0.50143  0.33161  1.0000
  C   C129      1.0  0.49748  0.50788  0.33016  1.0000
  N   N7        1.0  0.49923  0.53178  0.33366  1.0000
  C   C130      1.0  0.47536  0.53013  0.33197  1.0000
  C   C131      1.0  0.45704  0.50329  0.32685  1.0000
  C   C132      1.0  0.47058  0.48968  0.32523  1.0000
  C   C133      1.0  0.46903  0.55054  0.33538  1.0000
  C   C134      1.0  0.48774  0.57786  0.33664  1.0000
  N   N8        1.0  0.51423  0.58949  0.33309  1.0000
  C   C135      1.0  0.52591  0.61601  0.33469  1.0000
  C   C136      1.0  0.50555  0.62174  0.33955  1.0000
  C   C137      1.0  0.48205  0.59826  0.34059  1.0000
  C   C138      1.0  0.55324  0.63468  0.33172  1.0000
  C   C139      1.0  0.56059  0.66179  0.32973  1.0000
  C   C140      1.0  0.57136  0.71487  0.32835  1.0000
  C   C141      1.0  0.57410  0.70322  0.40767  1.0000
  C   C142      1.0  0.56867  0.67699  0.40856  1.0000
  C   C143      1.0  0.57484  0.74073  0.32920  1.0000
  C   C144      1.0  0.59694  0.76194  0.37076  1.0000
  C   C145      1.0  0.59964  0.78714  0.37446  1.0000
  C   C146      1.0  0.58006  0.79177  0.33810  1.0000
  C   C147      1.0  0.44196  0.54322  0.33776  1.0000
  C   C148      1.0  0.38871  0.53189  0.34294  1.0000
  C   C149      1.0  0.40313  0.53520  0.42268  1.0000
  C   C150      1.0  0.42936  0.54074  0.42028  1.0000
  C   C151      1.0  0.36257  0.52773  0.34544  1.0000
  C   C152      1.0  0.33088  0.53990  0.40205  1.0000
  C   C153      1.0  0.35631  0.54321  0.40132  1.0000
  C   C154      1.0  0.51044  0.47430  0.32978  1.0000
  C   C155      1.0  0.50216  0.45896  0.40849  1.0000
  C   C156      1.0  0.49638  0.43262  0.40761  1.0000
  C   C157      1.0  0.49902  0.42102  0.32843  1.0000
  C   C158      1.0  0.49502  0.39496  0.32923  1.0000
  C   C159      1.0  0.48870  0.34345  0.33786  1.0000
  C   C160      1.0  0.46938  0.34846  0.37352  1.0000
  C   C161      1.0  0.47263  0.37390  0.37000  1.0000
  C   C162      1.0  0.62911  0.59286  0.33767  1.0000
  C   C163      1.0  0.64186  0.59535  0.42020  1.0000
  C   C164      1.0  0.68215  0.60354  0.34286  1.0000
  C   C165      1.0  0.66799  0.60057  0.42261  1.0000
  C   C166      1.0  0.70812  0.60721  0.34540  1.0000
  C   C167      1.0  0.71413  0.59155  0.40195  1.0000
  C   C168      1.0  0.73934  0.59431  0.40258  1.0000
  H   H89       1.0  0.74244  0.58189  0.44232  1.0000
  H   H90       1.0  0.69990  0.57727  0.44132  1.0000
  H   H91       1.0  0.67657  0.60206  0.48358  1.0000
  H   H92       1.0  0.63201  0.59279  0.47903  1.0000
  H   H93       1.0  0.63404  0.64146  0.32424  1.0000
  H   H94       1.0  0.60918  0.66646  0.32162  1.0000
  H   H95       1.0  0.55555  0.58806  0.33984  1.0000
  H   H96       1.0  0.51554  0.54805  0.33950  1.0000
  H   H97       1.0  0.56390  0.49620  0.34230  1.0000
  H   H98       1.0  0.50086  0.46703  0.46740  1.0000
  H   H99       1.0  0.49128  0.42233  0.46645  1.0000
  H   H100      1.0  0.43702  0.49466  0.32444  1.0000
  H   H101      1.0  0.50717  0.63989  0.34224  1.0000
  H   H102      1.0  0.46392  0.59667  0.34371  1.0000
  H   H103      1.0  0.43935  0.54344  0.47910  1.0000
  H   H104      1.0  0.39464  0.53367  0.48365  1.0000
  H   H105      1.0  0.37048  0.55769  0.44026  1.0000
  H   H106      1.0  0.32755  0.55215  0.44138  1.0000
  H   H107      1.0  0.56996  0.66885  0.46762  1.0000
  H   H108      1.0  0.57901  0.71338  0.46661  1.0000
  H   H109      1.0  0.61582  0.80202  0.40525  1.0000
  H   H110      1.0  0.61138  0.75923  0.39849  1.0000
  H   H111      1.0  0.45837  0.37687  0.39720  1.0000
  H   H112      1.0  0.45300  0.33370  0.40376  1.0000
  C   C169      1.0  0.46726  0.08001  0.32908  1.0000
  C   C170      1.0  0.45365  0.05286  0.32736  1.0000
  C   C171      1.0  0.47187  0.04418  0.33226  1.0000
  N   N9        1.0  0.49577  0.06633  0.33590  1.0000
  C   C172      1.0  0.49412  0.08854  0.33423  1.0000
  C   C173      1.0  0.51453  0.11529  0.33764  1.0000
  C   C174      1.0  0.54185  0.12390  0.33883  1.0000
  N   N10       1.0  0.55348  0.10904  0.33513  1.0000
  C   C175      1.0  0.58000  0.12388  0.33662  1.0000
  C   C176      1.0  0.58575  0.14998  0.34153  1.0000
  C   C177      1.0  0.56226  0.15000  0.34276  1.0000
  C   C178      1.0  0.59867  0.11523  0.33354  1.0000
  C   C179      1.0  0.59221  0.08842  0.33214  1.0000
  N   N11       1.0  0.56832  0.06627  0.33588  1.0000
  C   C180      1.0  0.56997  0.04406  0.33421  1.0000
  C   C181      1.0  0.59682  0.05260  0.32883  1.0000
  C   C182      1.0  0.61042  0.07975  0.32702  1.0000
  C   C183      1.0  0.54957  0.01731  0.33779  1.0000
  C   C184      1.0  0.52225  0.00870  0.33896  1.0000
  N   N12       1.0  0.51062  0.02356  0.33529  1.0000
  C   C185      1.0  0.48410  0.00872  0.33669  1.0000
  C   C186      1.0  0.47837  0.98261  0.34157  1.0000
  C   C187      1.0  0.50185  0.98259  0.34283  1.0000
  C   C188      1.0  0.46543  0.01738  0.33358  1.0000
  C   C189      1.0  0.43832  0.99762  0.33116  1.0000
  C   C190      1.0  0.38525  0.95531  0.32881  1.0000
  C   C191      1.0  0.39678  0.96946  0.40838  1.0000
  C   C192      1.0  0.42301  0.99024  0.40974  1.0000
  C   C193      1.0  0.35938  0.93294  0.32914  1.0000
  C   C194      1.0  0.33811  0.93371  0.37036  1.0000
  C   C195      1.0  0.31290  0.91121  0.37352  1.0000
  C   C196      1.0  0.30832  0.88711  0.33699  1.0000
  C   C197      1.0  0.55690  0.99756  0.34023  1.0000
  C   C198      1.0  0.56824  0.95564  0.34552  1.0000
  C   C199      1.0  0.56492  0.96659  0.42523  1.0000
  C   C200      1.0  0.55938  0.98729  0.42277  1.0000
  C   C201      1.0  0.57239  0.93365  0.34808  1.0000
  C   C202      1.0  0.57919  0.88850  0.34980  1.0000
  C   C203      1.0  0.56025  0.88970  0.40479  1.0000
  C   C204      1.0  0.55694  0.91182  0.40404  1.0000
  C   C205      1.0  0.62578  0.13497  0.33123  1.0000
  C   C206      1.0  0.64125  0.14197  0.40966  1.0000
  C   C207      1.0  0.66758  0.16253  0.40827  1.0000
  C   C208      1.0  0.67906  0.17684  0.32883  1.0000
  C   C209      1.0  0.70513  0.19889  0.32907  1.0000
  C   C210      1.0  0.75665  0.24406  0.33666  1.0000
  C   C211      1.0  0.75169  0.21970  0.37254  1.0000
  C   C212      1.0  0.72625  0.19752  0.36953  1.0000
  C   C213      1.0  0.50723  0.13505  0.34004  1.0000
  C   C214      1.0  0.50476  0.14514  0.42259  1.0000
  C   C215      1.0  0.49655  0.17741  0.34533  1.0000
  C   C216      1.0  0.49953  0.16605  0.42505  1.0000
  C   C217      1.0  0.49290  0.19971  0.34791  1.0000
  C   C218      1.0  0.50857  0.22126  0.40447  1.0000
  C   C219      1.0  0.50584  0.24372  0.40508  1.0000
  C   C220      1.0  0.48724  0.24554  0.34946  1.0000
  H   H113      1.0  0.51825  0.25916  0.44486  1.0000
  H   H114      1.0  0.52286  0.22122  0.44379  1.0000
  H   H115      1.0  0.49807  0.17303  0.48604  1.0000
  H   H116      1.0  0.50732  0.13774  0.48141  1.0000
  H   H117      1.0  0.45863  0.09141  0.32662  1.0000
  H   H118      1.0  0.43364  0.04156  0.32372  1.0000
  H   H119      1.0  0.51204  0.06629  0.34172  1.0000
  H   H120      1.0  0.55207  0.06631  0.34222  1.0000
  H   H121      1.0  0.56068  0.16653  0.34600  1.0000
  H   H122      1.0  0.60389  0.16650  0.34425  1.0000
  H   H123      1.0  0.63327  0.13254  0.46874  1.0000
  H   H124      1.0  0.67797  0.16766  0.46692  1.0000
  H   H125      1.0  0.63043  0.09105  0.32318  1.0000
  H   H126      1.0  0.60544  0.04121  0.32629  1.0000
  H   H127      1.0  0.46022  0.96608  0.34413  1.0000
  H   H128      1.0  0.50345  0.96606  0.34597  1.0000
  H   H129      1.0  0.55668  0.99447  0.48157  1.0000
  H   H130      1.0  0.56645  0.95952  0.48622  1.0000
  H   H131      1.0  0.54243  0.91141  0.44286  1.0000
  H   H132      1.0  0.54796  0.87402  0.44403  1.0000
  H   H133      1.0  0.43106  0.99952  0.46894  1.0000
  H   H134      1.0  0.38653  0.96404  0.46714  1.0000
  H   H135      1.0  0.29797  0.91242  0.40404  1.0000
  H   H136      1.0  0.34078  0.95078  0.39817  1.0000
  H   H137      1.0  0.72331  0.18026  0.39689  1.0000
  H   H138      1.0  0.76651  0.21806  0.40256  1.0000
  C   C221      1.0  0.28514  0.51852  0.34580  1.0000
  C   C222      1.0  0.27261  0.51907  0.42572  1.0000
  C   C223      1.0  0.24856  0.51925  0.42593  1.0000
  C   C224      1.0  0.23627  0.51828  0.34253  1.0000
  H   H139      1.0  0.28152  0.51989  0.48555  1.0000
  N   N13       1.0  0.23887  0.52145  0.50596  1.0000
  H   H140      1.0  0.24800  0.52268  0.56174  1.0000
  H   H141      1.0  0.22335  0.52324  0.51016  1.0000
  C   C225      1.0  0.58160  0.86543  0.34847  1.0000
  C   C226      1.0  0.58106  0.85219  0.42838  1.0000
  C   C227      1.0  0.58085  0.82794  0.42857  1.0000
  C   C228      1.0  0.58180  0.81678  0.34517  1.0000
  H   H142      1.0  0.58022  0.86015  0.48822  1.0000
  N   N14       1.0  0.57863  0.81588  0.50861  1.0000
  H   H143      1.0  0.57741  0.82368  0.56439  1.0000
  H   H144      1.0  0.57682  0.79856  0.51280  1.0000
  C   C229      1.0  0.24778  0.82738  0.42601  1.0000
  C   C230      1.0  0.27202  0.85144  0.42671  1.0000
  H   H145      1.0  0.23973  0.81840  0.48567  1.0000
  N   N15       1.0  0.28394  0.86104  0.50698  1.0000
  H   H146      1.0  0.27607  0.85185  0.56260  1.0000
  H   H147      1.0  0.30124  0.87655  0.51153  1.0000
  C   C231      1.0  0.78485  0.61472  0.34547  1.0000
  C   C232      1.0  0.79745  0.61403  0.42540  1.0000
  C   C233      1.0  0.82119  0.61323  0.42560  1.0000
  C   C234      1.0  0.83309  0.61372  0.34216  1.0000
  H   H148      1.0  0.78882  0.61352  0.48526  1.0000
  N   N16       1.0  0.83094  0.61090  0.50571  1.0000
  H   H149      1.0  0.82207  0.61000  0.56154  1.0000
  H   H150      1.0  0.84621  0.60869  0.50998  1.0000
  C   C235      1.0  0.48542  0.26895  0.34806  1.0000
  C   C236      1.0  0.48613  0.28209  0.42801  1.0000
  C   C237      1.0  0.48691  0.30662  0.42824  1.0000
  C   C238      1.0  0.48639  0.31818  0.34482  1.0000
  H   H151      1.0  0.48664  0.27383  0.48786  1.0000
  N   N17       1.0  0.48923  0.31852  0.50837  1.0000
  H   H152      1.0  0.49015  0.31044  0.56419  1.0000
  H   H153      1.0  0.49143  0.33599  0.51265  1.0000
  C   C239      1.0  0.81817  0.30275  0.42565  1.0000
  C   C240      1.0  0.79363  0.27901  0.42634  1.0000
  H   H154      1.0  0.82651  0.31145  0.48534  1.0000
  N   N18       1.0  0.78184  0.26934  0.50669  1.0000
  H   H155      1.0  0.79001  0.27828  0.56234  1.0000
  H   H156      1.0  0.76438  0.25408  0.51129  1.0000
