data_image0
_chemical_formula_structural       C6H6N2C6H6N2C3H2CHC3H2CHC3H2CHC12H5CNC2NHN2C12H5CNC2NHN2C3HCH3CHC3HCH3CHC3HCH3CH
_chemical_formula_sum              "C69 H48 N12"
_cell_length_a       37.0551
_cell_length_b       37.0551
_cell_length_c       14.7263
_cell_angle_alpha    90
_cell_angle_beta     90
_cell_angle_gamma    120

_space_group_name_H-M_alt    "P 1"
_space_group_IT_number       1

loop_
  _space_group_symop_operation_xyz
  'x, y, z'

loop_
  _atom_site_type_symbol
  _atom_site_label
  _atom_site_symmetry_multiplicity
  _atom_site_fract_x
  _atom_site_fract_y
  _atom_site_fract_z
  _atom_site_occupancy
  C   C1        1.0  0.38965  0.76361  0.34897  1.0000
  C   C2        1.0  0.19206  0.62843  0.34146  1.0000
  C   C3        1.0  0.23594  0.65097  0.34043  1.0000
  C   C4        1.0  0.36805  0.78597  0.35881  1.0000
  C   C5        1.0  0.38940  0.82987  0.36038  1.0000
  C   C6        1.0  0.43310  0.85315  0.35101  1.0000
  H   H1        1.0  0.17639  0.64453  0.33660  1.0000
  H   H2        1.0  0.25037  0.68265  0.33359  1.0000
  H   H3        1.0  0.33635  0.77054  0.36610  1.0000
  H   H4        1.0  0.37266  0.84480  0.36862  1.0000
  H   H5        1.0  0.37869  0.53650  0.33653  1.0000
  H   H6        1.0  0.34058  0.57237  0.33356  1.0000
  N   N1        1.0  0.32572  0.69612  0.34863  1.0000
  N   N2        1.0  0.45126  0.89456  0.35617  1.0000
  C   C7        1.0  0.63863  0.25501  0.34795  1.0000
  C   C8        1.0  0.83594  0.39103  0.35823  1.0000
  C   C9        1.0  0.79207  0.36830  0.35919  1.0000
  C   C10       1.0  0.66029  0.23286  0.33510  1.0000
  C   C11       1.0  0.63912  0.18896  0.33336  1.0000
  C   C12       1.0  0.59560  0.16552  0.34592  1.0000
  H   H7        1.0  0.85185  0.37524  0.36541  1.0000
  H   H8        1.0  0.77779  0.33675  0.36838  1.0000
  H   H9        1.0  0.69188  0.24845  0.32579  1.0000
  H   H10       1.0  0.65588  0.17416  0.32345  1.0000
  H   H11       1.0  0.64799  0.48126  0.36542  1.0000
  H   H12       1.0  0.68649  0.44569  0.36837  1.0000
  N   N3        1.0  0.70234  0.32265  0.34857  1.0000
  N   N4        1.0  0.57737  0.12405  0.34273  1.0000
  C   C13       1.0  0.48482  0.52353  0.34948  1.0000
  C   C14       1.0  0.49411  0.50520  0.27539  1.0000
  C   C15       1.0  0.52222  0.49036  0.28465  1.0000
  H   H13       1.0  0.48041  0.50240  0.21336  1.0000
  H   H14       1.0  0.52843  0.47771  0.22916  1.0000
  C   C16       1.0  0.45490  0.53520  0.33631  1.0000
  H   H15       1.0  0.42773  0.51443  0.30941  1.0000
  C   C17       1.0  0.49970  0.96593  0.34955  1.0000
  C   C18       1.0  0.51804  0.99355  0.27544  1.0000
  C   C19       1.0  0.53287  0.03649  0.28468  1.0000
  H   H16       1.0  0.52085  0.98265  0.21342  1.0000
  H   H17       1.0  0.54554  0.05535  0.22919  1.0000
  C   C20       1.0  0.48804  0.92434  0.33641  1.0000
  H   H18       1.0  0.50880  0.91794  0.30947  1.0000
  C   C21       1.0  0.05731  0.53839  0.34950  1.0000
  C   C22       1.0  0.02967  0.52910  0.27541  1.0000
  C   C23       1.0  0.98673  0.50100  0.28468  1.0000
  H   H19       1.0  0.04057  0.54280  0.21338  1.0000
  H   H20       1.0  0.96787  0.49480  0.22919  1.0000
  C   C24       1.0  0.09889  0.56832  0.33635  1.0000
  H   H21       1.0  0.10529  0.59548  0.30938  1.0000
  C   C25       1.0  0.25962  0.63068  0.34896  1.0000
  C   C26       1.0  0.39255  0.63358  0.34896  1.0000
  C   C27       1.0  0.23726  0.58671  0.35875  1.0000
  C   C28       1.0  0.19337  0.56416  0.36031  1.0000
  C   C29       1.0  0.17008  0.58458  0.35092  1.0000
  C   C30       1.0  0.45497  0.83117  0.34143  1.0000
  C   C31       1.0  0.43362  0.78729  0.34040  1.0000
  C   C32       1.0  0.43652  0.65519  0.35875  1.0000
  C   C33       1.0  0.45907  0.63384  0.36031  1.0000
  C   C34       1.0  0.43865  0.59014  0.35086  1.0000
  C   C35       1.0  0.39479  0.56827  0.34143  1.0000
  C   C36       1.0  0.37226  0.58961  0.34041  1.0000
  H   H22       1.0  0.17844  0.53249  0.36850  1.0000
  H   H23       1.0  0.45087  0.77285  0.33351  1.0000
  H   H24       1.0  0.48673  0.84683  0.33658  1.0000
  H   H25       1.0  0.45278  0.68689  0.36609  1.0000
  H   H26       1.0  0.49074  0.65058  0.36852  1.0000
  C   C37       1.0  0.36954  0.65514  0.34859  1.0000
  N   N5        1.0  0.38899  0.69751  0.34863  1.0000
  C   C38       1.0  0.36809  0.71904  0.34859  1.0000
  C   C39       1.0  0.30419  0.65370  0.34859  1.0000
  N   N6        1.0  0.32711  0.63424  0.34863  1.0000
  H   H27       1.0  0.25270  0.57045  0.36604  1.0000
  N   N7        1.0  0.46191  0.57198  0.35606  1.0000
  N   N8        1.0  0.12867  0.56132  0.35611  1.0000
  C   C40       1.0  0.76822  0.38827  0.34796  1.0000
  C   C41       1.0  0.63496  0.38460  0.34798  1.0000
  C   C42       1.0  0.79037  0.43208  0.33511  1.0000
  C   C43       1.0  0.83426  0.45481  0.33334  1.0000
  C   C44       1.0  0.85771  0.43473  0.34593  1.0000
  C   C45       1.0  0.57366  0.18729  0.35821  1.0000
  C   C46       1.0  0.59480  0.23115  0.35917  1.0000
  C   C47       1.0  0.59115  0.36294  0.33516  1.0000
  C   C48       1.0  0.56843  0.38411  0.33339  1.0000
  C   C49       1.0  0.58850  0.42763  0.34601  1.0000
  C   C50       1.0  0.63221  0.44957  0.35823  1.0000
  C   C51       1.0  0.65493  0.42842  0.35919  1.0000
  H   H28       1.0  0.84907  0.48637  0.32342  1.0000
  H   H29       1.0  0.57754  0.24544  0.36836  1.0000
  H   H30       1.0  0.54197  0.17138  0.36539  1.0000
  H   H31       1.0  0.57515  0.33135  0.32581  1.0000
  H   H32       1.0  0.53686  0.36736  0.32349  1.0000
  C   C52       1.0  0.65815  0.36324  0.34864  1.0000
  N   N9        1.0  0.63888  0.32088  0.34858  1.0000
  C   C53       1.0  0.65999  0.29956  0.34862  1.0000
  C   C54       1.0  0.72367  0.36507  0.34862  1.0000
  N   N10       1.0  0.70058  0.38434  0.34858  1.0000
  H   H33       1.0  0.77477  0.44808  0.32576  1.0000
  N   N11       1.0  0.56528  0.44587  0.34273  1.0000
  N   N12       1.0  0.89918  0.45797  0.34273  1.0000
  C   C55       1.0  0.54181  0.49316  0.36867  1.0000
  C   C56       1.0  0.53256  0.51145  0.44275  1.0000
  C   C57       1.0  0.50410  0.52634  0.43507  1.0000
  H   H34       1.0  0.54654  0.51352  0.50409  1.0000
  C   C58       1.0  0.49464  0.54361  0.51722  1.0000
  H   H35       1.0  0.51000  0.54110  0.57824  1.0000
  H   H36       1.0  0.46114  0.52682  0.53000  1.0000
  H   H37       1.0  0.50508  0.57654  0.50688  1.0000
  C   C59       1.0  0.57053  0.47976  0.37910  1.0000
  H   H38       1.0  0.59490  0.49612  0.41954  1.0000
  C   C60       1.0  0.53007  0.05330  0.36868  1.0000
  C   C61       1.0  0.51177  0.02576  0.44277  1.0000
  C   C62       1.0  0.49689  0.98241  0.43511  1.0000
  H   H39       1.0  0.50970  0.03768  0.50411  1.0000
  C   C63       1.0  0.47961  0.95569  0.51729  1.0000
  H   H40       1.0  0.48211  0.97356  0.57829  1.0000
  H   H41       1.0  0.49640  0.93898  0.53009  1.0000
  H   H42       1.0  0.44668  0.93320  0.50694  1.0000
  C   C64       1.0  0.54348  0.09541  0.37912  1.0000
  H   H43       1.0  0.52709  0.10343  0.41941  1.0000
  C   C65       1.0  0.96993  0.48142  0.36870  1.0000
  C   C66       1.0  0.99747  0.49068  0.44279  1.0000
  C   C67       1.0  0.04082  0.51913  0.43510  1.0000
  H   H44       1.0  0.98556  0.47671  0.50414  1.0000
  C   C68       1.0  0.06754  0.52860  0.51727  1.0000
  H   H45       1.0  0.04968  0.51325  0.57829  1.0000
  H   H46       1.0  0.08426  0.56210  0.53002  1.0000
  H   H47       1.0  0.09004  0.51816  0.50695  1.0000
  C   C69       1.0  0.92781  0.45273  0.37917  1.0000
  H   H48       1.0  0.91979  0.42833  0.41952  1.0000
