data_image0
_chemical_formula_structural       C5H6C6H6C3HC6H3NC2HC6H3NC2HC6H3NC12H6C6H3C9H3C12H6C6H3C9H3C2NC2NHCH3NC2NC2NHCH3NC2NC2NHCH3N
_chemical_formula_sum              "C105 H60 N12"
_cell_length_a       52.4282
_cell_length_b       52.434
_cell_length_c       14.8419
_cell_angle_alpha    90
_cell_angle_beta     90
_cell_angle_gamma    119.995

_space_group_name_H-M_alt    "P 1"
_space_group_IT_number       1

loop_
  _space_group_symop_operation_xyz
  'x, y, z'

loop_
  _atom_site_type_symbol
  _atom_site_label
  _atom_site_symmetry_multiplicity
  _atom_site_fract_x
  _atom_site_fract_y
  _atom_site_fract_z
  _atom_site_occupancy
  C   C1        1.0  0.39170  0.58904  0.34468  1.0000
  C   C2        1.0  0.42404  0.80532  0.34176  1.0000
  C   C3        1.0  0.43665  0.83618  0.34218  1.0000
  C   C4        1.0  0.20801  0.62135  0.34175  1.0000
  C   C5        1.0  0.17715  0.60309  0.34213  1.0000
  H   H1        1.0  0.40021  0.55408  0.33527  1.0000
  H   H2        1.0  0.43741  0.79654  0.33125  1.0000
  H   H3        1.0  0.45885  0.84883  0.33183  1.0000
  H   H4        1.0  0.21679  0.64350  0.33131  1.0000
  H   H5        1.0  0.16450  0.61265  0.33179  1.0000
  H   H6        1.0  0.36938  0.57555  0.33881  1.0000
  C   C6        1.0  0.40994  0.57641  0.34282  1.0000
  C   C7        1.0  0.62333  0.42082  0.31316  1.0000
  C   C8        1.0  0.59271  0.20519  0.31162  1.0000
  C   C9        1.0  0.57889  0.17441  0.32272  1.0000
  C   C10       1.0  0.80811  0.39022  0.31152  1.0000
  C   C11       1.0  0.83889  0.40716  0.32270  1.0000
  H   H7        1.0  0.61443  0.45554  0.30046  1.0000
  H   H8        1.0  0.58173  0.21384  0.27782  1.0000
  H   H9        1.0  0.55814  0.16157  0.29726  1.0000
  H   H10       1.0  0.79946  0.37062  0.27755  1.0000
  H   H11       1.0  0.85174  0.39930  0.29701  1.0000
  H   H12       1.0  0.64328  0.43211  0.28119  1.0000
  C   C12       1.0  0.60629  0.43456  0.32420  1.0000
  C   C13       1.0  0.48735  0.51701  0.26031  1.0000
  C   C14       1.0  0.47119  0.53187  0.26622  1.0000
  H   H13       1.0  0.46262  0.53563  0.20902  1.0000
  C   C15       1.0  0.51461  0.49663  0.33766  1.0000
  C   C16       1.0  0.54583  0.46572  0.33391  1.0000
  C   C17       1.0  0.53545  0.47149  0.25307  1.0000
  C   C18       1.0  0.51953  0.48671  0.25377  1.0000
  C   C19       1.0  0.50835  0.49215  0.17399  1.0000
  C   C20       1.0  0.49235  0.50711  0.17724  1.0000
  H   H14       1.0  0.51163  0.48513  0.11302  1.0000
  H   H15       1.0  0.48435  0.51066  0.11856  1.0000
  H   H16       1.0  0.53913  0.46411  0.19327  1.0000
  N   N1        1.0  0.56064  0.45121  0.32937  1.0000
  C   C21       1.0  0.49698  0.97324  0.25798  1.0000
  C   C22       1.0  0.48212  0.94220  0.26332  1.0000
  H   H17       1.0  0.47873  0.93003  0.20595  1.0000
  C   C23       1.0  0.51677  0.02069  0.33600  1.0000
  C   C24       1.0  0.54768  0.08281  0.33341  1.0000
  C   C25       1.0  0.54245  0.06683  0.25245  1.0000
  C   C26       1.0  0.52724  0.03570  0.25259  1.0000
  C   C27       1.0  0.52235  0.01926  0.17270  1.0000
  C   C28       1.0  0.50741  0.98830  0.17540  1.0000
  H   H18       1.0  0.52977  0.02968  0.11208  1.0000
  H   H19       1.0  0.50427  0.97688  0.11666  1.0000
  H   H20       1.0  0.55021  0.07801  0.19298  1.0000
  N   N2        1.0  0.56221  0.11214  0.32929  1.0000
  C   C29       1.0  0.04007  0.52637  0.25801  1.0000
  C   C30       1.0  0.07112  0.54254  0.26334  1.0000
  H   H21       1.0  0.08328  0.55131  0.20597  1.0000
  C   C31       1.0  0.99262  0.49872  0.33606  1.0000
  C   C32       1.0  0.93049  0.46751  0.33350  1.0000
  C   C33       1.0  0.94647  0.47826  0.25253  1.0000
  C   C34       1.0  0.97760  0.49418  0.25265  1.0000
  C   C35       1.0  0.99404  0.50571  0.17276  1.0000
  C   C36       1.0  0.02500  0.52172  0.17544  1.0000
  H   H22       1.0  0.98361  0.50271  0.11213  1.0000
  H   H23       1.0  0.03643  0.53000  0.11669  1.0000
  H   H24       1.0  0.93528  0.47483  0.19306  1.0000
  N   N3        1.0  0.90116  0.45272  0.32939  1.0000
  C   C37       1.0  0.39349  0.78690  0.35535  1.0000
  C   C38       1.0  0.40411  0.61979  0.35368  1.0000
  C   C39       1.0  0.22643  0.60921  0.35525  1.0000
  C   C40       1.0  0.44100  0.59410  0.34980  1.0000
  C   C41       1.0  0.45308  0.62492  0.35911  1.0000
  C   C42       1.0  0.43496  0.63764  0.36110  1.0000
  C   C43       1.0  0.41914  0.84950  0.35612  1.0000
  C   C44       1.0  0.38852  0.83067  0.36983  1.0000
  C   C45       1.0  0.37582  0.79983  0.36948  1.0000
  C   C46       1.0  0.16383  0.57227  0.35593  1.0000
  C   C47       1.0  0.18266  0.56047  0.36956  1.0000
  C   C48       1.0  0.21350  0.57861  0.36927  1.0000
  H   H25       1.0  0.47538  0.63858  0.36423  1.0000
  H   H26       1.0  0.44461  0.66005  0.36748  1.0000
  H   H27       1.0  0.35356  0.78703  0.37947  1.0000
  H   H28       1.0  0.37497  0.83924  0.38014  1.0000
  H   H29       1.0  0.17409  0.53835  0.37978  1.0000
  H   H30       1.0  0.22630  0.56915  0.37921  1.0000
  C   C49       1.0  0.31018  0.65558  0.35402  1.0000
  C   C50       1.0  0.32502  0.68669  0.35401  1.0000
  C   C51       1.0  0.35614  0.70317  0.35403  1.0000
  C   C52       1.0  0.37241  0.68832  0.35411  1.0000
  C   C53       1.0  0.35777  0.65721  0.35415  1.0000
  C   C54       1.0  0.32666  0.64094  0.35409  1.0000
  H   H31       1.0  0.39503  0.70024  0.35418  1.0000
  H   H32       1.0  0.31310  0.69739  0.35404  1.0000
  H   H33       1.0  0.31595  0.61832  0.35415  1.0000
  C   C55       1.0  0.25509  0.62589  0.35457  1.0000
  C   C56       1.0  0.28139  0.64037  0.35419  1.0000
  C   C57       1.0  0.38746  0.63181  0.35417  1.0000
  C   C58       1.0  0.37298  0.64363  0.35424  1.0000
  C   C59       1.0  0.36971  0.73195  0.35422  1.0000
  C   C60       1.0  0.38151  0.75824  0.35463  1.0000
  C   C61       1.0  0.13335  0.55348  0.35593  1.0000
  C   C62       1.0  0.43083  0.87998  0.35620  1.0000
  C   C63       1.0  0.45973  0.58240  0.34598  1.0000
  H   H34       1.0  0.48128  0.59612  0.33800  1.0000
  H   H35       1.0  0.41716  0.88790  0.36323  1.0000
  H   H36       1.0  0.12542  0.53188  0.36269  1.0000
  C   C64       1.0  0.62099  0.22375  0.34806  1.0000
  C   C65       1.0  0.61328  0.39221  0.34738  1.0000
  C   C66       1.0  0.78954  0.39990  0.34816  1.0000
  C   C67       1.0  0.57890  0.42008  0.36981  1.0000
  C   C68       1.0  0.56899  0.39135  0.40339  1.0000
  C   C69       1.0  0.58588  0.37751  0.39213  1.0000
  C   C70       1.0  0.59294  0.16150  0.37070  1.0000
  C   C71       1.0  0.62133  0.18032  0.40658  1.0000
  C   C72       1.0  0.63527  0.21104  0.39520  1.0000
  C   C73       1.0  0.85179  0.43409  0.37083  1.0000
  C   C74       1.0  0.83296  0.44362  0.40691  1.0000
  C   C75       1.0  0.80223  0.42683  0.39554  1.0000
  H   H37       1.0  0.54939  0.38024  0.43720  1.0000
  H   H38       1.0  0.57809  0.35681  0.41816  1.0000
  H   H39       1.0  0.65571  0.22395  0.42295  1.0000
  H   H40       1.0  0.63212  0.17183  0.44218  1.0000
  H   H41       1.0  0.84145  0.46288  0.44260  1.0000
  H   H42       1.0  0.78932  0.43434  0.42338  1.0000
  C   C76       1.0  0.70582  0.35484  0.33548  1.0000
  C   C77       1.0  0.69076  0.32373  0.33567  1.0000
  C   C78       1.0  0.65964  0.30746  0.33548  1.0000
  C   C79       1.0  0.64358  0.32252  0.33548  1.0000
  C   C80       1.0  0.65843  0.35364  0.33531  1.0000
  C   C81       1.0  0.68955  0.36969  0.33548  1.0000
  H   H43       1.0  0.62096  0.31076  0.33610  1.0000
  H   H44       1.0  0.70252  0.31286  0.33641  1.0000
  H   H45       1.0  0.70042  0.39232  0.33611  1.0000
  C   C82       1.0  0.76091  0.38394  0.34089  1.0000
  C   C83       1.0  0.73462  0.36984  0.33723  1.0000
  C   C84       1.0  0.62931  0.37961  0.34032  1.0000
  C   C85       1.0  0.64343  0.36743  0.33686  1.0000
  C   C86       1.0  0.64585  0.27867  0.33721  1.0000
  C   C87       1.0  0.63365  0.25238  0.34083  1.0000
  C   C88       1.0  0.88186  0.45039  0.38743  1.0000
  C   C89       1.0  0.57917  0.13144  0.38732  1.0000
  C   C90       1.0  0.56248  0.43372  0.38644  1.0000
  H   H46       1.0  0.55092  0.42885  0.44338  1.0000
  H   H47       1.0  0.58354  0.12471  0.44505  1.0000
  H   H48       1.0  0.88859  0.46148  0.44517  1.0000
  C   C91       1.0  0.46658  0.54161  0.35014  1.0000
  C   C92       1.0  0.47822  0.53582  0.42879  1.0000
  N   N4        1.0  0.49359  0.52136  0.42031  1.0000
  C   C93       1.0  0.49867  0.51180  0.34082  1.0000
  C   C94       1.0  0.54050  0.47645  0.41501  1.0000
  N   N5        1.0  0.52536  0.49119  0.41414  1.0000
  H   H49       1.0  0.54807  0.47349  0.47525  1.0000
  C   C95       1.0  0.47484  0.54434  0.52111  1.0000
  H   H50       1.0  0.46208  0.55559  0.52309  1.0000
  H   H51       1.0  0.49654  0.55905  0.54967  1.0000
  H   H52       1.0  0.46368  0.52469  0.56323  1.0000
  N   N6        1.0  0.45043  0.55465  0.35302  1.0000
  C   C96       1.0  0.47173  0.92763  0.34662  1.0000
  C   C97       1.0  0.47703  0.94491  0.42549  1.0000
  N   N7        1.0  0.49153  0.97475  0.41756  1.0000
  C   C98       1.0  0.50160  0.98958  0.33857  1.0000
  C   C99       1.0  0.53642  0.06660  0.41401  1.0000
  N   N8        1.0  0.52170  0.03673  0.41258  1.0000
  H   H53       1.0  0.53898  0.07700  0.47427  1.0000
  C   C100      1.0  0.46836  0.93294  0.51769  1.0000
  H   H54       1.0  0.45780  0.90900  0.51994  1.0000
  H   H55       1.0  0.45304  0.93932  0.54516  1.0000
  H   H56       1.0  0.48786  0.94198  0.56068  1.0000
  N   N9        1.0  0.45854  0.89841  0.34748  1.0000
  C   C101      1.0  0.08569  0.54672  0.34664  1.0000
  C   C102      1.0  0.06841  0.53478  0.42553  1.0000
  N   N10       1.0  0.03856  0.51943  0.41761  1.0000
  C   C103      1.0  0.02374  0.51467  0.33862  1.0000
  C   C104      1.0  0.94671  0.47249  0.41409  1.0000
  N   N11       1.0  0.97658  0.48764  0.41266  1.0000
  H   H57       1.0  0.93631  0.46466  0.47437  1.0000
  C   C105      1.0  0.08039  0.53808  0.51772  1.0000
  H   H58       1.0  0.10434  0.55143  0.51993  1.0000
  H   H59       1.0  0.07398  0.51638  0.54524  1.0000
  H   H60       1.0  0.07137  0.54857  0.56067  1.0000
  N   N12       1.0  0.11492  0.56276  0.34752  1.0000
