data_image0
_chemical_formula_structural       C4H2CNC3NC5NC2NC35H23C21H18C16H16N4CN6CN2C18H17C3NC3NC2NC5NC34H24C3NC3NC5NC5NC36H26C4HCH3C4HCH3C3HCH3C4HCH3C4HCH3C3HCH3
_chemical_formula_sum              "C234 H150 N24"
_cell_length_a       58.5301
_cell_length_b       58.5301
_cell_length_c       14.9688
_cell_angle_alpha    89.773
_cell_angle_beta     90.227
_cell_angle_gamma    120

_space_group_name_H-M_alt    "P 1"
_space_group_IT_number       1

loop_
  _space_group_symop_operation_xyz
  'x, y, z'

loop_
  _atom_site_type_symbol
  _atom_site_label
  _atom_site_symmetry_multiplicity
  _atom_site_fract_x
  _atom_site_fract_y
  _atom_site_fract_z
  _atom_site_occupancy
  C   C1        1.0  0.02292  0.63355  0.31191  1.0000
  C   C2        1.0  0.01414  0.60660  0.31935  1.0000
  C   C3        1.0  0.01361  0.50799  0.32098  1.0000
  C   C4        1.0  0.02205  0.48959  0.31304  1.0000
  H   H1        1.0  0.01162  0.64232  0.30696  1.0000
  H   H2        1.0  0.01055  0.46954  0.30888  1.0000
  C   C5        1.0  0.05016  0.64706  0.31319  1.0000
  N   N1        1.0  0.03630  0.60475  0.32395  1.0000
  C   C6        1.0  0.05862  0.62865  0.32101  1.0000
  C   C7        1.0  0.08542  0.63495  0.32555  1.0000
  C   C8        1.0  0.09393  0.61609  0.32790  1.0000
  N   N2        1.0  0.07895  0.58954  0.32263  1.0000
  C   C9        1.0  0.09374  0.57773  0.32622  1.0000
  C   C10       1.0  0.11991  0.59804  0.33416  1.0000
  C   C11       1.0  0.12002  0.62166  0.33526  1.0000
  C   C12       1.0  0.08500  0.55033  0.32229  1.0000
  C   C13       1.0  0.05808  0.53004  0.31924  1.0000
  N   N3        1.0  0.03593  0.53189  0.32391  1.0000
  C   C14       1.0  0.04929  0.50310  0.31165  1.0000
  C   C15       1.0  0.98681  0.50168  0.32571  1.0000
  N   N4        1.0  0.99328  0.54708  0.32283  1.0000
  C   C16       1.0  0.97849  0.55889  0.32635  1.0000
  C   C17       1.0  0.95233  0.53856  0.33414  1.0000
  C   C18       1.0  0.95222  0.51494  0.33531  1.0000
  C   C19       1.0  0.98723  0.58629  0.32239  1.0000
  C   C20       1.0  0.96749  0.59378  0.32152  1.0000
  C   C21       1.0  0.95316  0.59147  0.24265  1.0000
  C   C22       1.0  0.93234  0.59695  0.24350  1.0000
  C   C23       1.0  0.92537  0.60509  0.32286  1.0000
  C   C24       1.0  0.90320  0.60903  0.32530  1.0000
  C   C25       1.0  0.85625  0.59296  0.29572  1.0000
  C   C26       1.0  0.87866  0.59012  0.28819  1.0000
  C   C27       1.0  0.96696  0.47454  0.32897  1.0000
  C   C28       1.0  0.95303  0.46124  0.25112  1.0000
  C   C29       1.0  0.93226  0.43493  0.25589  1.0000
  C   C30       1.0  0.92474  0.42119  0.33841  1.0000
  C   C31       1.0  0.90262  0.39500  0.34413  1.0000
  C   C32       1.0  0.89804  0.37558  0.27938  1.0000
  C   C33       1.0  0.87577  0.35009  0.28431  1.0000
  C   C34       1.0  0.85734  0.34292  0.35473  1.0000
  C   C35       1.0  0.10472  0.54281  0.32161  1.0000
  C   C36       1.0  0.14638  0.53085  0.32297  1.0000
  C   C37       1.0  0.13964  0.53948  0.24380  1.0000
  C   C38       1.0  0.11903  0.54529  0.24293  1.0000
  C   C39       1.0  0.16823  0.52638  0.32533  1.0000
  C   C40       1.0  0.19293  0.54513  0.28898  1.0000
  C   C41       1.0  0.21501  0.54170  0.29631  1.0000
  C   C42       1.0  0.21312  0.51944  0.34049  1.0000
  C   C43       1.0  0.10531  0.66209  0.32861  1.0000
  C   C44       1.0  0.11938  0.67531  0.25090  1.0000
  C   C45       1.0  0.14035  0.70152  0.25566  1.0000
  C   C46       1.0  0.14795  0.71523  0.33805  1.0000
  C   C47       1.0  0.17037  0.74123  0.34389  1.0000
  C   C48       1.0  0.21634  0.79285  0.35447  1.0000
  C   C49       1.0  0.19801  0.78602  0.28351  1.0000
  C   C50       1.0  0.17541  0.76076  0.27859  1.0000
  H   H3        1.0  0.20078  0.79954  0.23501  1.0000
  H   H4        1.0  0.16248  0.75686  0.22690  1.0000
  H   H5        1.0  0.15074  0.71011  0.19861  1.0000
  H   H6        1.0  0.11491  0.66572  0.19081  1.0000
  H   H7        1.0  0.06166  0.66712  0.30906  1.0000
  H   H8        1.0  0.03620  0.58845  0.33318  1.0000
  H   H9        1.0  0.03605  0.54817  0.33332  1.0000
  H   H10       1.0  0.13661  0.63978  0.34089  1.0000
  H   H11       1.0  0.13639  0.59629  0.33911  1.0000
  H   H12       1.0  0.11487  0.55181  0.18491  1.0000
  H   H13       1.0  0.14976  0.54168  0.18581  1.0000
  H   H14       1.0  0.06057  0.49433  0.30659  1.0000
  H   H15       1.0  0.93564  0.49681  0.34082  1.0000
  H   H16       1.0  0.95749  0.47084  0.19086  1.0000
  H   H17       1.0  0.92199  0.42626  0.19866  1.0000
  H   H18       1.0  0.87334  0.33665  0.23626  1.0000
  H   H19       1.0  0.91107  0.37973  0.22812  1.0000
  H   H20       1.0  0.87656  0.57343  0.25858  1.0000
  H   H21       1.0  0.83864  0.57836  0.27093  1.0000
  H   H22       1.0  0.92219  0.59482  0.18541  1.0000
  H   H23       1.0  0.95743  0.58521  0.18455  1.0000
  H   H24       1.0  0.19538  0.56207  0.25992  1.0000
  H   H25       1.0  0.23275  0.55617  0.27209  1.0000
  C   C51       1.0  0.52496  0.61300  0.32886  1.0000
  C   C52       1.0  0.50465  0.61886  0.33660  1.0000
  C   C53       1.0  0.48103  0.59535  0.33775  1.0000
  C   C54       1.0  0.51119  0.45885  0.24539  1.0000
  C   C55       1.0  0.50570  0.43254  0.24623  1.0000
  C   C56       1.0  0.50969  0.36033  0.29830  1.0000
  C   C57       1.0  0.51254  0.38561  0.29090  1.0000
  C   C58       1.0  0.64138  0.58892  0.25320  1.0000
  C   C59       1.0  0.66769  0.59444  0.25764  1.0000
  C   C60       1.0  0.72707  0.61957  0.28043  1.0000
  C   C61       1.0  0.75257  0.62279  0.28497  1.0000
  C   C62       1.0  0.75981  0.61138  0.35516  1.0000
  C   C63       1.0  0.56324  0.69733  0.24651  1.0000
  C   C64       1.0  0.55743  0.67091  0.24565  1.0000
  C   C65       1.0  0.55756  0.74485  0.29170  1.0000
  C   C66       1.0  0.56097  0.77034  0.29902  1.0000
  C   C67       1.0  0.42744  0.54121  0.25299  1.0000
  C   C68       1.0  0.40123  0.53599  0.25743  1.0000
  C   C69       1.0  0.30980  0.52041  0.35488  1.0000
  C   C70       1.0  0.31670  0.50904  0.28418  1.0000
  C   C71       1.0  0.34197  0.51171  0.27966  1.0000
  H   H26       1.0  0.30324  0.49838  0.23554  1.0000
  H   H27       1.0  0.34593  0.50280  0.22811  1.0000
  H   H28       1.0  0.39268  0.53786  0.20022  1.0000
  H   H29       1.0  0.43708  0.54645  0.19298  1.0000
  H   H30       1.0  0.46291  0.59380  0.34330  1.0000
  H   H31       1.0  0.55091  0.66034  0.18762  1.0000
  H   H32       1.0  0.56104  0.70536  0.18851  1.0000
  H   H33       1.0  0.60838  0.66328  0.30978  1.0000
  H   H34       1.0  0.63174  0.58393  0.19302  1.0000
  H   H35       1.0  0.67633  0.59301  0.20026  1.0000
  H   H36       1.0  0.76595  0.63390  0.23679  1.0000
  H   H37       1.0  0.72286  0.62856  0.22935  1.0000
  H   H38       1.0  0.52922  0.40024  0.26127  1.0000
  H   H39       1.0  0.52430  0.35738  0.27362  1.0000
  H   H40       1.0  0.50784  0.42464  0.18813  1.0000
  H   H41       1.0  0.51747  0.46950  0.18732  1.0000
  H   H42       1.0  0.54063  0.73043  0.26255  1.0000
  H   H43       1.0  0.54651  0.77367  0.27472  1.0000
  C   C72       1.0  0.64371  0.14941  0.24660  1.0000
  C   C73       1.0  0.67002  0.17024  0.24694  1.0000
  C   C74       1.0  0.74230  0.24639  0.29753  1.0000
  C   C75       1.0  0.71701  0.22398  0.29061  1.0000
  C   C76       1.0  0.51376  0.14960  0.25576  1.0000
  C   C77       1.0  0.50821  0.17037  0.26022  1.0000
  C   C78       1.0  0.48310  0.20458  0.28310  1.0000
  C   C79       1.0  0.47990  0.22686  0.28763  1.0000
  C   C80       1.0  0.40550  0.96316  0.24716  1.0000
  C   C81       1.0  0.43192  0.98377  0.24685  1.0000
  C   C82       1.0  0.35790  0.90982  0.29119  1.0000
  C   C83       1.0  0.33240  0.88772  0.29799  1.0000
  C   C84       1.0  0.56148  0.98336  0.25539  1.0000
  C   C85       1.0  0.56674  0.96239  0.25986  1.0000
  C   C86       1.0  0.59363  0.90472  0.28676  1.0000
  C   C87       1.0  0.59097  0.92733  0.28221  1.0000
  H   H44       1.0  0.60430  0.90201  0.23816  1.0000
  H   H45       1.0  0.59989  0.94031  0.23066  1.0000
  H   H46       1.0  0.56483  0.95205  0.20268  1.0000
  H   H47       1.0  0.55626  0.98790  0.19537  1.0000
  H   H48       1.0  0.44258  0.98801  0.18901  1.0000
  H   H49       1.0  0.39757  0.95313  0.18897  1.0000
  H   H50       1.0  0.51875  0.14509  0.19558  1.0000
  H   H51       1.0  0.50968  0.18059  0.20289  1.0000
  H   H52       1.0  0.46879  0.22924  0.23945  1.0000
  H   H53       1.0  0.47412  0.19150  0.23199  1.0000
  H   H54       1.0  0.70233  0.22605  0.26118  1.0000
  H   H55       1.0  0.74522  0.26398  0.27263  1.0000
  H   H56       1.0  0.67783  0.18031  0.18865  1.0000
  H   H57       1.0  0.63298  0.14509  0.18869  1.0000
  H   H58       1.0  0.37238  0.90740  0.26245  1.0000
  H   H59       1.0  0.32913  0.87000  0.27372  1.0000
  N   N5        1.0  0.24995  0.51857  0.27835  1.0000
  N   N6        1.0  0.27245  0.51893  0.28076  1.0000
  N   N7        1.0  0.58410  0.82845  0.28100  1.0000
  N   N8        1.0  0.58374  0.85059  0.28336  1.0000
  C   C88       1.0  0.23962  0.81816  0.35793  1.0000
  N   N9        1.0  0.27431  0.85277  0.27903  1.0000
  N   N10       1.0  0.25216  0.83027  0.28099  1.0000
  N   N11       1.0  0.82037  0.61507  0.27866  1.0000
  N   N12       1.0  0.79761  0.61415  0.28107  1.0000
  N   N13       1.0  0.48760  0.30239  0.28134  1.0000
  N   N14       1.0  0.48854  0.28055  0.28373  1.0000
  C   C89       1.0  0.83442  0.31734  0.35827  1.0000
  N   N15       1.0  0.80022  0.28226  0.27940  1.0000
  N   N16       1.0  0.82206  0.30504  0.28134  1.0000
  C   C90       1.0  0.97831  0.52053  0.32810  1.0000
  C   C91       1.0  0.94022  0.60789  0.40118  1.0000
  C   C92       1.0  0.96090  0.60218  0.40074  1.0000
  C   C93       1.0  0.90469  0.63130  0.36787  1.0000
  C   C94       1.0  0.88232  0.63425  0.37486  1.0000
  C   C95       1.0  0.85764  0.61480  0.34072  1.0000
  C   C96       1.0  0.93921  0.43463  0.41578  1.0000
  C   C97       1.0  0.95999  0.46092  0.41131  1.0000
  C   C98       1.0  0.86187  0.36239  0.41920  1.0000
  C   C99       1.0  0.88401  0.38788  0.41395  1.0000
  C   C100      1.0  0.11112  0.53398  0.40068  1.0000
  C   C101      1.0  0.13158  0.52795  0.40112  1.0000
  C   C102      1.0  0.18828  0.50017  0.37386  1.0000
  C   C103      1.0  0.16623  0.50369  0.36700  1.0000
  C   C104      1.0  0.11233  0.67569  0.41077  1.0000
  C   C105      1.0  0.13331  0.70188  0.41523  1.0000
  C   C106      1.0  0.18887  0.74801  0.41427  1.0000
  C   C107      1.0  0.21134  0.77327  0.41954  1.0000
  H   H60       1.0  0.22452  0.77682  0.47005  1.0000
  H   H61       1.0  0.18663  0.73431  0.46134  1.0000
  H   H62       1.0  0.13791  0.71107  0.47602  1.0000
  H   H63       1.0  0.10258  0.66646  0.46818  1.0000
  H   H64       1.0  0.10129  0.53240  0.45887  1.0000
  H   H65       1.0  0.13625  0.52241  0.46025  1.0000
  H   H66       1.0  0.93585  0.54030  0.33903  1.0000
  H   H67       1.0  0.96968  0.47019  0.46879  1.0000
  H   H68       1.0  0.93468  0.42541  0.47666  1.0000
  H   H69       1.0  0.88592  0.40147  0.46058  1.0000
  H   H70       1.0  0.84859  0.35857  0.46933  1.0000
  H   H71       1.0  0.97070  0.60359  0.45911  1.0000
  H   H72       1.0  0.93538  0.61303  0.46046  1.0000
  H   H73       1.0  0.88419  0.65067  0.40567  1.0000
  H   H74       1.0  0.92216  0.64564  0.39430  1.0000
  H   H75       1.0  0.14862  0.48946  0.39283  1.0000
  H   H76       1.0  0.18604  0.48346  0.40400  1.0000
  C   C108      1.0  0.45562  0.50012  0.31585  1.0000
  C   C109      1.0  0.46913  0.48639  0.31466  1.0000
  C   C110      1.0  0.49608  0.50454  0.32215  1.0000
  N   N17       1.0  0.49793  0.52855  0.32673  1.0000
  C   C111      1.0  0.47404  0.52698  0.32366  1.0000
  C   C112      1.0  0.46774  0.54748  0.32812  1.0000
  C   C113      1.0  0.48660  0.57484  0.33052  1.0000
  N   N18       1.0  0.51315  0.58641  0.32535  1.0000
  C   C114      1.0  0.55236  0.63167  0.32505  1.0000
  C   C115      1.0  0.57266  0.62505  0.32218  1.0000
  N   N19       1.0  0.57081  0.60104  0.32681  1.0000
  C   C116      1.0  0.59470  0.60261  0.32382  1.0000
  C   C117      1.0  0.61311  0.62948  0.31611  1.0000
  C   C118      1.0  0.59961  0.64322  0.31480  1.0000
  C   C119      1.0  0.60100  0.58211  0.32826  1.0000
  C   C120      1.0  0.58215  0.55475  0.33064  1.0000
  N   N20       1.0  0.55560  0.54318  0.32556  1.0000
  C   C121      1.0  0.54379  0.51659  0.32904  1.0000
  C   C122      1.0  0.56411  0.51073  0.33668  1.0000
  C   C123      1.0  0.58774  0.53424  0.33773  1.0000
  C   C124      1.0  0.51638  0.49793  0.32518  1.0000
  C   C125      1.0  0.50889  0.47070  0.32430  1.0000
  C   C126      1.0  0.49756  0.41727  0.32557  1.0000
  C   C127      1.0  0.49479  0.42916  0.40392  1.0000
  C   C128      1.0  0.50048  0.45555  0.40350  1.0000
  C   C129      1.0  0.49363  0.39115  0.32799  1.0000
  C   C130      1.0  0.47136  0.37029  0.37055  1.0000
  C   C131      1.0  0.46841  0.34495  0.37756  1.0000
  C   C132      1.0  0.48786  0.33979  0.34340  1.0000
  C   C133      1.0  0.62815  0.58939  0.33124  1.0000
  C   C134      1.0  0.68151  0.60051  0.34001  1.0000
  C   C135      1.0  0.66813  0.60136  0.41757  1.0000
  C   C136      1.0  0.64184  0.59586  0.41344  1.0000
  C   C137      1.0  0.70771  0.60458  0.34536  1.0000
  C   C138      1.0  0.74041  0.59630  0.41982  1.0000
  C   C139      1.0  0.71491  0.59294  0.41494  1.0000
  C   C140      1.0  0.55988  0.65890  0.32435  1.0000
  C   C141      1.0  0.56871  0.67399  0.40342  1.0000
  C   C142      1.0  0.57473  0.70047  0.40386  1.0000
  C   C143      1.0  0.57186  0.71254  0.32568  1.0000
  C   C144      1.0  0.57631  0.73884  0.32805  1.0000
  C   C145      1.0  0.58324  0.79064  0.34319  1.0000
  C   C146      1.0  0.60251  0.78500  0.37658  1.0000
  C   C147      1.0  0.59899  0.75945  0.36975  1.0000
  C   C148      1.0  0.44060  0.54022  0.33089  1.0000
  C   C149      1.0  0.42692  0.53348  0.41291  1.0000
  C   C150      1.0  0.38745  0.52971  0.33967  1.0000
  C   C151      1.0  0.40073  0.52828  0.41705  1.0000
  C   C152      1.0  0.36143  0.52610  0.34514  1.0000
  C   C153      1.0  0.35457  0.53767  0.41530  1.0000
  C   C154      1.0  0.32930  0.53486  0.42016  1.0000
  H   H77       1.0  0.32569  0.54438  0.47054  1.0000
  H   H78       1.0  0.36822  0.54904  0.46249  1.0000
  H   H79       1.0  0.39149  0.52356  0.47774  1.0000
  H   H80       1.0  0.43611  0.53287  0.47047  1.0000
  H   H81       1.0  0.43557  0.49158  0.31165  1.0000
  H   H82       1.0  0.46036  0.46633  0.30970  1.0000
  H   H83       1.0  0.51424  0.54473  0.33597  1.0000
  H   H84       1.0  0.55450  0.58484  0.33554  1.0000
  H   H85       1.0  0.50640  0.63707  0.34162  1.0000
  H   H86       1.0  0.57026  0.66561  0.46165  1.0000
  H   H87       1.0  0.58025  0.71055  0.46300  1.0000
  H   H88       1.0  0.63316  0.63803  0.31195  1.0000
  H   H89       1.0  0.56238  0.49250  0.34149  1.0000
  H   H90       1.0  0.60588  0.53578  0.34310  1.0000
  H   H91       1.0  0.63262  0.59615  0.47105  1.0000
  H   H92       1.0  0.67741  0.60593  0.47836  1.0000
  H   H93       1.0  0.70138  0.58119  0.46176  1.0000
  H   H94       1.0  0.74429  0.58675  0.46983  1.0000
  H   H95       1.0  0.49909  0.46382  0.46188  1.0000
  H   H96       1.0  0.48963  0.41905  0.46317  1.0000
  H   H97       1.0  0.45199  0.33033  0.40839  1.0000
  H   H98       1.0  0.45702  0.37336  0.39700  1.0000
  H   H99       1.0  0.61323  0.75603  0.39559  1.0000
  H   H100      1.0  0.61922  0.79942  0.40674  1.0000
  C   C155      1.0  0.60257  0.05252  0.31837  1.0000
  C   C156      1.0  0.61631  0.07976  0.31701  1.0000
  C   C157      1.0  0.59815  0.08854  0.32434  1.0000
  N   N21       1.0  0.57415  0.06638  0.32909  1.0000
  C   C158      1.0  0.57571  0.04406  0.32607  1.0000
  C   C159      1.0  0.55522  0.01726  0.33046  1.0000
  C   C160      1.0  0.52786  0.00875  0.33279  1.0000
  N   N22       1.0  0.51628  0.02374  0.32758  1.0000
  C   C161      1.0  0.48969  0.00895  0.33100  1.0000
  C   C162      1.0  0.48383  0.98277  0.33869  1.0000
  C   C163      1.0  0.50734  0.98266  0.33992  1.0000
  C   C164      1.0  0.47103  0.01770  0.32702  1.0000
  C   C165      1.0  0.47764  0.04461  0.32414  1.0000
  N   N23       1.0  0.50165  0.06676  0.32904  1.0000
  C   C166      1.0  0.50008  0.08909  0.32610  1.0000
  C   C167      1.0  0.47322  0.08065  0.31806  1.0000
  C   C168      1.0  0.45948  0.05341  0.31656  1.0000
  C   C169      1.0  0.52057  0.11588  0.33078  1.0000
  C   C170      1.0  0.54793  0.12439  0.33305  1.0000
  N   N24       1.0  0.55950  0.10941  0.32785  1.0000
  C   C171      1.0  0.58610  0.12420  0.33112  1.0000
  C   C172      1.0  0.59196  0.15036  0.33877  1.0000
  C   C173      1.0  0.56845  0.15048  0.34004  1.0000
  C   C174      1.0  0.60475  0.11545  0.32710  1.0000
  C   C175      1.0  0.63198  0.13520  0.32577  1.0000
  C   C176      1.0  0.68540  0.17731  0.32603  1.0000
  C   C177      1.0  0.67362  0.16258  0.40466  1.0000
  C   C178      1.0  0.64724  0.14189  0.40473  1.0000
  C   C179      1.0  0.71153  0.19948  0.32791  1.0000
  C   C180      1.0  0.73246  0.19804  0.37017  1.0000
  C   C181      1.0  0.75781  0.22043  0.37663  1.0000
  C   C182      1.0  0.76291  0.24506  0.34223  1.0000
  C   C183      1.0  0.51329  0.13574  0.33378  1.0000
  C   C184      1.0  0.50216  0.17796  0.34263  1.0000
  C   C185      1.0  0.50132  0.16357  0.42017  1.0000
  C   C186      1.0  0.50682  0.14279  0.41600  1.0000
  C   C187      1.0  0.49810  0.20008  0.34801  1.0000
  C   C188      1.0  0.49131  0.24537  0.35783  1.0000
  C   C189      1.0  0.50636  0.24090  0.42254  1.0000
  C   C190      1.0  0.50972  0.21876  0.41765  1.0000
  C   C191      1.0  0.44379  0.99798  0.32582  1.0000
  C   C192      1.0  0.42858  0.99147  0.40461  1.0000
  C   C193      1.0  0.40210  0.97100  0.40451  1.0000
  C   C194      1.0  0.39016  0.95632  0.32605  1.0000
  C   C195      1.0  0.36385  0.93446  0.32784  1.0000
  C   C196      1.0  0.31203  0.88954  0.34191  1.0000
  C   C197      1.0  0.31761  0.91434  0.37552  1.0000
  C   C198      1.0  0.34317  0.93640  0.36921  1.0000
  C   C199      1.0  0.56247  0.99736  0.33328  1.0000
  C   C200      1.0  0.56919  0.99026  0.41532  1.0000
  C   C201      1.0  0.57298  0.95471  0.34213  1.0000
  C   C202      1.0  0.57440  0.96927  0.41950  1.0000
  C   C203      1.0  0.57658  0.93228  0.34765  1.0000
  C   C204      1.0  0.56500  0.91371  0.41782  1.0000
  C   C205      1.0  0.56778  0.89123  0.42266  1.0000
  C   C206      1.0  0.58225  0.88631  0.35745  1.0000
  H   H101      1.0  0.55827  0.87800  0.47308  1.0000
  H   H102      1.0  0.55362  0.91590  0.46497  1.0000
  H   H103      1.0  0.57909  0.96461  0.48022  1.0000
  H   H104      1.0  0.56980  0.99995  0.47287  1.0000
  H   H105      1.0  0.61112  0.04102  0.31418  1.0000
  H   H106      1.0  0.63636  0.09106  0.31196  1.0000
  H   H107      1.0  0.55795  0.06649  0.33777  1.0000
  H   H108      1.0  0.51784  0.06664  0.33845  1.0000
  H   H109      1.0  0.50888  0.96607  0.34551  1.0000
  H   H110      1.0  0.46561  0.96630  0.34364  1.0000
  H   H111      1.0  0.43686  0.00121  0.46302  1.0000
  H   H112      1.0  0.39191  0.96625  0.46345  1.0000
  H   H113      1.0  0.43943  0.04214  0.31130  1.0000
  H   H114      1.0  0.46467  0.09216  0.31382  1.0000
  H   H115      1.0  0.61019  0.16685  0.34340  1.0000
  H   H116      1.0  0.56691  0.16706  0.34543  1.0000
  H   H117      1.0  0.50652  0.13315  0.47360  1.0000
  H   H118      1.0  0.49675  0.16815  0.48097  1.0000
  H   H119      1.0  0.52149  0.21689  0.46439  1.0000
  H   H120      1.0  0.51595  0.25424  0.47247  1.0000
  H   H121      1.0  0.63905  0.13216  0.46328  1.0000
  H   H122      1.0  0.68383  0.16748  0.46373  1.0000
  H   H123      1.0  0.77247  0.21859  0.40723  1.0000
  H   H124      1.0  0.72942  0.18061  0.39677  1.0000
  H   H125      1.0  0.34655  0.95396  0.39524  1.0000
  H   H126      1.0  0.30314  0.91652  0.40548  1.0000
  C   C207      1.0  0.28447  0.51835  0.35791  1.0000
  C   C208      1.0  0.27127  0.51704  0.43832  1.0000
  C   C209      1.0  0.24688  0.51663  0.43721  1.0000
  C   C210      1.0  0.23606  0.51731  0.35264  1.0000
  H   H127      1.0  0.27945  0.51640  0.49811  1.0000
  C   C211      1.0  0.23441  0.51704  0.52317  1.0000
  H   H128      1.0  0.24674  0.51904  0.58089  1.0000
  H   H129      1.0  0.21572  0.49874  0.53140  1.0000
  H   H130      1.0  0.23086  0.53365  0.52392  1.0000
  C   C212      1.0  0.58430  0.86303  0.36051  1.0000
  C   C213      1.0  0.58562  0.85099  0.44093  1.0000
  C   C214      1.0  0.58604  0.82702  0.43987  1.0000
  C   C215      1.0  0.58536  0.81568  0.35531  1.0000
  H   H131      1.0  0.58625  0.85970  0.50072  1.0000
  C   C216      1.0  0.58562  0.81397  0.52584  1.0000
  H   H132      1.0  0.58362  0.82419  0.58354  1.0000
  H   H133      1.0  0.60392  0.81355  0.53410  1.0000
  H   H134      1.0  0.56901  0.79380  0.52659  1.0000
  C   C217      1.0  0.25155  0.83128  0.43856  1.0000
  C   C218      1.0  0.27551  0.85567  0.43793  1.0000
  C   C219      1.0  0.28699  0.86657  0.35357  1.0000
  H   H135      1.0  0.24275  0.82304  0.49819  1.0000
  C   C220      1.0  0.28845  0.86804  0.52414  1.0000
  H   H136      1.0  0.27815  0.85564  0.58164  1.0000
  H   H137      1.0  0.28886  0.88673  0.53251  1.0000
  H   H138      1.0  0.30862  0.87158  0.52518  1.0000
  C   C221      1.0  0.78540  0.61404  0.35825  1.0000
  C   C222      1.0  0.79872  0.61528  0.43868  1.0000
  C   C223      1.0  0.82339  0.61631  0.43758  1.0000
  C   C224      1.0  0.83438  0.61630  0.35298  1.0000
  H   H139      1.0  0.79040  0.61542  0.49851  1.0000
  C   C225      1.0  0.83600  0.61580  0.52349  1.0000
  H   H140      1.0  0.82356  0.61326  0.58114  1.0000
  H   H141      1.0  0.85447  0.63429  0.53243  1.0000
  H   H142      1.0  0.84001  0.59948  0.52359  1.0000
  C   C226      1.0  0.48867  0.26830  0.36091  1.0000
  C   C227      1.0  0.48741  0.28020  0.44136  1.0000
  C   C228      1.0  0.48637  0.30384  0.44026  1.0000
  C   C229      1.0  0.48636  0.31501  0.35566  1.0000
  H   H143      1.0  0.48727  0.27162  0.50118  1.0000
  C   C230      1.0  0.48687  0.31679  0.52618  1.0000
  H   H144      1.0  0.48943  0.30678  0.58382  1.0000
  H   H145      1.0  0.46838  0.31674  0.53512  1.0000
  H   H146      1.0  0.50318  0.33711  0.52627  1.0000
  C   C231      1.0  0.82265  0.30411  0.43896  1.0000
  C   C232      1.0  0.79901  0.27942  0.43836  1.0000
  C   C233      1.0  0.78771  0.26834  0.35399  1.0000
  H   H147      1.0  0.83132  0.31249  0.49862  1.0000
  C   C234      1.0  0.78620  0.26691  0.52455  1.0000
  H   H148      1.0  0.79630  0.27942  0.58197  1.0000
  H   H149      1.0  0.78625  0.24845  0.53361  1.0000
  H   H150      1.0  0.76588  0.26290  0.52496  1.0000
