data_image0
_chemical_formula_structural       C4H2C7H2C2H2CH2C5H4C6H4C3H2C3H2C2HC4H2C2H2C3H2C2HC3H2C6H4C3HC3HC2H2CHC2H2C4H2C2H2C2H2C2HC2H2C7H4C6H4C6H4C6H3C6H3C6H3C4H2C4H2C5H3C2H2C4H2C2H2C4H2C2H2C4H2
_chemical_formula_sum              "C144 H90"
_cell_length_a       46.4741
_cell_length_b       46.4741
_cell_length_c       14.6918
_cell_angle_alpha    90
_cell_angle_beta     90
_cell_angle_gamma    120

_space_group_name_H-M_alt    "P 1"
_space_group_IT_number       1

loop_
  _space_group_symop_operation_xyz
  'x, y, z'

loop_
  _atom_site_type_symbol
  _atom_site_label
  _atom_site_symmetry_multiplicity
  _atom_site_fract_x
  _atom_site_fract_y
  _atom_site_fract_z
  _atom_site_occupancy
  C   C1        1.0  0.03356  0.51940  0.35431  1.0000
  C   C2        1.0  0.10506  0.55515  0.35432  1.0000
  C   C3        1.0  0.08689  0.53452  0.28041  1.0000
  C   C4        1.0  0.05183  0.51735  0.27988  1.0000
  H   H1        1.0  0.09911  0.53226  0.22534  1.0000
  H   H2        1.0  0.03967  0.50268  0.22507  1.0000
  C   C5        1.0  0.21309  0.55718  0.33969  1.0000
  C   C6        1.0  0.19379  0.57313  0.34571  1.0000
  C   C7        1.0  0.21083  0.60804  0.35437  1.0000
  C   C8        1.0  0.19378  0.62591  0.36300  1.0000
  C   C9        1.0  0.15864  0.60810  0.36223  1.0000
  C   C10       1.0  0.14062  0.57293  0.35433  1.0000
  C   C11       1.0  0.15865  0.55579  0.34643  1.0000
  H   H3        1.0  0.14610  0.62094  0.36731  1.0000
  H   H4        1.0  0.14611  0.53041  0.34136  1.0000
  C   C12       1.0  0.05183  0.53971  0.42874  1.0000
  C   C13       1.0  0.08688  0.55761  0.42822  1.0000
  H   H5        1.0  0.03967  0.54222  0.48357  1.0000
  H   H6        1.0  0.09910  0.57208  0.48330  1.0000
  C   C14       1.0  0.21307  0.66116  0.36905  1.0000
  H   H7        1.0  0.20337  0.67058  0.23459  1.0000
  H   H8        1.0  0.20340  0.53804  0.47416  1.0000
  C   C15       1.0  0.23492  0.56431  0.26524  1.0000
  C   C16       1.0  0.26127  0.55763  0.26966  1.0000
  C   C17       1.0  0.26711  0.54397  0.34904  1.0000
  C   C18       1.0  0.31223  0.53533  0.28713  1.0000
  C   C19       1.0  0.34528  0.54184  0.29157  1.0000
  H   H9        1.0  0.29940  0.52610  0.22766  1.0000
  H   H10       1.0  0.35565  0.53808  0.23459  1.0000
  H   H11       1.0  0.23348  0.57698  0.21001  1.0000
  H   H12       1.0  0.27800  0.56582  0.21722  1.0000
  C   C20       1.0  0.36506  0.81315  0.33945  1.0000
  C   C21       1.0  0.35034  0.79133  0.26502  1.0000
  C   C22       1.0  0.31730  0.76497  0.26949  1.0000
  C   C23       1.0  0.29782  0.75914  0.34892  1.0000
  C   C24       1.0  0.24406  0.71402  0.28708  1.0000
  C   C25       1.0  0.21753  0.68096  0.29154  1.0000
  H   H13       1.0  0.24764  0.72684  0.22762  1.0000
  H   H14       1.0  0.36443  0.79276  0.20976  1.0000
  H   H15       1.0  0.30875  0.74824  0.21705  1.0000
  H   H16       1.0  0.23633  0.62080  0.35439  1.0000
  C   C26       1.0  0.41820  0.60803  0.35437  1.0000
  C   C27       1.0  0.40033  0.57311  0.36304  1.0000
  C   C28       1.0  0.41813  0.55578  0.36229  1.0000
  H   H17       1.0  0.40529  0.53040  0.36737  1.0000
  H   H18       1.0  0.40544  0.62078  0.35434  1.0000
  C   C29       1.0  0.40031  0.83245  0.34542  1.0000
  C   C30       1.0  0.41818  0.81540  0.35405  1.0000
  C   C31       1.0  0.41812  0.86759  0.34627  1.0000
  H   H19       1.0  0.40528  0.88013  0.34125  1.0000
  H   H20       1.0  0.40542  0.78989  0.35403  1.0000
  C   C32       1.0  0.24410  0.53535  0.42160  1.0000
  C   C33       1.0  0.21753  0.54182  0.41716  1.0000
  H   H21       1.0  0.24767  0.52604  0.48098  1.0000
  C   C34       1.0  0.29785  0.54398  0.35966  1.0000
  C   C35       1.0  0.36508  0.55717  0.36910  1.0000
  C   C36       1.0  0.35035  0.56427  0.44353  1.0000
  C   C37       1.0  0.31730  0.55756  0.43915  1.0000
  H   H22       1.0  0.36446  0.57690  0.49879  1.0000
  H   H23       1.0  0.30879  0.56577  0.49161  1.0000
  C   C38       1.0  0.31223  0.78215  0.42146  1.0000
  C   C39       1.0  0.34527  0.80872  0.41697  1.0000
  H   H24       1.0  0.29938  0.77858  0.48087  1.0000
  H   H25       1.0  0.35564  0.82285  0.47396  1.0000
  C   C40       1.0  0.26709  0.72839  0.35957  1.0000
  C   C41       1.0  0.23492  0.67589  0.44345  1.0000
  C   C42       1.0  0.26125  0.70895  0.43905  1.0000
  H   H26       1.0  0.23346  0.66179  0.49871  1.0000
  H   H27       1.0  0.27799  0.71746  0.49148  1.0000
  C   C43       1.0  0.47108  0.55514  0.35433  1.0000
  C   C44       1.0  0.49180  0.55768  0.28054  1.0000
  H   H28       1.0  0.49410  0.57221  0.22555  1.0000
  C   C45       1.0  0.47107  0.92116  0.35425  1.0000
  C   C46       1.0  0.46862  0.93935  0.28037  1.0000
  C   C47       1.0  0.48651  0.97441  0.27988  1.0000
  H   H29       1.0  0.45414  0.92714  0.22530  1.0000
  H   H30       1.0  0.48399  0.98657  0.22509  1.0000
  C   C48       1.0  0.46904  0.66114  0.33950  1.0000
  C   C49       1.0  0.46203  0.67588  0.26496  1.0000
  C   C50       1.0  0.46864  0.70889  0.26948  1.0000
  C   C51       1.0  0.48222  0.72836  0.34896  1.0000
  C   C52       1.0  0.49085  0.78211  0.28689  1.0000
  C   C53       1.0  0.48430  0.80862  0.29123  1.0000
  H   H31       1.0  0.50016  0.77854  0.22753  1.0000
  H   H32       1.0  0.48819  0.82285  0.23437  1.0000
  H   H33       1.0  0.44939  0.66177  0.20969  1.0000
  H   H34       1.0  0.46054  0.71747  0.21689  1.0000
  C   C54       1.0  0.45311  0.62590  0.34572  1.0000
  C   C55       1.0  0.45330  0.57292  0.35435  1.0000
  C   C56       1.0  0.47045  0.60809  0.34641  1.0000
  H   H35       1.0  0.49582  0.62094  0.34128  1.0000
  C   C57       1.0  0.45309  0.83243  0.36275  1.0000
  C   C58       1.0  0.47043  0.86758  0.36207  1.0000
  C   C59       1.0  0.45329  0.88561  0.35420  1.0000
  H   H36       1.0  0.49581  0.88011  0.36718  1.0000
  C   C60       1.0  0.48645  0.51727  0.42863  1.0000
  C   C61       1.0  0.46854  0.53442  0.42809  1.0000
  H   H37       1.0  0.48388  0.50254  0.48335  1.0000
  H   H38       1.0  0.45403  0.53212  0.48311  1.0000
  C   C62       1.0  0.49170  0.93933  0.42817  1.0000
  H   H39       1.0  0.49396  0.92710  0.48323  1.0000
  C   C63       1.0  0.49078  0.71395  0.42159  1.0000
  C   C64       1.0  0.48427  0.68090  0.41717  1.0000
  H   H40       1.0  0.50008  0.72681  0.48099  1.0000
  H   H41       1.0  0.48807  0.67053  0.47411  1.0000
  C   C65       1.0  0.48225  0.75912  0.35949  1.0000
  C   C66       1.0  0.46902  0.81312  0.36881  1.0000
  C   C67       1.0  0.46190  0.79130  0.44326  1.0000
  C   C68       1.0  0.46864  0.76498  0.43895  1.0000
  H   H42       1.0  0.44929  0.79280  0.49858  1.0000
  H   H43       1.0  0.46041  0.74824  0.49137  1.0000
  C   C69       1.0  0.97964  0.50365  0.27994  1.0000
  C   C70       1.0  0.94459  0.48648  0.28046  1.0000
  H   H44       1.0  0.99180  0.51833  0.22513  1.0000
  H   H45       1.0  0.93237  0.48875  0.22540  1.0000
  C   C71       1.0  0.52260  0.48124  0.27990  1.0000
  C   C72       1.0  0.53975  0.46334  0.28045  1.0000
  H   H46       1.0  0.50792  0.47872  0.22509  1.0000
  H   H47       1.0  0.53750  0.44887  0.22536  1.0000
  C   C73       1.0  0.50684  0.51940  0.35431  1.0000
  C   C74       1.0  0.50896  0.53979  0.27999  1.0000
  H   H48       1.0  0.52368  0.54236  0.22525  1.0000
  C   C75       1.0  0.54502  0.04658  0.28002  1.0000
  C   C76       1.0  0.56291  0.08164  0.28056  1.0000
  H   H49       1.0  0.54756  0.03443  0.22523  1.0000
  H   H50       1.0  0.57742  0.09387  0.22553  1.0000
  C   C77       1.0  0.50683  0.99267  0.35433  1.0000
  C   C78       1.0  0.81839  0.46381  0.33953  1.0000
  C   C79       1.0  0.79662  0.45679  0.26500  1.0000
  C   C80       1.0  0.77023  0.46341  0.26959  1.0000
  C   C81       1.0  0.76437  0.47700  0.34908  1.0000
  C   C82       1.0  0.71925  0.48565  0.28714  1.0000
  C   C83       1.0  0.68618  0.47909  0.29154  1.0000
  H   H51       1.0  0.73212  0.49498  0.22778  1.0000
  H   H52       1.0  0.67584  0.48299  0.23470  1.0000
  H   H53       1.0  0.79808  0.44414  0.20974  1.0000
  H   H54       1.0  0.75354  0.45530  0.21704  1.0000
  C   C84       1.0  0.56242  0.35982  0.33960  1.0000
  C   C85       1.0  0.56951  0.34511  0.26512  1.0000
  C   C86       1.0  0.56283  0.31207  0.26959  1.0000
  C   C87       1.0  0.54919  0.29259  0.34902  1.0000
  C   C88       1.0  0.54056  0.23884  0.28714  1.0000
  C   C89       1.0  0.54708  0.21230  0.29160  1.0000
  H   H55       1.0  0.53132  0.24243  0.22768  1.0000
  H   H56       1.0  0.54331  0.19815  0.23463  1.0000
  H   H57       1.0  0.58217  0.35921  0.20986  1.0000
  H   H58       1.0  0.57100  0.30352  0.21712  1.0000
  C   C90       1.0  0.66639  0.20787  0.33956  1.0000
  C   C91       1.0  0.68112  0.22963  0.26502  1.0000
  C   C92       1.0  0.71414  0.25603  0.26959  1.0000
  C   C93       1.0  0.73360  0.26188  0.34906  1.0000
  C   C94       1.0  0.78736  0.30700  0.28707  1.0000
  C   C95       1.0  0.81387  0.34006  0.29145  1.0000
  H   H59       1.0  0.78380  0.29412  0.22770  1.0000
  H   H60       1.0  0.82811  0.35040  0.23461  1.0000
  H   H61       1.0  0.66701  0.22817  0.20977  1.0000
  H   H62       1.0  0.72272  0.27271  0.21704  1.0000
  C   C96       1.0  0.83769  0.44788  0.34563  1.0000
  C   C97       1.0  0.82064  0.41296  0.35429  1.0000
  C   C98       1.0  0.83768  0.39508  0.36299  1.0000
  C   C99       1.0  0.87282  0.41288  0.36226  1.0000
  C   C100      1.0  0.89085  0.44805  0.35433  1.0000
  C   C101      1.0  0.87283  0.46520  0.34639  1.0000
  H   H63       1.0  0.88535  0.40003  0.36735  1.0000
  H   H64       1.0  0.88538  0.49058  0.34129  1.0000
  H   H65       1.0  0.79514  0.40021  0.35426  1.0000
  C   C102      1.0  0.57837  0.39506  0.34563  1.0000
  C   C103      1.0  0.61328  0.41293  0.35435  1.0000
  C   C104      1.0  0.63116  0.44785  0.36307  1.0000
  C   C105      1.0  0.61336  0.46519  0.36227  1.0000
  C   C106      1.0  0.57819  0.44805  0.35433  1.0000
  C   C107      1.0  0.56104  0.41288  0.34640  1.0000
  H   H66       1.0  0.62621  0.49056  0.36735  1.0000
  H   H67       1.0  0.53566  0.40004  0.34131  1.0000
  H   H68       1.0  0.62603  0.40017  0.35436  1.0000
  C   C108      1.0  0.63115  0.18855  0.34567  1.0000
  C   C109      1.0  0.61327  0.20558  0.35435  1.0000
  C   C110      1.0  0.57836  0.18854  0.36308  1.0000
  C   C111      1.0  0.56103  0.15339  0.36232  1.0000
  C   C112      1.0  0.57818  0.13537  0.35439  1.0000
  C   C113      1.0  0.61335  0.15340  0.34644  1.0000
  H   H69       1.0  0.53565  0.14086  0.36742  1.0000
  H   H70       1.0  0.62620  0.14088  0.34135  1.0000
  H   H71       1.0  0.62602  0.23109  0.35433  1.0000
  C   C114      1.0  0.92641  0.46582  0.35432  1.0000
  C   C115      1.0  0.94459  0.46332  0.42816  1.0000
  C   C116      1.0  0.97964  0.48122  0.42869  1.0000
  C   C117      1.0  0.99791  0.50157  0.35431  1.0000
  H   H72       1.0  0.93236  0.44885  0.48324  1.0000
  H   H73       1.0  0.99180  0.47870  0.48350  1.0000
  C   C118      1.0  0.56042  0.46583  0.35431  1.0000
  C   C119      1.0  0.56290  0.48649  0.42817  1.0000
  C   C120      1.0  0.54500  0.50365  0.42869  1.0000
  C   C121      1.0  0.52466  0.50158  0.35430  1.0000
  H   H74       1.0  0.57738  0.48875  0.48324  1.0000
  H   H75       1.0  0.54752  0.51833  0.48351  1.0000
  C   C122      1.0  0.56041  0.09982  0.35439  1.0000
  C   C123      1.0  0.53971  0.08163  0.42820  1.0000
  C   C124      1.0  0.52255  0.04657  0.42871  1.0000
  C   C125      1.0  0.52465  0.02831  0.35435  1.0000
  C   C126      1.0  0.50887  0.97439  0.42873  1.0000
  H   H76       1.0  0.52354  0.98653  0.48356  1.0000
  H   H77       1.0  0.53744  0.09385  0.48326  1.0000
  H   H78       1.0  0.50785  0.03441  0.48349  1.0000
  C   C127      1.0  0.78736  0.48558  0.42167  1.0000
  C   C128      1.0  0.81390  0.47907  0.41720  1.0000
  H   H79       1.0  0.78381  0.49488  0.48107  1.0000
  H   H80       1.0  0.82809  0.48287  0.47410  1.0000
  C   C129      1.0  0.73364  0.47703  0.35968  1.0000
  C   C130      1.0  0.66641  0.46378  0.36910  1.0000
  C   C131      1.0  0.68111  0.45664  0.44350  1.0000
  C   C132      1.0  0.71418  0.46339  0.43914  1.0000
  H   H81       1.0  0.66702  0.44401  0.49880  1.0000
  H   H82       1.0  0.72270  0.45515  0.49151  1.0000
  C   C133      1.0  0.54061  0.30700  0.42160  1.0000
  C   C134      1.0  0.54708  0.34004  0.41714  1.0000
  H   H83       1.0  0.53133  0.29415  0.48101  1.0000
  H   H84       1.0  0.54333  0.35042  0.47415  1.0000
  C   C135      1.0  0.54921  0.26186  0.35966  1.0000
  C   C136      1.0  0.56241  0.20783  0.36912  1.0000
  C   C137      1.0  0.56951  0.22967  0.44353  1.0000
  C   C138      1.0  0.56280  0.25601  0.43914  1.0000
  H   H85       1.0  0.58215  0.22820  0.49880  1.0000
  H   H86       1.0  0.57102  0.27274  0.49159  1.0000
  C   C139      1.0  0.71919  0.23889  0.42166  1.0000
  C   C140      1.0  0.68614  0.21235  0.41721  1.0000
  H   H87       1.0  0.73205  0.24244  0.48104  1.0000
  H   H88       1.0  0.67576  0.19816  0.47411  1.0000
  C   C141      1.0  0.76436  0.29260  0.35964  1.0000
  C   C142      1.0  0.81836  0.35983  0.36903  1.0000
  C   C143      1.0  0.79653  0.34514  0.44345  1.0000
  C   C144      1.0  0.77021  0.31207  0.43911  1.0000
  H   H89       1.0  0.79801  0.35923  0.49876  1.0000
  H   H90       1.0  0.75345  0.30356  0.49150  1.0000
