data_image0
_chemical_formula_structural       C8H6NC2H2C8H6NC2H2C3NC3NC5NC5NC20H18N4C8H8C10H4CNCNHCHCHC10H4CNCNHCHCHC18H10CNCNCNHCHC2H3C18H10CNCNCNHCHC2H3C8H8C3NC3NC5NC5NC20H18N4
_chemical_formula_sum              "C184 H112 N28"
_cell_length_a       42.9099
_cell_length_b       42.9126
_cell_length_c       14.9238
_cell_angle_alpha    90
_cell_angle_beta     90
_cell_angle_gamma    89.982

_space_group_name_H-M_alt    "P 1"
_space_group_IT_number       1

loop_
  _space_group_symop_operation_xyz
  'x, y, z'

loop_
  _atom_site_type_symbol
  _atom_site_label
  _atom_site_symmetry_multiplicity
  _atom_site_fract_x
  _atom_site_fract_y
  _atom_site_fract_z
  _atom_site_occupancy
  C   C1        1.0  0.30085  0.12675  0.34137  1.0000
  C   C2        1.0  0.23529  0.11303  0.34923  1.0000
  C   C3        1.0  0.24631  0.14398  0.35632  1.0000
  C   C4        1.0  0.27839  0.15070  0.35187  1.0000
  C   C5        1.0  0.36617  0.22782  0.34432  1.0000
  C   C6        1.0  0.37742  0.25864  0.33873  1.0000
  C   C7        1.0  0.42196  0.03546  0.32881  1.0000
  C   C8        1.0  0.39978  0.05959  0.33422  1.0000
  H   H1        1.0  0.23102  0.16205  0.36542  1.0000
  H   H2        1.0  0.28513  0.17347  0.35816  1.0000
  H   H3        1.0  0.34275  0.22457  0.35306  1.0000
  H   H4        1.0  0.36188  0.27670  0.34257  1.0000
  H   H5        1.0  0.41433  0.01285  0.32988  1.0000
  H   H6        1.0  0.37677  0.05356  0.33906  1.0000
  N   N1        1.0  0.34431  0.16344  0.34012  1.0000
  C   C9        1.0  0.33348  0.13356  0.33963  1.0000
  C   C10       1.0  0.20366  0.10684  0.35882  1.0000
  H   H7        1.0  0.19111  0.12072  0.39830  1.0000
  H   H8        1.0  0.46985  0.00082  0.27047  1.0000
  C   C11       1.0  0.67620  0.90516  0.33359  1.0000
  C   C12       1.0  0.74189  0.91821  0.34275  1.0000
  C   C13       1.0  0.73053  0.88736  0.34941  1.0000
  C   C14       1.0  0.69839  0.88098  0.34438  1.0000
  C   C15       1.0  0.60931  0.80494  0.34380  1.0000
  C   C16       1.0  0.59732  0.77449  0.35297  1.0000
  C   C17       1.0  0.55608  0.99805  0.34015  1.0000
  C   C18       1.0  0.57802  0.97369  0.33474  1.0000
  H   H9        1.0  0.74560  0.86914  0.35886  1.0000
  H   H10       1.0  0.69139  0.85829  0.35067  1.0000
  H   H11       1.0  0.63296  0.80766  0.34070  1.0000
  H   H12       1.0  0.61260  0.75622  0.35700  1.0000
  H   H13       1.0  0.56390  0.02058  0.33837  1.0000
  H   H14       1.0  0.60107  0.97946  0.32923  1.0000
  N   N2        1.0  0.63223  0.86903  0.33500  1.0000
  C   C19       1.0  0.64348  0.89876  0.33274  1.0000
  C   C20       1.0  0.77355  0.92408  0.35322  1.0000
  H   H15       1.0  0.78587  0.91001  0.39275  1.0000
  H   H16       1.0  0.50835  0.03313  0.39932  1.0000
  C   C21       1.0  0.07029  0.95841  0.31388  1.0000
  C   C22       1.0  0.08418  0.98742  0.31471  1.0000
  C   C23       1.0  0.06073  0.01004  0.31378  1.0000
  N   N3        1.0  0.03357  0.99384  0.31327  1.0000
  C   C24       1.0  0.03797  0.96251  0.31360  1.0000
  C   C25       1.0  0.01570  0.93789  0.31328  1.0000
  C   C26       1.0  0.98285  0.94229  0.31314  1.0000
  N   N4        1.0  0.96687  0.96947  0.31316  1.0000
  C   C27       1.0  0.93568  0.96490  0.31335  1.0000
  C   C28       1.0  0.93138  0.93264  0.31312  1.0000
  C   C29       1.0  0.96039  0.91873  0.31371  1.0000
  C   C30       1.0  0.91167  0.98775  0.31333  1.0000
  C   C31       1.0  0.91689  0.02054  0.31346  1.0000
  N   N5        1.0  0.94406  0.03674  0.31337  1.0000
  C   C32       1.0  0.93965  0.06807  0.31400  1.0000
  C   C33       1.0  0.90734  0.07217  0.31406  1.0000
  C   C34       1.0  0.89345  0.04316  0.31445  1.0000
  C   C35       1.0  0.96192  0.09270  0.31408  1.0000
  C   C36       1.0  0.99476  0.08830  0.31393  1.0000
  N   N6        1.0  0.01075  0.06112  0.31371  1.0000
  C   C37       1.0  0.04194  0.06568  0.31416  1.0000
  C   C38       1.0  0.04623  0.09795  0.31430  1.0000
  C   C39       1.0  0.01723  0.11185  0.31490  1.0000
  C   C40       1.0  0.06595  0.04283  0.31413  1.0000
  C   C41       1.0  0.09746  0.05366  0.31546  1.0000
  C   C42       1.0  0.16025  0.07543  0.31839  1.0000
  C   C43       1.0  0.14703  0.06355  0.23880  1.0000
  C   C44       1.0  0.11590  0.05313  0.23696  1.0000
  C   C45       1.0  0.95060  0.12404  0.31535  1.0000
  C   C46       1.0  0.92845  0.18672  0.31852  1.0000
  C   C47       1.0  0.94042  0.17360  0.23891  1.0000
  C   C48       1.0  0.95104  0.14254  0.23695  1.0000
  C   C49       1.0  0.88015  0.97693  0.31372  1.0000
  C   C50       1.0  0.86195  0.97768  0.23477  1.0000
  C   C51       1.0  0.83079  0.96735  0.23564  1.0000
  C   C52       1.0  0.81730  0.95533  0.31465  1.0000
  C   C53       1.0  0.02700  0.90653  0.31402  1.0000
  C   C54       1.0  0.02648  0.88819  0.23533  1.0000
  C   C55       1.0  0.04876  0.84372  0.31631  1.0000
  C   C56       1.0  0.03691  0.85706  0.23685  1.0000
  H   H17       1.0  0.03603  0.84422  0.17910  1.0000
  H   H18       1.0  0.01817  0.89728  0.17659  1.0000
  H   H19       1.0  0.08228  0.93783  0.31385  1.0000
  H   H20       1.0  0.10772  0.99096  0.31572  1.0000
  H   H21       1.0  0.01339  0.00351  0.31275  1.0000
  H   H22       1.0  0.96423  0.02707  0.31292  1.0000
  H   H23       1.0  0.96406  0.89521  0.31427  1.0000
  H   H24       1.0  0.91074  0.92077  0.31292  1.0000
  H   H25       1.0  0.87120  0.98602  0.17628  1.0000
  H   H26       1.0  0.81808  0.96835  0.17767  1.0000
  H   H27       1.0  0.86990  0.03961  0.31525  1.0000
  H   H28       1.0  0.89534  0.09274  0.31420  1.0000
  H   H29       1.0  0.06688  0.10981  0.31442  1.0000
  H   H30       1.0  0.01355  0.13538  0.31575  1.0000
  H   H31       1.0  0.95940  0.13359  0.17808  1.0000
  H   H32       1.0  0.94123  0.18655  0.18134  1.0000
  H   H33       1.0  0.10684  0.04494  0.17805  1.0000
  H   H34       1.0  0.15991  0.06276  0.18111  1.0000
  N   N7        1.0  0.91931  0.21642  0.31694  1.0000
  N   N8        1.0  0.78755  0.94641  0.31198  1.0000
  N   N9        1.0  0.05768  0.81395  0.31438  1.0000
  N   N10       1.0  0.18996  0.08454  0.31664  1.0000
  C   C57       1.0  0.36539  0.56284  0.28247  1.0000
  C   C58       1.0  0.33445  0.57370  0.28177  1.0000
  C   C59       1.0  0.54117  0.63603  0.27268  1.0000
  C   C60       1.0  0.55264  0.66676  0.26924  1.0000
  C   C61       1.0  0.64176  0.45791  0.28185  1.0000
  C   C62       1.0  0.61094  0.46912  0.28303  1.0000
  C   C63       1.0  0.44133  0.39376  0.28428  1.0000
  C   C64       1.0  0.43005  0.36298  0.28241  1.0000
  H   H35       1.0  0.42583  0.35275  0.22172  1.0000
  H   H36       1.0  0.44529  0.40511  0.22503  1.0000
  H   H37       1.0  0.59973  0.47304  0.22354  1.0000
  H   H38       1.0  0.65215  0.45373  0.22136  1.0000
  H   H39       1.0  0.54131  0.62282  0.21557  1.0000
  H   H40       1.0  0.56077  0.67528  0.20958  1.0000
  H   H41       1.0  0.32381  0.57763  0.22149  1.0000
  H   H42       1.0  0.37649  0.55886  0.22282  1.0000
  C   C65       1.0  0.38649  0.20190  0.33642  1.0000
  C   C66       1.0  0.40885  0.09133  0.33207  1.0000
  C   C67       1.0  0.28961  0.09578  0.33383  1.0000
  C   C68       1.0  0.25750  0.08901  0.33756  1.0000
  C   C69       1.0  0.40945  0.26456  0.32458  1.0000
  C   C70       1.0  0.42989  0.23890  0.31752  1.0000
  C   C71       1.0  0.41864  0.20822  0.32398  1.0000
  C   C72       1.0  0.44117  0.09782  0.32486  1.0000
  C   C73       1.0  0.46337  0.07376  0.31930  1.0000
  C   C74       1.0  0.45413  0.04216  0.32171  1.0000
  H   H43       1.0  0.43441  0.19049  0.31716  1.0000
  H   H44       1.0  0.45322  0.24227  0.30646  1.0000
  H   H45       1.0  0.44906  0.12029  0.32210  1.0000
  H   H46       1.0  0.48636  0.07960  0.31201  1.0000
  C   C75       1.0  0.38637  0.11587  0.33560  1.0000
  N   N11       1.0  0.39544  0.14619  0.33594  1.0000
  C   C76       1.0  0.37523  0.17055  0.33839  1.0000
  N   N12       1.0  0.35515  0.11036  0.33730  1.0000
  H   H47       1.0  0.30474  0.07754  0.32628  1.0000
  C   C77       1.0  0.47551  0.01796  0.31239  1.0000
  H   H48       1.0  0.25057  0.06623  0.33367  1.0000
  C   C78       1.0  0.42093  0.29435  0.31137  1.0000
  H   H49       1.0  0.43607  0.29762  0.26168  1.0000
  C   C79       1.0  0.58935  0.83127  0.34147  1.0000
  C   C80       1.0  0.56864  0.94204  0.33782  1.0000
  C   C81       1.0  0.68779  0.93602  0.32625  1.0000
  C   C82       1.0  0.71995  0.94244  0.33063  1.0000
  C   C83       1.0  0.56487  0.76931  0.36032  1.0000
  C   C84       1.0  0.54483  0.79540  0.35665  1.0000
  C   C85       1.0  0.55683  0.82568  0.34697  1.0000
  C   C86       1.0  0.53629  0.93589  0.34614  1.0000
  C   C87       1.0  0.51434  0.96017  0.35175  1.0000
  C   C88       1.0  0.52387  0.99167  0.34824  1.0000
  H   H50       1.0  0.54124  0.84371  0.34594  1.0000
  H   H51       1.0  0.52119  0.79267  0.36229  1.0000
  H   H52       1.0  0.52817  0.91351  0.34970  1.0000
  H   H53       1.0  0.49132  0.95456  0.35977  1.0000
  C   C89       1.0  0.59084  0.91723  0.33487  1.0000
  N   N13       1.0  0.58138  0.88706  0.33685  1.0000
  C   C90       1.0  0.60121  0.86237  0.33658  1.0000
  N   N14       1.0  0.62214  0.92229  0.33307  1.0000
  H   H54       1.0  0.67286  0.95443  0.31869  1.0000
  C   C91       1.0  0.50266  0.01603  0.35733  1.0000
  H   H55       1.0  0.72712  0.96516  0.32702  1.0000
  C   C92       1.0  0.55229  0.74007  0.37659  1.0000
  H   H56       1.0  0.53370  0.73873  0.41638  1.0000
  C   C93       1.0  0.80255  0.41342  0.33776  1.0000
  C   C94       1.0  0.87742  0.32744  0.34226  1.0000
  C   C95       1.0  0.91323  0.43529  0.33346  1.0000
  C   C96       1.0  0.90836  0.31610  0.33443  1.0000
  C   C97       1.0  0.91503  0.28397  0.33804  1.0000
  C   C98       1.0  0.89097  0.26183  0.34991  1.0000
  C   C99       1.0  0.86006  0.27296  0.35732  1.0000
  C   C100      1.0  0.85342  0.30506  0.35296  1.0000
  C   C101      1.0  0.77653  0.39321  0.34531  1.0000
  C   C102      1.0  0.74575  0.40461  0.33967  1.0000
  C   C103      1.0  0.73998  0.43668  0.32573  1.0000
  C   C104      1.0  0.76573  0.45702  0.31913  1.0000
  C   C105      1.0  0.79636  0.44562  0.32571  1.0000
  C   C106      1.0  0.90687  0.46764  0.32644  1.0000
  C   C107      1.0  0.93101  0.48975  0.32136  1.0000
  C   C108      1.0  0.96259  0.48038  0.32401  1.0000
  C   C109      1.0  0.96916  0.44818  0.33073  1.0000
  C   C110      1.0  0.94494  0.42609  0.33570  1.0000
  H   H57       1.0  0.84196  0.25773  0.36658  1.0000
  H   H58       1.0  0.83068  0.31188  0.35949  1.0000
  H   H59       1.0  0.81416  0.46131  0.31913  1.0000
  H   H60       1.0  0.77968  0.36976  0.35365  1.0000
  H   H61       1.0  0.72762  0.38915  0.34298  1.0000
  H   H62       1.0  0.76246  0.48037  0.30823  1.0000
  H   H63       1.0  0.88443  0.47564  0.32364  1.0000
  H   H64       1.0  0.99174  0.44045  0.33193  1.0000
  H   H65       1.0  0.95088  0.40305  0.34039  1.0000
  H   H66       1.0  0.92526  0.51278  0.31430  1.0000
  C   C111      1.0  0.88859  0.41292  0.33679  1.0000
  N   N15       1.0  0.85830  0.42212  0.33722  1.0000
  C   C112      1.0  0.83385  0.40201  0.33961  1.0000
  N   N16       1.0  0.84086  0.37106  0.34121  1.0000
  C   C113      1.0  0.87070  0.36010  0.34062  1.0000
  N   N17       1.0  0.89398  0.38168  0.33837  1.0000
  H   H67       1.0  0.92663  0.33117  0.32670  1.0000
  C   C114      1.0  0.98687  0.50170  0.31533  1.0000
  H   H68       1.0  0.93780  0.27696  0.33391  1.0000
  C   C115      1.0  0.89709  0.23018  0.35939  1.0000
  C   C116      1.0  0.71025  0.44830  0.31201  1.0000
  H   H69       1.0  0.70714  0.46330  0.26188  1.0000
  H   H70       1.0  0.88328  0.21768  0.39917  1.0000
  H   H71       1.0  0.00403  0.49611  0.27339  1.0000
  C   C117      1.0  0.17347  0.61650  0.33872  1.0000
  C   C118      1.0  0.09894  0.70267  0.33991  1.0000
  C   C119      1.0  0.06268  0.59490  0.34393  1.0000
  C   C120      1.0  0.06805  0.71417  0.33242  1.0000
  C   C121      1.0  0.06157  0.74634  0.33568  1.0000
  C   C122      1.0  0.08578  0.76836  0.34686  1.0000
  C   C123      1.0  0.11665  0.75708  0.35368  1.0000
  C   C124      1.0  0.12310  0.72493  0.34967  1.0000
  C   C125      1.0  0.19948  0.63682  0.34310  1.0000
  C   C126      1.0  0.23025  0.62536  0.33800  1.0000
  C   C127      1.0  0.23603  0.59312  0.32789  1.0000
  C   C128      1.0  0.21027  0.57269  0.32437  1.0000
  C   C129      1.0  0.17964  0.58416  0.33037  1.0000
  C   C130      1.0  0.06892  0.56254  0.35122  1.0000
  C   C131      1.0  0.04470  0.54051  0.35583  1.0000
  C   C132      1.0  0.01316  0.54997  0.35238  1.0000
  C   C133      1.0  0.00670  0.58218  0.34528  1.0000
  C   C134      1.0  0.03100  0.60420  0.34079  1.0000
  H   H72       1.0  0.13485  0.77221  0.36252  1.0000
  H   H73       1.0  0.14581  0.71800  0.35604  1.0000
  H   H74       1.0  0.16183  0.56838  0.32628  1.0000
  H   H75       1.0  0.19635  0.66036  0.34880  1.0000
  H   H76       1.0  0.24836  0.64089  0.33910  1.0000
  H   H77       1.0  0.21353  0.54920  0.31636  1.0000
  H   H78       1.0  0.09133  0.55448  0.35474  1.0000
  H   H79       1.0  0.98414  0.58997  0.34355  1.0000
  H   H80       1.0  0.02515  0.62725  0.33591  1.0000
  H   H81       1.0  0.05036  0.51747  0.36325  1.0000
  C   C135      1.0  0.08740  0.61720  0.34153  1.0000
  N   N18       1.0  0.11766  0.60789  0.34135  1.0000
  C   C136      1.0  0.14217  0.62794  0.34040  1.0000
  N   N19       1.0  0.13526  0.65891  0.33964  1.0000
  C   C137      1.0  0.10546  0.66997  0.33954  1.0000
  N   N20       1.0  0.08210  0.64847  0.34059  1.0000
  H   H82       1.0  0.04968  0.69917  0.32543  1.0000
  C   C138      1.0  0.98882  0.52872  0.36089  1.0000
  H   H83       1.0  0.03883  0.75347  0.33202  1.0000
  C   C139      1.0  0.07987  0.80004  0.35648  1.0000
  C   C140      1.0  0.26576  0.58136  0.31520  1.0000
  H   H84       1.0  0.26879  0.56530  0.26781  1.0000
  H   H85       1.0  0.09382  0.81244  0.39613  1.0000
  H   H86       1.0  0.97168  0.53432  0.40288  1.0000
  C   C141      1.0  0.11087  0.06491  0.39570  1.0000
  C   C142      1.0  0.14185  0.07569  0.39710  1.0000
  C   C143      1.0  0.93920  0.13733  0.39558  1.0000
  C   C144      1.0  0.92822  0.16825  0.39711  1.0000
  C   C145      1.0  0.83545  0.95482  0.39381  1.0000
  C   C146      1.0  0.86648  0.96552  0.39340  1.0000
  C   C147      1.0  0.03830  0.89304  0.39408  1.0000
  C   C148      1.0  0.04910  0.86205  0.39516  1.0000
  H   H87       1.0  0.05670  0.85278  0.45438  1.0000
  H   H88       1.0  0.03859  0.90566  0.45229  1.0000
  H   H89       1.0  0.87901  0.96498  0.45174  1.0000
  H   H90       1.0  0.82607  0.94705  0.45271  1.0000
  H   H91       1.0  0.93892  0.12459  0.45358  1.0000
  H   H92       1.0  0.92051  0.17736  0.45643  1.0000
  H   H93       1.0  0.15103  0.08335  0.45639  1.0000
  H   H94       1.0  0.09815  0.06528  0.45372  1.0000
  C   C149      1.0  0.40539  0.46151  0.36933  1.0000
  C   C150      1.0  0.39226  0.49089  0.36878  1.0000
  C   C151      1.0  0.41633  0.51284  0.36743  1.0000
  N   N21       1.0  0.44305  0.49595  0.36777  1.0000
  C   C152      1.0  0.43779  0.46478  0.36861  1.0000
  C   C153      1.0  0.45944  0.43965  0.36830  1.0000
  C   C154      1.0  0.49236  0.44305  0.36753  1.0000
  N   N22       1.0  0.50902  0.46978  0.36741  1.0000
  C   C155      1.0  0.54004  0.46433  0.36630  1.0000
  C   C156      1.0  0.54353  0.43197  0.36602  1.0000
  C   C157      1.0  0.51415  0.41886  0.36666  1.0000
  C   C158      1.0  0.56455  0.48656  0.36596  1.0000
  C   C159      1.0  0.56026  0.51946  0.36484  1.0000
  N   N23       1.0  0.53356  0.53635  0.36109  1.0000
  C   C160      1.0  0.53882  0.56752  0.36048  1.0000
  C   C161      1.0  0.57120  0.57078  0.36448  1.0000
  C   C162      1.0  0.58431  0.54140  0.36692  1.0000
  C   C163      1.0  0.51721  0.59268  0.35692  1.0000
  C   C164      1.0  0.48427  0.58923  0.35744  1.0000
  N   N24       1.0  0.46762  0.56253  0.36215  1.0000
  C   C165      1.0  0.43657  0.56793  0.36160  1.0000
  C   C166      1.0  0.43306  0.60023  0.35642  1.0000
  C   C167      1.0  0.46242  0.61333  0.35335  1.0000
  C   C168      1.0  0.41206  0.54573  0.36509  1.0000
  C   C169      1.0  0.38090  0.55731  0.36444  1.0000
  C   C170      1.0  0.31823  0.57911  0.36290  1.0000
  C   C171      1.0  0.33405  0.57422  0.44464  1.0000
  C   C172      1.0  0.36498  0.56324  0.44556  1.0000
  C   C173      1.0  0.52935  0.62364  0.35360  1.0000
  C   C174      1.0  0.55208  0.68598  0.34598  1.0000
  C   C175      1.0  0.54082  0.67330  0.42736  1.0000
  C   C176      1.0  0.52958  0.64252  0.43116  1.0000
  C   C177      1.0  0.59569  0.47494  0.36521  1.0000
  C   C178      1.0  0.61173  0.46896  0.44609  1.0000
  C   C179      1.0  0.64256  0.45765  0.44467  1.0000
  C   C180      1.0  0.65814  0.45243  0.36270  1.0000
  C   C181      1.0  0.44733  0.40871  0.36679  1.0000
  C   C182      1.0  0.44142  0.39243  0.44733  1.0000
  C   C183      1.0  0.42469  0.34636  0.36292  1.0000
  C   C184      1.0  0.43004  0.36166  0.44524  1.0000
  H   H95       1.0  0.42624  0.35024  0.50446  1.0000
  H   H96       1.0  0.44557  0.40281  0.50793  1.0000
  H   H97       1.0  0.39291  0.44122  0.36980  1.0000
  H   H98       1.0  0.36883  0.49513  0.36844  1.0000
  H   H99       1.0  0.46347  0.50507  0.36692  1.0000
  H   H100      1.0  0.51318  0.52722  0.35705  1.0000
  H   H101      1.0  0.50978  0.39544  0.36656  1.0000
  H   H102      1.0  0.56388  0.41960  0.36531  1.0000
  H   H103      1.0  0.60112  0.47291  0.50647  1.0000
  H   H104      1.0  0.65379  0.45377  0.50415  1.0000
  H   H105      1.0  0.60772  0.53716  0.37009  1.0000
  H   H106      1.0  0.58369  0.59105  0.36587  1.0000
  H   H107      1.0  0.41269  0.61256  0.35432  1.0000
  H   H108      1.0  0.46672  0.63670  0.34883  1.0000
  H   H109      1.0  0.52134  0.63406  0.49075  1.0000
  H   H110      1.0  0.54069  0.68642  0.48457  1.0000
  H   H111      1.0  0.37576  0.55945  0.50578  1.0000
  H   H112      1.0  0.32291  0.57809  0.50428  1.0000
  N   N25       1.0  0.56241  0.71517  0.33825  1.0000
  N   N26       1.0  0.68751  0.44225  0.36543  1.0000
  N   N27       1.0  0.41462  0.31696  0.36500  1.0000
  N   N28       1.0  0.28879  0.58901  0.36583  1.0000
