data_image0
_chemical_formula_structural       C8H8C7H3NH2CH3C7H3NH2CH3C3NC3NC5NC5NC20H18NHNHNHNHC2H2C3HNH2CHC2H2C3HNH2CH
_chemical_formula_sum              "C72 H58 N12"
_cell_length_a       29.6469
_cell_length_b       29.6454
_cell_length_c       15.023
_cell_angle_alpha    90
_cell_angle_beta     90
_cell_angle_gamma    89.974

_space_group_name_H-M_alt    "P 1"
_space_group_IT_number       1

loop_
  _space_group_symop_operation_xyz
  'x, y, z'

loop_
  _atom_site_type_symbol
  _atom_site_label
  _atom_site_symmetry_multiplicity
  _atom_site_fract_x
  _atom_site_fract_y
  _atom_site_fract_z
  _atom_site_occupancy
  C   C1        1.0  0.01655  0.23528  0.27919  1.0000
  C   C2        1.0  0.01321  0.18799  0.28185  1.0000
  C   C3        1.0  0.23016  0.97834  0.25988  1.0000
  C   C4        1.0  0.18342  0.98393  0.27077  1.0000
  C   C5        1.0  0.98383  0.81573  0.27067  1.0000
  C   C6        1.0  0.97881  0.76894  0.25954  1.0000
  C   C7        1.0  0.81103  0.01330  0.28206  1.0000
  C   C8        1.0  0.76376  0.01695  0.27942  1.0000
  H   H1        1.0  0.74778  0.01893  0.21919  1.0000
  H   H2        1.0  0.82874  0.01271  0.22356  1.0000
  H   H3        1.0  0.98365  0.83614  0.21568  1.0000
  H   H4        1.0  0.97498  0.75609  0.19684  1.0000
  H   H5        1.0  0.16308  0.98395  0.21568  1.0000
  H   H6        1.0  0.24304  0.97429  0.19726  1.0000
  H   H7        1.0  0.01299  0.17026  0.22337  1.0000
  H   H8        1.0  0.01867  0.25125  0.21896  1.0000
  C   C9        1.0  0.00199  0.61905  0.28947  1.0000
  C   C10       1.0  0.99123  0.59182  0.21527  1.0000
  C   C11       1.0  0.98352  0.54487  0.22379  1.0000
  C   C12       1.0  0.98714  0.52493  0.30979  1.0000
  C   C13       1.0  0.98296  0.47777  0.32416  1.0000
  C   C14       1.0  0.01875  0.45001  0.29499  1.0000
  C   C15       1.0  0.01830  0.40344  0.31132  1.0000
  H   H9        1.0  0.04588  0.46357  0.26229  1.0000
  H   H10       1.0  0.04487  0.38467  0.28886  1.0000
  H   H11       1.0  0.98844  0.60658  0.15391  1.0000
  N   N1        1.0  0.97236  0.52083  0.14980  1.0000
  H   H12       1.0  0.96965  0.53526  0.09183  1.0000
  H   H13       1.0  0.96534  0.48886  0.15258  1.0000
  C   C16       1.0  0.00894  0.66844  0.28044  1.0000
  H   H14       1.0  0.01029  0.67840  0.21034  1.0000
  H   H15       1.0  0.04149  0.67706  0.31027  1.0000
  H   H16       1.0  0.95112  0.32025  0.34454  1.0000
  C   C17       1.0  0.38011  0.00084  0.29004  1.0000
  C   C18       1.0  0.40743  0.99002  0.21598  1.0000
  C   C19       1.0  0.45442  0.98254  0.22464  1.0000
  C   C20       1.0  0.47430  0.98645  0.31065  1.0000
  C   C21       1.0  0.52149  0.98261  0.32509  1.0000
  C   C22       1.0  0.54899  0.01854  0.29571  1.0000
  C   C23       1.0  0.59557  0.01838  0.31196  1.0000
  H   H17       1.0  0.53523  0.04553  0.26284  1.0000
  H   H18       1.0  0.61415  0.04503  0.28934  1.0000
  H   H19       1.0  0.39272  0.98710  0.15460  1.0000
  N   N2        1.0  0.47857  0.97138  0.15078  1.0000
  H   H20       1.0  0.46418  0.96847  0.09281  1.0000
  H   H21       1.0  0.51057  0.96452  0.15367  1.0000
  C   C24       1.0  0.33073  0.00784  0.28078  1.0000
  H   H22       1.0  0.32085  0.00900  0.21062  1.0000
  H   H23       1.0  0.32215  0.04052  0.31015  1.0000
  H   H24       1.0  0.67916  0.95164  0.34547  1.0000
  C   C25       1.0  0.88851  0.09114  0.36599  1.0000
  C   C26       1.0  0.92355  0.12176  0.36593  1.0000
  C   C27       1.0  0.96412  0.09774  0.36732  1.0000
  N   N3        1.0  0.95222  0.05362  0.36825  1.0000
  C   C28       1.0  0.90690  0.04773  0.36731  1.0000
  C   C29       1.0  0.88149  0.00707  0.36729  1.0000
  C   C30       1.0  0.90006  0.96298  0.36834  1.0000
  N   N4        1.0  0.94410  0.95140  0.36961  1.0000
  C   C31       1.0  0.94969  0.90621  0.36853  1.0000
  C   C32       1.0  0.90642  0.88758  0.36701  1.0000
  C   C33       1.0  0.87579  0.92261  0.36705  1.0000
  C   C34       1.0  0.99091  0.88189  0.36741  1.0000
  C   C35       1.0  0.03460  0.90159  0.36912  1.0000
  N   N5        1.0  0.04654  0.94567  0.37302  1.0000
  C   C36       1.0  0.09181  0.95159  0.36904  1.0000
  C   C37       1.0  0.11015  0.90816  0.36567  1.0000
  C   C38       1.0  0.07511  0.87755  0.36537  1.0000
  C   C39       1.0  0.11723  0.99225  0.36710  1.0000
  C   C40       1.0  0.09871  0.03636  0.36824  1.0000
  N   N6        1.0  0.05467  0.04797  0.36956  1.0000
  C   C41       1.0  0.04905  0.09317  0.36804  1.0000
  C   C42       1.0  0.09232  0.11178  0.36627  1.0000
  C   C43       1.0  0.12296  0.07673  0.36600  1.0000
  C   C44       1.0  0.00782  0.11747  0.36713  1.0000
  C   C45       1.0  0.01061  0.16530  0.36438  1.0000
  C   C46       1.0  0.01116  0.19054  0.44411  1.0000
  C   C47       1.0  0.01427  0.23785  0.44121  1.0000
  C   C48       1.0  0.01691  0.26055  0.35865  1.0000
  C   C49       1.0  0.16474  0.98850  0.35681  1.0000
  C   C50       1.0  0.19351  0.98766  0.43175  1.0000
  C   C51       1.0  0.24033  0.98232  0.42058  1.0000
  C   C52       1.0  0.25900  0.97769  0.33474  1.0000
  C   C53       1.0  0.98796  0.83435  0.35685  1.0000
  C   C54       1.0  0.97827  0.74002  0.33428  1.0000
  C   C55       1.0  0.98255  0.75863  0.42024  1.0000
  C   C56       1.0  0.98735  0.80549  0.43165  1.0000
  C   C57       1.0  0.83371  0.01066  0.36460  1.0000
  C   C58       1.0  0.80851  0.01160  0.44435  1.0000
  C   C59       1.0  0.76123  0.01505  0.44146  1.0000
  C   C60       1.0  0.73852  0.01761  0.35891  1.0000
  H   H25       1.0  0.74341  0.01602  0.49972  1.0000
  H   H26       1.0  0.82437  0.00986  0.50479  1.0000
  H   H27       1.0  0.85513  0.09978  0.36495  1.0000
  H   H28       1.0  0.91946  0.15600  0.36479  1.0000
  H   H29       1.0  0.97353  0.02925  0.36892  1.0000
  H   H30       1.0  0.02526  0.97003  0.37589  1.0000
  H   H31       1.0  0.84155  0.91873  0.36528  1.0000
  H   H32       1.0  0.89799  0.85416  0.36560  1.0000
  H   H33       1.0  0.98986  0.81842  0.49464  1.0000
  H   H34       1.0  0.98172  0.73814  0.47501  1.0000
  H   H35       1.0  0.07914  0.84337  0.36142  1.0000
  H   H36       1.0  0.14347  0.89952  0.36158  1.0000
  H   H37       1.0  0.10074  0.14519  0.36406  1.0000
  H   H38       1.0  0.15720  0.08057  0.36390  1.0000
  H   H39       1.0  0.18055  0.99049  0.49465  1.0000
  H   H40       1.0  0.26076  0.98145  0.47544  1.0000
  H   H41       1.0  0.01511  0.25568  0.49944  1.0000
  H   H42       1.0  0.00952  0.17469  0.50456  1.0000
  N   N7        1.0  0.30601  0.97111  0.32694  1.0000
  H   H43       1.0  0.31175  0.94084  0.29552  1.0000
  N   N8        1.0  0.02118  0.30787  0.35257  1.0000
  H   H44       1.0  0.04856  0.31781  0.38966  1.0000
  N   N9        1.0  0.69119  0.02178  0.35285  1.0000
  H   H45       1.0  0.68117  0.04920  0.38978  1.0000
  N   N10       1.0  0.97198  0.69300  0.32627  1.0000
  H   H46       1.0  0.94181  0.68715  0.29454  1.0000
  C   C61       1.0  0.99805  0.55213  0.38401  1.0000
  C   C62       1.0  0.00506  0.59865  0.37404  1.0000
  H   H47       1.0  0.00132  0.53824  0.44612  1.0000
  H   H48       1.0  0.01284  0.61754  0.42897  1.0000
  C   C63       1.0  0.98233  0.38324  0.35838  1.0000
  C   C64       1.0  0.94632  0.41113  0.38642  1.0000
  C   C65       1.0  0.94585  0.45822  0.37035  1.0000
  H   H49       1.0  0.91987  0.39675  0.41986  1.0000
  N   N11       1.0  0.90985  0.48282  0.39884  1.0000
  H   H50       1.0  0.90736  0.51495  0.38716  1.0000
  H   H51       1.0  0.88466  0.46867  0.42964  1.0000
  C   C66       1.0  0.98055  0.33409  0.37899  1.0000
  H   H52       1.0  0.97521  0.33011  0.45067  1.0000
  C   C67       1.0  0.44700  0.99735  0.38474  1.0000
  C   C68       1.0  0.40045  0.00413  0.37463  1.0000
  H   H53       1.0  0.46085  0.00083  0.44684  1.0000
  H   H54       1.0  0.38150  0.01199  0.42945  1.0000
  C   C69       1.0  0.61602  0.98259  0.35916  1.0000
  C   C70       1.0  0.58839  0.94645  0.38743  1.0000
  C   C71       1.0  0.54131  0.94567  0.37141  1.0000
  H   H55       1.0  0.60296  0.92012  0.42098  1.0000
  N   N12       1.0  0.51697  0.90956  0.40010  1.0000
  H   H56       1.0  0.48487  0.90683  0.38839  1.0000
  H   H57       1.0  0.53131  0.88447  0.43089  1.0000
  C   C72       1.0  0.66519  0.98110  0.37969  1.0000
  H   H58       1.0  0.66922  0.97593  0.45140  1.0000
