data_image0
_chemical_formula_structural       C2HCN2C7H3NH2CHC7H3NH2CHC12HCH4N2C2H2C3H2CHC2H2C3H2CHC2HCN2C7H3NH2CHC7H3NH2CHC12HCH4N2C2H2C3H2CHC2H2C3H2CHC2HCN2C7H3NH2CHC7H3NH2CHC12HCH4N2C2H2C3H2CHC2H2C3H2CHC2HCN2C7H3NH2CHC7H3NH2CHC12HCH4N2C2H2C3H2CHC2H2C3H2CH
_chemical_formula_sum              "C176 H112 N24"
_cell_length_a       39.6084
_cell_length_b       39.6084
_cell_length_c       15.103
_cell_angle_alpha    90
_cell_angle_beta     90
_cell_angle_gamma    90

_space_group_name_H-M_alt    "P 1"
_space_group_IT_number       1

loop_
  _space_group_symop_operation_xyz
  'x, y, z'

loop_
  _atom_site_type_symbol
  _atom_site_label
  _atom_site_symmetry_multiplicity
  _atom_site_fract_x
  _atom_site_fract_y
  _atom_site_fract_z
  _atom_site_occupancy
  C   C1        1.0  0.48251  0.01092  0.33286  1.0000
  C   C2        1.0  0.42337  0.02508  0.36568  1.0000
  H   H1        1.0  0.41347  0.07695  0.38053  1.0000
  C   C3        1.0  0.04188  0.99662  0.29828  1.0000
  N   N1        1.0  0.38969  0.02045  0.35626  1.0000
  N   N2        1.0  0.10126  0.47678  0.28613  1.0000
  C   C4        1.0  0.98794  0.15877  0.28659  1.0000
  C   C5        1.0  0.01372  0.17623  0.24114  1.0000
  C   C6        1.0  0.02070  0.21076  0.25746  1.0000
  C   C7        1.0  0.99857  0.22976  0.31373  1.0000
  C   C8        1.0  0.00088  0.26543  0.32589  1.0000
  C   C9        1.0  0.51168  0.28713  0.25668  1.0000
  C   C10       1.0  0.51451  0.32219  0.26854  1.0000
  H   H2        1.0  0.51638  0.27785  0.19474  1.0000
  H   H3        1.0  0.52201  0.33662  0.21587  1.0000
  H   H4        1.0  0.52995  0.16274  0.20182  1.0000
  N   N3        1.0  0.05060  0.22280  0.22561  1.0000
  H   H5        1.0  0.06576  0.20851  0.19130  1.0000
  H   H6        1.0  0.06059  0.24323  0.24934  1.0000
  C   C11       1.0  0.48568  0.12352  0.27790  1.0000
  H   H7        1.0  0.50047  0.11193  0.23155  1.0000
  C   C12       1.0  0.33648  0.99864  0.30697  1.0000
  C   C13       1.0  0.31918  0.98243  0.23727  1.0000
  C   C14       1.0  0.28386  0.98587  0.22598  1.0000
  C   C15       1.0  0.26452  0.00278  0.29276  1.0000
  C   C16       1.0  0.22858  0.00285  0.29534  1.0000
  C   C17       1.0  0.20952  0.47454  0.26673  1.0000
  C   C18       1.0  0.17413  0.47401  0.27186  1.0000
  H   H8        1.0  0.22127  0.45298  0.24580  1.0000
  H   H9        1.0  0.16164  0.45279  0.25135  1.0000
  H   H10       1.0  0.33292  0.47033  0.18929  1.0000
  N   N4        1.0  0.27076  0.97565  0.14686  1.0000
  H   H11       1.0  0.28511  0.96612  0.10085  1.0000
  H   H12       1.0  0.24868  0.98336  0.12772  1.0000
  C   C19       1.0  0.37185  0.49717  0.31076  1.0000
  H   H13       1.0  0.38436  0.48263  0.26532  1.0000
  C   C20       1.0  0.44878  0.50052  0.35002  1.0000
  C   C21       1.0  0.43233  0.05933  0.37356  1.0000
  C   C22       1.0  0.46436  0.07040  0.34556  1.0000
  C   C23       1.0  0.49012  0.04610  0.32903  1.0000
  C   C24       1.0  0.44185  0.46566  0.35550  1.0000
  C   C25       1.0  0.02386  0.05545  0.31233  1.0000
  C   C26       1.0  0.00822  0.48619  0.31725  1.0000
  C   C27       1.0  0.00044  0.45104  0.32049  1.0000
  C   C28       1.0  0.02576  0.42689  0.29918  1.0000
  C   C29       1.0  0.05799  0.43801  0.27297  1.0000
  C   C30       1.0  0.06735  0.47206  0.28255  1.0000
  C   C31       1.0  0.46677  0.44158  0.33840  1.0000
  H   H14       1.0  0.07665  0.42037  0.26312  1.0000
  C   C32       1.0  0.04846  0.03150  0.29211  1.0000
  H   H15       1.0  0.45910  0.41707  0.33610  1.0000
  H   H16       1.0  0.41860  0.45697  0.37369  1.0000
  H   H17       1.0  0.07092  0.04051  0.26940  1.0000
  H   H18       1.0  0.03180  0.07981  0.31668  1.0000
  N   N5        1.0  0.46579  0.10416  0.32987  1.0000
  N   N6        1.0  0.02373  0.39289  0.30796  1.0000
  C   C33       1.0  0.97217  0.21185  0.35699  1.0000
  C   C34       1.0  0.96733  0.17708  0.34532  1.0000
  H   H19       1.0  0.95485  0.22406  0.39560  1.0000
  H   H20       1.0  0.94807  0.16550  0.37880  1.0000
  C   C35       1.0  0.00465  0.33737  0.34910  1.0000
  C   C36       1.0  0.99231  0.31640  0.41735  1.0000
  C   C37       1.0  0.99097  0.28122  0.40628  1.0000
  H   H21       1.0  0.98516  0.32643  0.47698  1.0000
  H   H22       1.0  0.98384  0.26720  0.45993  1.0000
  C   C38       1.0  0.00545  0.37252  0.36109  1.0000
  H   H23       1.0  0.99496  0.38273  0.41696  1.0000
  C   C39       1.0  0.28241  0.01863  0.36295  1.0000
  C   C40       1.0  0.31763  0.01725  0.36908  1.0000
  H   H24       1.0  0.27004  0.03000  0.41435  1.0000
  H   H25       1.0  0.32914  0.02869  0.42186  1.0000
  C   C41       1.0  0.15643  0.00146  0.30927  1.0000
  C   C42       1.0  0.17502  0.02958  0.33951  1.0000
  C   C43       1.0  0.21030  0.03029  0.33212  1.0000
  H   H26       1.0  0.16306  0.05020  0.36586  1.0000
  H   H27       1.0  0.22232  0.05191  0.35147  1.0000
  C   C44       1.0  0.12116  0.00172  0.31761  1.0000
  H   H28       1.0  0.11054  0.02054  0.35436  1.0000
  C   C45       1.0  0.48251  0.51092  0.33286  1.0000
  C   C46       1.0  0.42337  0.52508  0.36568  1.0000
  H   H29       1.0  0.41347  0.57695  0.38053  1.0000
  C   C47       1.0  0.04188  0.49661  0.29828  1.0000
  N   N7        1.0  0.38969  0.52045  0.35626  1.0000
  N   N8        1.0  0.10126  0.97678  0.28613  1.0000
  C   C48       1.0  0.98794  0.65877  0.28659  1.0000
  C   C49       1.0  0.01372  0.67623  0.24114  1.0000
  C   C50       1.0  0.02070  0.71076  0.25746  1.0000
  C   C51       1.0  0.99857  0.72976  0.31373  1.0000
  C   C52       1.0  0.00088  0.76543  0.32589  1.0000
  C   C53       1.0  0.51168  0.78713  0.25668  1.0000
  C   C54       1.0  0.51451  0.82219  0.26854  1.0000
  H   H30       1.0  0.51638  0.77785  0.19474  1.0000
  H   H31       1.0  0.52201  0.83662  0.21587  1.0000
  H   H32       1.0  0.52995  0.66274  0.20182  1.0000
  N   N9        1.0  0.05060  0.72280  0.22561  1.0000
  H   H33       1.0  0.06576  0.70851  0.19130  1.0000
  H   H34       1.0  0.06059  0.74323  0.24934  1.0000
  C   C55       1.0  0.48568  0.62352  0.27790  1.0000
  H   H35       1.0  0.50047  0.61193  0.23155  1.0000
  C   C56       1.0  0.33648  0.49864  0.30697  1.0000
  C   C57       1.0  0.31918  0.48243  0.23727  1.0000
  C   C58       1.0  0.28386  0.48587  0.22598  1.0000
  C   C59       1.0  0.26452  0.50277  0.29276  1.0000
  C   C60       1.0  0.22858  0.50285  0.29534  1.0000
  C   C61       1.0  0.20952  0.97454  0.26673  1.0000
  C   C62       1.0  0.17413  0.97401  0.27186  1.0000
  H   H36       1.0  0.22127  0.95298  0.24580  1.0000
  H   H37       1.0  0.16164  0.95279  0.25135  1.0000
  H   H38       1.0  0.33292  0.97033  0.18929  1.0000
  N   N10       1.0  0.27076  0.47565  0.14686  1.0000
  H   H39       1.0  0.28511  0.46612  0.10085  1.0000
  H   H40       1.0  0.24868  0.48336  0.12772  1.0000
  C   C63       1.0  0.37185  0.99717  0.31076  1.0000
  H   H41       1.0  0.38436  0.98263  0.26532  1.0000
  C   C64       1.0  0.44878  0.00052  0.35002  1.0000
  C   C65       1.0  0.43233  0.55933  0.37356  1.0000
  C   C66       1.0  0.46436  0.57040  0.34556  1.0000
  C   C67       1.0  0.49012  0.54610  0.32903  1.0000
  C   C68       1.0  0.44185  0.96566  0.35550  1.0000
  C   C69       1.0  0.02386  0.55545  0.31233  1.0000
  C   C70       1.0  0.00822  0.98619  0.31725  1.0000
  C   C71       1.0  0.00044  0.95104  0.32049  1.0000
  C   C72       1.0  0.02576  0.92689  0.29918  1.0000
  C   C73       1.0  0.05799  0.93801  0.27297  1.0000
  C   C74       1.0  0.06735  0.97206  0.28255  1.0000
  C   C75       1.0  0.46677  0.94158  0.33840  1.0000
  H   H42       1.0  0.07665  0.92037  0.26312  1.0000
  C   C76       1.0  0.04846  0.53150  0.29211  1.0000
  H   H43       1.0  0.45910  0.91707  0.33610  1.0000
  H   H44       1.0  0.41860  0.95697  0.37369  1.0000
  H   H45       1.0  0.07092  0.54051  0.26940  1.0000
  H   H46       1.0  0.03180  0.57981  0.31668  1.0000
  N   N11       1.0  0.46579  0.60416  0.32987  1.0000
  N   N12       1.0  0.02373  0.89289  0.30796  1.0000
  C   C77       1.0  0.97217  0.71185  0.35699  1.0000
  C   C78       1.0  0.96733  0.67708  0.34532  1.0000
  H   H47       1.0  0.95485  0.72406  0.39560  1.0000
  H   H48       1.0  0.94807  0.66550  0.37880  1.0000
  C   C79       1.0  0.00465  0.83737  0.34910  1.0000
  C   C80       1.0  0.99231  0.81640  0.41735  1.0000
  C   C81       1.0  0.99097  0.78122  0.40628  1.0000
  H   H49       1.0  0.98516  0.82643  0.47698  1.0000
  H   H50       1.0  0.98384  0.76720  0.45993  1.0000
  C   C82       1.0  0.00545  0.87252  0.36109  1.0000
  H   H51       1.0  0.99496  0.88273  0.41696  1.0000
  C   C83       1.0  0.28241  0.51863  0.36295  1.0000
  C   C84       1.0  0.31763  0.51725  0.36908  1.0000
  H   H52       1.0  0.27004  0.53000  0.41435  1.0000
  H   H53       1.0  0.32914  0.52869  0.42186  1.0000
  C   C85       1.0  0.15643  0.50146  0.30927  1.0000
  C   C86       1.0  0.17502  0.52958  0.33951  1.0000
  C   C87       1.0  0.21030  0.53029  0.33212  1.0000
  H   H54       1.0  0.16306  0.55020  0.36586  1.0000
  H   H55       1.0  0.22232  0.55191  0.35147  1.0000
  C   C88       1.0  0.12116  0.50172  0.31761  1.0000
  H   H56       1.0  0.11054  0.52054  0.35436  1.0000
  C   C89       1.0  0.98251  0.01092  0.33286  1.0000
  C   C90       1.0  0.92337  0.02508  0.36568  1.0000
  H   H57       1.0  0.91347  0.07695  0.38053  1.0000
  C   C91       1.0  0.54188  0.99662  0.29828  1.0000
  N   N13       1.0  0.88969  0.02045  0.35626  1.0000
  N   N14       1.0  0.60126  0.47678  0.28613  1.0000
  C   C92       1.0  0.48795  0.15877  0.28659  1.0000
  C   C93       1.0  0.51372  0.17623  0.24114  1.0000
  C   C94       1.0  0.52070  0.21076  0.25746  1.0000
  C   C95       1.0  0.49857  0.22976  0.31373  1.0000
  C   C96       1.0  0.50088  0.26543  0.32589  1.0000
  C   C97       1.0  0.01168  0.28713  0.25668  1.0000
  C   C98       1.0  0.01451  0.32219  0.26854  1.0000
  H   H58       1.0  0.01638  0.27785  0.19474  1.0000
  H   H59       1.0  0.02201  0.33662  0.21587  1.0000
  H   H60       1.0  0.02995  0.16274  0.20182  1.0000
  N   N15       1.0  0.55060  0.22280  0.22561  1.0000
  H   H61       1.0  0.56576  0.20851  0.19130  1.0000
  H   H62       1.0  0.56059  0.24323  0.24934  1.0000
  C   C99       1.0  0.98568  0.12352  0.27790  1.0000
  H   H63       1.0  0.00047  0.11193  0.23155  1.0000
  C   C100      1.0  0.83648  0.99864  0.30697  1.0000
  C   C101      1.0  0.81918  0.98243  0.23727  1.0000
  C   C102      1.0  0.78386  0.98587  0.22598  1.0000
  C   C103      1.0  0.76452  0.00278  0.29276  1.0000
  C   C104      1.0  0.72858  0.00285  0.29534  1.0000
  C   C105      1.0  0.70952  0.47454  0.26673  1.0000
  C   C106      1.0  0.67413  0.47401  0.27186  1.0000
  H   H64       1.0  0.72127  0.45298  0.24580  1.0000
  H   H65       1.0  0.66163  0.45279  0.25135  1.0000
  H   H66       1.0  0.83292  0.47033  0.18929  1.0000
  N   N16       1.0  0.77076  0.97565  0.14686  1.0000
  H   H67       1.0  0.78511  0.96612  0.10085  1.0000
  H   H68       1.0  0.74869  0.98336  0.12772  1.0000
  C   C107      1.0  0.87185  0.49717  0.31076  1.0000
  H   H69       1.0  0.88436  0.48263  0.26532  1.0000
  C   C108      1.0  0.94877  0.50052  0.35002  1.0000
  C   C109      1.0  0.93233  0.05933  0.37356  1.0000
  C   C110      1.0  0.96436  0.07040  0.34556  1.0000
  C   C111      1.0  0.99012  0.04610  0.32903  1.0000
  C   C112      1.0  0.94185  0.46566  0.35550  1.0000
  C   C113      1.0  0.52386  0.05545  0.31233  1.0000
  C   C114      1.0  0.50822  0.48619  0.31725  1.0000
  C   C115      1.0  0.50044  0.45104  0.32049  1.0000
  C   C116      1.0  0.52576  0.42689  0.29918  1.0000
  C   C117      1.0  0.55799  0.43801  0.27297  1.0000
  C   C118      1.0  0.56735  0.47206  0.28255  1.0000
  C   C119      1.0  0.96677  0.44158  0.33840  1.0000
  H   H70       1.0  0.57665  0.42037  0.26312  1.0000
  C   C120      1.0  0.54846  0.03150  0.29211  1.0000
  H   H71       1.0  0.95910  0.41707  0.33610  1.0000
  H   H72       1.0  0.91860  0.45697  0.37369  1.0000
  H   H73       1.0  0.57092  0.04051  0.26940  1.0000
  H   H74       1.0  0.53180  0.07981  0.31668  1.0000
  N   N17       1.0  0.96579  0.10416  0.32987  1.0000
  N   N18       1.0  0.52373  0.39289  0.30796  1.0000
  C   C121      1.0  0.47218  0.21185  0.35699  1.0000
  C   C122      1.0  0.46732  0.17708  0.34532  1.0000
  H   H75       1.0  0.45485  0.22406  0.39560  1.0000
  H   H76       1.0  0.44807  0.16550  0.37880  1.0000
  C   C123      1.0  0.50465  0.33737  0.34910  1.0000
  C   C124      1.0  0.49231  0.31640  0.41735  1.0000
  C   C125      1.0  0.49097  0.28122  0.40628  1.0000
  H   H77       1.0  0.48516  0.32643  0.47698  1.0000
  H   H78       1.0  0.48384  0.26720  0.45993  1.0000
  C   C126      1.0  0.50545  0.37252  0.36109  1.0000
  H   H79       1.0  0.49496  0.38273  0.41696  1.0000
  C   C127      1.0  0.78241  0.01863  0.36295  1.0000
  C   C128      1.0  0.81763  0.01725  0.36908  1.0000
  H   H80       1.0  0.77004  0.03000  0.41435  1.0000
  H   H81       1.0  0.82913  0.02869  0.42186  1.0000
  C   C129      1.0  0.65643  0.00146  0.30927  1.0000
  C   C130      1.0  0.67502  0.02958  0.33951  1.0000
  C   C131      1.0  0.71029  0.03029  0.33212  1.0000
  H   H82       1.0  0.66306  0.05020  0.36586  1.0000
  H   H83       1.0  0.72231  0.05191  0.35147  1.0000
  C   C132      1.0  0.62116  0.00172  0.31761  1.0000
  H   H84       1.0  0.61054  0.02054  0.35436  1.0000
  C   C133      1.0  0.98251  0.51092  0.33286  1.0000
  C   C134      1.0  0.92337  0.52508  0.36568  1.0000
  H   H85       1.0  0.91347  0.57695  0.38053  1.0000
  C   C135      1.0  0.54188  0.49661  0.29828  1.0000
  N   N19       1.0  0.88969  0.52045  0.35626  1.0000
  N   N20       1.0  0.60126  0.97678  0.28613  1.0000
  C   C136      1.0  0.48795  0.65877  0.28659  1.0000
  C   C137      1.0  0.51372  0.67623  0.24114  1.0000
  C   C138      1.0  0.52070  0.71076  0.25746  1.0000
  C   C139      1.0  0.49857  0.72976  0.31373  1.0000
  C   C140      1.0  0.50088  0.76543  0.32589  1.0000
  C   C141      1.0  0.01168  0.78713  0.25668  1.0000
  C   C142      1.0  0.01451  0.82219  0.26854  1.0000
  H   H86       1.0  0.01638  0.77785  0.19474  1.0000
  H   H87       1.0  0.02201  0.83662  0.21587  1.0000
  H   H88       1.0  0.02995  0.66274  0.20182  1.0000
  N   N21       1.0  0.55060  0.72280  0.22561  1.0000
  H   H89       1.0  0.56576  0.70851  0.19130  1.0000
  H   H90       1.0  0.56059  0.74323  0.24934  1.0000
  C   C143      1.0  0.98568  0.62352  0.27790  1.0000
  H   H91       1.0  0.00047  0.61193  0.23155  1.0000
  C   C144      1.0  0.83648  0.49864  0.30697  1.0000
  C   C145      1.0  0.81918  0.48243  0.23727  1.0000
  C   C146      1.0  0.78386  0.48587  0.22598  1.0000
  C   C147      1.0  0.76452  0.50277  0.29276  1.0000
  C   C148      1.0  0.72858  0.50285  0.29534  1.0000
  C   C149      1.0  0.70952  0.97454  0.26673  1.0000
  C   C150      1.0  0.67413  0.97401  0.27186  1.0000
  H   H92       1.0  0.72127  0.95298  0.24580  1.0000
  H   H93       1.0  0.66163  0.95279  0.25135  1.0000
  H   H94       1.0  0.83292  0.97033  0.18929  1.0000
  N   N22       1.0  0.77076  0.47565  0.14686  1.0000
  H   H95       1.0  0.78511  0.46612  0.10085  1.0000
  H   H96       1.0  0.74869  0.48336  0.12772  1.0000
  C   C151      1.0  0.87185  0.99717  0.31076  1.0000
  H   H97       1.0  0.88436  0.98263  0.26532  1.0000
  C   C152      1.0  0.94877  0.00052  0.35002  1.0000
  C   C153      1.0  0.93233  0.55933  0.37356  1.0000
  C   C154      1.0  0.96436  0.57040  0.34556  1.0000
  C   C155      1.0  0.99012  0.54610  0.32903  1.0000
  C   C156      1.0  0.94185  0.96566  0.35550  1.0000
  C   C157      1.0  0.52386  0.55545  0.31233  1.0000
  C   C158      1.0  0.50822  0.98619  0.31725  1.0000
  C   C159      1.0  0.50044  0.95104  0.32049  1.0000
  C   C160      1.0  0.52576  0.92689  0.29918  1.0000
  C   C161      1.0  0.55799  0.93801  0.27297  1.0000
  C   C162      1.0  0.56735  0.97206  0.28255  1.0000
  C   C163      1.0  0.96677  0.94158  0.33840  1.0000
  H   H98       1.0  0.57665  0.92037  0.26312  1.0000
  C   C164      1.0  0.54846  0.53150  0.29211  1.0000
  H   H99       1.0  0.95910  0.91707  0.33610  1.0000
  H   H100      1.0  0.91860  0.95697  0.37369  1.0000
  H   H101      1.0  0.57092  0.54051  0.26940  1.0000
  H   H102      1.0  0.53180  0.57981  0.31668  1.0000
  N   N23       1.0  0.96579  0.60416  0.32987  1.0000
  N   N24       1.0  0.52373  0.89289  0.30796  1.0000
  C   C165      1.0  0.47218  0.71185  0.35699  1.0000
  C   C166      1.0  0.46732  0.67708  0.34532  1.0000
  H   H103      1.0  0.45485  0.72406  0.39560  1.0000
  H   H104      1.0  0.44807  0.66550  0.37880  1.0000
  C   C167      1.0  0.50465  0.83737  0.34910  1.0000
  C   C168      1.0  0.49231  0.81640  0.41735  1.0000
  C   C169      1.0  0.49097  0.78122  0.40628  1.0000
  H   H105      1.0  0.48516  0.82643  0.47698  1.0000
  H   H106      1.0  0.48384  0.76720  0.45993  1.0000
  C   C170      1.0  0.50545  0.87252  0.36109  1.0000
  H   H107      1.0  0.49496  0.88273  0.41696  1.0000
  C   C171      1.0  0.78241  0.51863  0.36295  1.0000
  C   C172      1.0  0.81763  0.51725  0.36908  1.0000
  H   H108      1.0  0.77004  0.53000  0.41435  1.0000
  H   H109      1.0  0.82913  0.52869  0.42186  1.0000
  C   C173      1.0  0.65643  0.50146  0.30927  1.0000
  C   C174      1.0  0.67502  0.52958  0.33951  1.0000
  C   C175      1.0  0.71029  0.53029  0.33212  1.0000
  H   H110      1.0  0.66306  0.55020  0.36586  1.0000
  H   H111      1.0  0.72231  0.55191  0.35147  1.0000
  C   C176      1.0  0.62116  0.50172  0.31761  1.0000
  H   H112      1.0  0.61054  0.52054  0.35436  1.0000
