data_image0
_chemical_formula_structural       C8HC7HCH4C4O3C3HOHNHC3HOHNHC3HOHNHC3HOHNHC3HOHNHC3HOHNHOC8HC7HCH4C4O4C8HC7HCH4C4O4C3OH2NHC3OH2NHC3OH2NHC3OH2NHC3OH2NHC3OH2NH
_chemical_formula_sum              "C96 H54 O24 N12"
_cell_length_a       29.9975
_cell_length_b       29.9975
_cell_length_c       15.1563
_cell_angle_alpha    89.9992
_cell_angle_beta     90.0008
_cell_angle_gamma    120

_space_group_name_H-M_alt    "P 1"
_space_group_IT_number       1

loop_
  _space_group_symop_operation_xyz
  'x, y, z'

loop_
  _atom_site_type_symbol
  _atom_site_label
  _atom_site_symmetry_multiplicity
  _atom_site_fract_x
  _atom_site_fract_y
  _atom_site_fract_z
  _atom_site_occupancy
  C   C1        1.0  0.02158  0.52940  0.32305  1.0000
  C   C2        1.0  0.97414  0.48154  0.32308  1.0000
  C   C3        1.0  0.97415  0.43404  0.32048  1.0000
  C   C4        1.0  0.02169  0.43543  0.32296  1.0000
  C   C5        1.0  0.06919  0.48164  0.32550  1.0000
  C   C6        1.0  0.06908  0.52911  0.32299  1.0000
  C   C7        1.0  0.92806  0.48339  0.32071  1.0000
  C   C8        1.0  0.11509  0.57709  0.32548  1.0000
  H   H1        1.0  0.02173  0.40125  0.32290  1.0000
  C   C9        1.0  0.02151  0.57733  0.32306  1.0000
  C   C10       1.0  0.97401  0.57762  0.32303  1.0000
  C   C11       1.0  0.97390  0.62508  0.32556  1.0000
  C   C12       1.0  0.02139  0.67130  0.32304  1.0000
  C   C13       1.0  0.06894  0.67270  0.32053  1.0000
  C   C14       1.0  0.06895  0.62519  0.32311  1.0000
  C   C15       1.0  0.92800  0.52964  0.32550  1.0000
  H   H2        1.0  0.02135  0.70547  0.32306  1.0000
  C   C16       1.0  0.11503  0.62334  0.32071  1.0000
  H   H3        1.0  0.89274  0.52657  0.33033  1.0000
  H   H4        1.0  0.89284  0.45115  0.31589  1.0000
  H   H5        1.0  0.15025  0.65557  0.31588  1.0000
  H   H6        1.0  0.15034  0.58017  0.33039  1.0000
  C   C17       1.0  0.11391  0.47742  0.33430  1.0000
  C   C18       1.0  0.92944  0.38511  0.31140  1.0000
  C   C19       1.0  0.92917  0.62926  0.33458  1.0000
  C   C20       1.0  0.11362  0.72166  0.31162  1.0000
  O   O1        1.0  0.11022  0.43564  0.37629  1.0000
  O   O2        1.0  0.93332  0.34708  0.26953  1.0000
  O   O3        1.0  0.10977  0.75962  0.26947  1.0000
  C   C21       1.0  0.20393  0.51121  0.30615  1.0000
  C   C22       1.0  0.23685  0.51567  0.23607  1.0000
  C   C23       1.0  0.28152  0.51274  0.25188  1.0000
  H   H7        1.0  0.22613  0.51640  0.17217  1.0000
  O   O4        1.0  0.31270  0.51825  0.18223  1.0000
  H   H8        1.0  0.29322  0.48883  0.14244  1.0000
  N   N1        1.0  0.15750  0.50659  0.28704  1.0000
  H   H9        1.0  0.15308  0.51903  0.22993  1.0000
  C   C24       1.0  0.56374  0.77790  0.30618  1.0000
  C   C25       1.0  0.55926  0.80635  0.23611  1.0000
  C   C26       1.0  0.56213  0.85392  0.25192  1.0000
  H   H10       1.0  0.55853  0.79491  0.17221  1.0000
  O   O5        1.0  0.55659  0.87958  0.18226  1.0000
  H   H11       1.0  0.58607  0.88962  0.14256  1.0000
  N   N2        1.0  0.56840  0.73611  0.28706  1.0000
  H   H12       1.0  0.55587  0.71924  0.22998  1.0000
  C   C27       1.0  0.29689  0.87106  0.30623  1.0000
  C   C28       1.0  0.26844  0.83813  0.23615  1.0000
  C   C29       1.0  0.22087  0.79342  0.25197  1.0000
  H   H13       1.0  0.27988  0.84884  0.17225  1.0000
  O   O6        1.0  0.19523  0.76221  0.18232  1.0000
  H   H14       1.0  0.18525  0.78166  0.14252  1.0000
  N   N3        1.0  0.33865  0.91752  0.28708  1.0000
  H   H15       1.0  0.35552  0.92188  0.23000  1.0000
  C   C30       1.0  0.83916  0.59557  0.30626  1.0000
  C   C31       1.0  0.80623  0.59108  0.23617  1.0000
  C   C32       1.0  0.76152  0.59396  0.25196  1.0000
  H   H16       1.0  0.81695  0.59036  0.17227  1.0000
  O   O7        1.0  0.73034  0.58843  0.18228  1.0000
  H   H17       1.0  0.74980  0.61790  0.14257  1.0000
  N   N4        1.0  0.88561  0.60025  0.28714  1.0000
  H   H18       1.0  0.88997  0.58772  0.23006  1.0000
  C   C33       1.0  0.47927  0.32875  0.30622  1.0000
  C   C34       1.0  0.48379  0.30032  0.23617  1.0000
  C   C35       1.0  0.48097  0.25277  0.25200  1.0000
  H   H19       1.0  0.48453  0.31176  0.17226  1.0000
  O   O8        1.0  0.48657  0.22713  0.18237  1.0000
  H   H20       1.0  0.45715  0.21713  0.14255  1.0000
  N   N5        1.0  0.47459  0.37052  0.28707  1.0000
  H   H21       1.0  0.48703  0.38737  0.22995  1.0000
  C   C36       1.0  0.74615  0.23564  0.30620  1.0000
  C   C37       1.0  0.77461  0.26855  0.23611  1.0000
  C   C38       1.0  0.82220  0.31325  0.25190  1.0000
  H   H22       1.0  0.76317  0.25782  0.17222  1.0000
  O   O9        1.0  0.84784  0.34442  0.18222  1.0000
  H   H23       1.0  0.85784  0.32495  0.14250  1.0000
  N   N6        1.0  0.70437  0.18918  0.28709  1.0000
  H   H24       1.0  0.68751  0.18482  0.23000  1.0000
  O   O10       1.0  0.93288  0.67113  0.37630  1.0000
  C   C39       1.0  0.54547  0.57732  0.32300  1.0000
  C   C40       1.0  0.59331  0.57772  0.32308  1.0000
  C   C41       1.0  0.64083  0.62522  0.32050  1.0000
  C   C42       1.0  0.63946  0.67138  0.32298  1.0000
  C   C43       1.0  0.59326  0.67269  0.32551  1.0000
  C   C44       1.0  0.54578  0.62513  0.32292  1.0000
  C   C45       1.0  0.59144  0.52978  0.32062  1.0000
  C   C46       1.0  0.49781  0.62317  0.32540  1.0000
  H   H25       1.0  0.67364  0.70559  0.32296  1.0000
  C   C47       1.0  0.49753  0.52933  0.32299  1.0000
  C   C48       1.0  0.49721  0.48153  0.32295  1.0000
  C   C49       1.0  0.44974  0.43396  0.32548  1.0000
  C   C50       1.0  0.40354  0.43526  0.32294  1.0000
  C   C51       1.0  0.40216  0.48142  0.32046  1.0000
  C   C52       1.0  0.44968  0.52894  0.32302  1.0000
  C   C53       1.0  0.54518  0.48348  0.32540  1.0000
  H   H26       1.0  0.36935  0.40105  0.32293  1.0000
  C   C54       1.0  0.45154  0.57687  0.32060  1.0000
  H   H27       1.0  0.54825  0.45130  0.33026  1.0000
  H   H28       1.0  0.62366  0.52677  0.31580  1.0000
  H   H29       1.0  0.41932  0.57987  0.31578  1.0000
  H   H30       1.0  0.49474  0.65535  0.33030  1.0000
  C   C55       1.0  0.59750  0.72163  0.33437  1.0000
  C   C56       1.0  0.68978  0.62948  0.31154  1.0000
  C   C57       1.0  0.44554  0.38504  0.33444  1.0000
  C   C58       1.0  0.35319  0.47712  0.31154  1.0000
  O   O11       1.0  0.63928  0.75970  0.37641  1.0000
  O   O12       1.0  0.72791  0.67137  0.26980  1.0000
  O   O13       1.0  0.40366  0.34688  0.37613  1.0000
  O   O14       1.0  0.31516  0.43535  0.26943  1.0000
  C   C59       1.0  0.49754  0.05335  0.32302  1.0000
  C   C60       1.0  0.49716  0.10081  0.32308  1.0000
  C   C61       1.0  0.44965  0.10083  0.32054  1.0000
  C   C62       1.0  0.40349  0.05330  0.32307  1.0000
  C   C63       1.0  0.40217  0.00579  0.32560  1.0000
  C   C64       1.0  0.44972  0.00587  0.32298  1.0000
  C   C65       1.0  0.54510  0.14686  0.32059  1.0000
  C   C66       1.0  0.45165  0.95983  0.32541  1.0000
  H   H31       1.0  0.36928  0.05329  0.32312  1.0000
  C   C67       1.0  0.54551  0.05337  0.32302  1.0000
  C   C68       1.0  0.59333  0.10085  0.32296  1.0000
  C   C69       1.0  0.64088  0.10092  0.32559  1.0000
  C   C70       1.0  0.63956  0.05341  0.32305  1.0000
  C   C71       1.0  0.59339  0.00588  0.32048  1.0000
  C   C72       1.0  0.54589  0.00591  0.32307  1.0000
  C   C73       1.0  0.59140  0.14688  0.32538  1.0000
  H   H32       1.0  0.67376  0.05342  0.32308  1.0000
  C   C74       1.0  0.49794  0.95986  0.32060  1.0000
  H   H33       1.0  0.62359  0.18213  0.33019  1.0000
  H   H34       1.0  0.54812  0.18209  0.31569  1.0000
  H   H35       1.0  0.49493  0.92463  0.31578  1.0000
  H   H36       1.0  0.41946  0.92459  0.33023  1.0000
  C   C75       1.0  0.35327  0.96105  0.33461  1.0000
  C   C76       1.0  0.44536  0.14551  0.31179  1.0000
  C   C77       1.0  0.68980  0.14564  0.33456  1.0000
  C   C78       1.0  0.59759  0.96116  0.31153  1.0000
  O   O15       1.0  0.31511  0.96483  0.37621  1.0000
  O   O16       1.0  0.40359  0.14175  0.26962  1.0000
  O   O17       1.0  0.72794  0.14190  0.37631  1.0000
  O   O18       1.0  0.63951  0.96500  0.26976  1.0000
  C   C79       1.0  0.26859  0.51562  0.40986  1.0000
  C   C80       1.0  0.22116  0.51305  0.39408  1.0000
  C   C81       1.0  0.29694  0.51094  0.33981  1.0000
  O   O19       1.0  0.19557  0.51876  0.46366  1.0000
  H   H37       1.0  0.28008  0.51644  0.47377  1.0000
  H   H38       1.0  0.18553  0.48937  0.50356  1.0000
  N   N7        1.0  0.33858  0.50606  0.35899  1.0000
  H   H39       1.0  0.35558  0.51874  0.41596  1.0000
  C   C82       1.0  0.55931  0.83814  0.40990  1.0000
  C   C83       1.0  0.56192  0.79330  0.39411  1.0000
  C   C84       1.0  0.56393  0.87114  0.33984  1.0000
  O   O20       1.0  0.55622  0.76200  0.46370  1.0000
  H   H40       1.0  0.55847  0.84880  0.47380  1.0000
  H   H41       1.0  0.58560  0.78138  0.50361  1.0000
  N   N8        1.0  0.56868  0.91761  0.35901  1.0000
  H   H42       1.0  0.55617  0.92202  0.41608  1.0000
  C   C85       1.0  0.23666  0.80637  0.40994  1.0000
  C   C86       1.0  0.28149  0.85383  0.39415  1.0000
  C   C87       1.0  0.20366  0.77800  0.33989  1.0000
  O   O21       1.0  0.31276  0.87943  0.46376  1.0000
  H   H43       1.0  0.22600  0.79489  0.47384  1.0000
  H   H44       1.0  0.29339  0.88950  0.50358  1.0000
  N   N9        1.0  0.15717  0.73631  0.35907  1.0000
  H   H45       1.0  0.15282  0.71934  0.41609  1.0000
  C   C88       1.0  0.77447  0.59115  0.40994  1.0000
  C   C89       1.0  0.82192  0.59375  0.39417  1.0000
  C   C90       1.0  0.74610  0.59577  0.33987  1.0000
  O   O22       1.0  0.84751  0.58808  0.46379  1.0000
  H   H46       1.0  0.76297  0.59032  0.47384  1.0000
  H   H47       1.0  0.85756  0.61750  0.50363  1.0000
  N   N10       1.0  0.70439  0.60054  0.35901  1.0000
  H   H48       1.0  0.68748  0.58804  0.41608  1.0000
  C   C91       1.0  0.48375  0.26854  0.40997  1.0000
  C   C92       1.0  0.48109  0.31336  0.39416  1.0000
  C   C93       1.0  0.47917  0.23556  0.33993  1.0000
  O   O23       1.0  0.48673  0.34463  0.46375  1.0000
  H   H49       1.0  0.48458  0.25789  0.47388  1.0000
  H   H50       1.0  0.45730  0.32525  0.50357  1.0000
  N   N11       1.0  0.47444  0.18910  0.35908  1.0000
  H   H51       1.0  0.48696  0.18470  0.41615  1.0000
  C   C94       1.0  0.80641  0.30034  0.40988  1.0000
  C   C95       1.0  0.76156  0.25288  0.39412  1.0000
  C   C96       1.0  0.83941  0.32869  0.33981  1.0000
  O   O24       1.0  0.73028  0.22731  0.46373  1.0000
  H   H52       1.0  0.81707  0.31183  0.47378  1.0000
  H   H53       1.0  0.74964  0.21726  0.50359  1.0000
  N   N12       1.0  0.88593  0.37036  0.35900  1.0000
  H   H54       1.0  0.89023  0.38734  0.41598  1.0000
