data_image0
_chemical_formula_structural       C8H6NC2H2C8H6NC2H2C8H6NC2H2C7H6NCHC8H6NC2H2C8H6NC2H2CNO2C3N2O4NC3N2O4NC3H2NC3H2NC3H2NC3H2NC3H2NC3H2NC10H4CNCNHCHCHC10H4CNCNHCHCHC10H4CNCNHCHCHC10H4CNCNHCHCHC10H4CNCNHCHCHC10H4CNCNHCHCHC2HNC3H2NC3H2NC3N2O4NC3N2O4NC3N2O4NC3N2O4NC3N2O4NC3N2O4NC2HC2NO2NCH
_chemical_formula_sum              "C198 H108 N54 O36"
_cell_length_a       77.8103
_cell_length_b       77.8103
_cell_length_c       14.8445
_cell_angle_alpha    90
_cell_angle_beta     90
_cell_angle_gamma    120

_space_group_name_H-M_alt    "P 1"
_space_group_IT_number       1

loop_
  _space_group_symop_operation_xyz
  'x, y, z'

loop_
  _atom_site_type_symbol
  _atom_site_label
  _atom_site_symmetry_multiplicity
  _atom_site_fract_x
  _atom_site_fract_y
  _atom_site_fract_z
  _atom_site_occupancy
  C   C1        1.0  0.12491  0.56762  0.34205  1.0000
  C   C2        1.0  0.08224  0.54810  0.35396  1.0000
  C   C3        1.0  0.09410  0.56891  0.36311  1.0000
  C   C4        1.0  0.11493  0.57845  0.35646  1.0000
  C   C5        1.0  0.18353  0.64143  0.31422  1.0000
  C   C6        1.0  0.19674  0.66205  0.30678  1.0000
  C   C7        1.0  0.19388  0.53978  0.30351  1.0000
  C   C8        1.0  0.18115  0.54776  0.31119  1.0000
  H   H1        1.0  0.08768  0.57738  0.37609  1.0000
  H   H2        1.0  0.12275  0.59350  0.36542  1.0000
  H   H3        1.0  0.16939  0.63573  0.28997  1.0000
  H   H4        1.0  0.19168  0.67069  0.27830  1.0000
  H   H5        1.0  0.18874  0.52649  0.27092  1.0000
  H   H6        1.0  0.16733  0.54021  0.28273  1.0000
  N   N1        1.0  0.15737  0.59769  0.34393  1.0000
  C   C9        1.0  0.14620  0.57741  0.34195  1.0000
  C   C10       1.0  0.06186  0.53904  0.36814  1.0000
  H   H7        1.0  0.05711  0.54408  0.41837  1.0000
  H   H8        1.0  0.22349  0.53254  0.27666  1.0000
  C   C11       1.0  0.44549  0.55993  0.34210  1.0000
  C   C12       1.0  0.46501  0.53677  0.35397  1.0000
  C   C13       1.0  0.44420  0.52784  0.36321  1.0000
  C   C14       1.0  0.43467  0.53913  0.35663  1.0000
  C   C15       1.0  0.37167  0.54473  0.31423  1.0000
  C   C16       1.0  0.35106  0.53734  0.30673  1.0000
  C   C17       1.0  0.47335  0.65676  0.30364  1.0000
  C   C18       1.0  0.46534  0.63602  0.31111  1.0000
  H   H9        1.0  0.43573  0.51294  0.37617  1.0000
  H   H10       1.0  0.41961  0.53190  0.36554  1.0000
  H   H11       1.0  0.37738  0.53633  0.28956  1.0000
  H   H12       1.0  0.34243  0.52368  0.27792  1.0000
  H   H13       1.0  0.48666  0.66491  0.27124  1.0000
  H   H14       1.0  0.47293  0.62976  0.28298  1.0000
  N   N2        1.0  0.41542  0.56232  0.34400  1.0000
  C   C19       1.0  0.43570  0.57144  0.34195  1.0000
  C   C20       1.0  0.47406  0.52544  0.36800  1.0000
  H   H15       1.0  0.46904  0.51567  0.41828  1.0000
  H   H16       1.0  0.48064  0.69362  0.27690  1.0000
  C   C21       1.0  0.45319  0.88821  0.34208  1.0000
  C   C22       1.0  0.47636  0.93088  0.35392  1.0000
  C   C23       1.0  0.48529  0.91900  0.36319  1.0000
  C   C24       1.0  0.47399  0.89818  0.35656  1.0000
  C   C25       1.0  0.46837  0.82959  0.31428  1.0000
  C   C26       1.0  0.47577  0.81637  0.30680  1.0000
  C   C27       1.0  0.35636  0.81924  0.30347  1.0000
  C   C28       1.0  0.37709  0.83197  0.31111  1.0000
  H   H17       1.0  0.50018  0.92542  0.37620  1.0000
  H   H18       1.0  0.48121  0.89035  0.36560  1.0000
  H   H19       1.0  0.47678  0.84371  0.28977  1.0000
  H   H20       1.0  0.48945  0.82142  0.27817  1.0000
  H   H21       1.0  0.34822  0.82437  0.27078  1.0000
  H   H22       1.0  0.38336  0.84578  0.28257  1.0000
  N   N3        1.0  0.45078  0.85574  0.34393  1.0000
  C   C29       1.0  0.44167  0.86692  0.34196  1.0000
  C   C30       1.0  0.48770  0.95126  0.36796  1.0000
  H   H23       1.0  0.49747  0.95602  0.41824  1.0000
  H   H24       1.0  0.31951  0.78963  0.27668  1.0000
  C   C31       1.0  0.89076  0.44272  0.34285  1.0000
  C   C32       1.0  0.92152  0.44141  0.36508  1.0000
  C   C33       1.0  0.90070  0.43190  0.35864  1.0000
  C   C34       1.0  0.83222  0.36892  0.31446  1.0000
  C   C35       1.0  0.81902  0.34830  0.30698  1.0000
  C   C36       1.0  0.82204  0.47085  0.30422  1.0000
  C   C37       1.0  0.83470  0.46277  0.31192  1.0000
  H   H25       1.0  0.92791  0.43293  0.37883  1.0000
  H   H26       1.0  0.89285  0.41688  0.36856  1.0000
  H   H27       1.0  0.84638  0.37463  0.29054  1.0000
  H   H28       1.0  0.82412  0.33967  0.27885  1.0000
  H   H29       1.0  0.82735  0.48430  0.27298  1.0000
  H   H30       1.0  0.84866  0.47045  0.28484  1.0000
  N   N4        1.0  0.85831  0.41267  0.34423  1.0000
  C   C38       1.0  0.86948  0.43295  0.34234  1.0000
  H   H31       1.0  0.79247  0.47815  0.27601  1.0000
  C   C39       1.0  0.57041  0.45070  0.34285  1.0000
  C   C40       1.0  0.55092  0.47391  0.35458  1.0000
  C   C41       1.0  0.57170  0.48276  0.36512  1.0000
  C   C42       1.0  0.58121  0.47145  0.35863  1.0000
  C   C43       1.0  0.64421  0.46596  0.31443  1.0000
  C   C44       1.0  0.66484  0.47339  0.30694  1.0000
  C   C45       1.0  0.54227  0.35384  0.30434  1.0000
  C   C46       1.0  0.55036  0.37458  0.31193  1.0000
  H   H32       1.0  0.58017  0.49762  0.37885  1.0000
  H   H33       1.0  0.59624  0.47863  0.36852  1.0000
  H   H34       1.0  0.63850  0.47442  0.29055  1.0000
  H   H35       1.0  0.67346  0.48712  0.27882  1.0000
  H   H36       1.0  0.52878  0.34569  0.27336  1.0000
  H   H37       1.0  0.54264  0.38085  0.28524  1.0000
  N   N5        1.0  0.60046  0.44831  0.34426  1.0000
  C   C47       1.0  0.58018  0.43918  0.34236  1.0000
  C   C48       1.0  0.54192  0.48532  0.36779  1.0000
  H   H38       1.0  0.54746  0.49574  0.41532  1.0000
  H   H39       1.0  0.53494  0.31695  0.27616  1.0000
  C   C49       1.0  0.56242  0.12236  0.34294  1.0000
  C   C50       1.0  0.53920  0.07966  0.35462  1.0000
  C   C51       1.0  0.53036  0.09159  0.36528  1.0000
  C   C52       1.0  0.54167  0.11241  0.35885  1.0000
  C   C53       1.0  0.54715  0.18089  0.31449  1.0000
  C   C54       1.0  0.53973  0.19410  0.30694  1.0000
  C   C55       1.0  0.65928  0.19107  0.30438  1.0000
  C   C56       1.0  0.63853  0.17843  0.31188  1.0000
  H   H40       1.0  0.51550  0.08520  0.37900  1.0000
  H   H41       1.0  0.53449  0.12026  0.36871  1.0000
  H   H42       1.0  0.53872  0.16675  0.29023  1.0000
  H   H43       1.0  0.52603  0.18901  0.27852  1.0000
  H   H44       1.0  0.66743  0.18574  0.27341  1.0000
  H   H45       1.0  0.63227  0.16444  0.28524  1.0000
  N   N6        1.0  0.56481  0.15480  0.34437  1.0000
  C   C57       1.0  0.57393  0.14364  0.34240  1.0000
  C   C58       1.0  0.52778  0.05924  0.36769  1.0000
  H   H46       1.0  0.51737  0.05436  0.41524  1.0000
  H   H47       1.0  0.69618  0.22061  0.27630  1.0000
  C   C59       1.0  0.01832  0.51148  0.23477  1.0000
  N   N7        1.0  0.02790  0.51710  0.14977  1.0000
  O   O1        1.0  0.03852  0.53561  0.14234  1.0000
  O   O2        1.0  0.03829  0.50919  0.13481  1.0000
  C   C60       1.0  0.51819  0.49430  0.31815  1.0000
  C   C61       1.0  0.51195  0.49867  0.23533  1.0000
  C   C62       1.0  0.50167  0.50951  0.23474  1.0000
  N   N8        1.0  0.51586  0.49281  0.15080  1.0000
  N   N9        1.0  0.49606  0.51348  0.14972  1.0000
  O   O3        1.0  0.50774  0.47427  0.14409  1.0000
  O   O4        1.0  0.47756  0.50559  0.14224  1.0000
  O   O5        1.0  0.53414  0.50046  0.13612  1.0000
  O   O6        1.0  0.50397  0.53178  0.13479  1.0000
  N   N10       1.0  0.52789  0.48407  0.31715  1.0000
  C   C63       1.0  0.51884  0.02654  0.31814  1.0000
  C   C64       1.0  0.51447  0.01593  0.23531  1.0000
  C   C65       1.0  0.50364  0.99481  0.23473  1.0000
  N   N11       1.0  0.52033  0.02570  0.15078  1.0000
  N   N12       1.0  0.49966  0.98523  0.14971  1.0000
  O   O7        1.0  0.53887  0.03613  0.14407  1.0000
  O   O8        1.0  0.50755  0.97461  0.14221  1.0000
  O   O9        1.0  0.51267  0.03633  0.13611  1.0000
  O   O10       1.0  0.48136  0.97484  0.13478  1.0000
  N   N13       1.0  0.52906  0.04646  0.31712  1.0000
  C   C66       1.0  0.25876  0.54748  0.36792  1.0000
  C   C67       1.0  0.26493  0.54142  0.29070  1.0000
  C   C68       1.0  0.28293  0.54129  0.29051  1.0000
  H   H48       1.0  0.28743  0.53771  0.23218  1.0000
  H   H49       1.0  0.25683  0.53795  0.23247  1.0000
  N   N14       1.0  0.24304  0.54997  0.36704  1.0000
  C   C69       1.0  0.46563  0.71393  0.36786  1.0000
  C   C70       1.0  0.47172  0.72618  0.29068  1.0000
  C   C71       1.0  0.47184  0.74430  0.29049  1.0000
  H   H50       1.0  0.47545  0.75239  0.23219  1.0000
  H   H51       1.0  0.47522  0.72155  0.23249  1.0000
  N   N15       1.0  0.46312  0.69571  0.36691  1.0000
  C   C72       1.0  0.29918  0.75436  0.36789  1.0000
  C   C73       1.0  0.28695  0.74819  0.29068  1.0000
  C   C74       1.0  0.26882  0.73019  0.29046  1.0000
  H   H52       1.0  0.26074  0.72571  0.23213  1.0000
  H   H53       1.0  0.29157  0.75631  0.23248  1.0000
  N   N16       1.0  0.31739  0.77007  0.36701  1.0000
  C   C75       1.0  0.75714  0.46320  0.36706  1.0000
  C   C76       1.0  0.75102  0.46939  0.29008  1.0000
  C   C77       1.0  0.73303  0.46953  0.28996  1.0000
  H   H54       1.0  0.72857  0.47321  0.23177  1.0000
  H   H55       1.0  0.75916  0.47295  0.23194  1.0000
  N   N17       1.0  0.77283  0.46067  0.36600  1.0000
  C   C78       1.0  0.54992  0.29659  0.36705  1.0000
  C   C79       1.0  0.54374  0.28428  0.29007  1.0000
  C   C80       1.0  0.54360  0.26615  0.29000  1.0000
  H   H56       1.0  0.53993  0.25801  0.23181  1.0000
  H   H57       1.0  0.54020  0.28887  0.23191  1.0000
  N   N18       1.0  0.55247  0.31482  0.36592  1.0000
  C   C81       1.0  0.71653  0.25599  0.36697  1.0000
  C   C82       1.0  0.72885  0.26210  0.29003  1.0000
  C   C83       1.0  0.74698  0.28010  0.28993  1.0000
  H   H58       1.0  0.75512  0.28455  0.23176  1.0000
  H   H59       1.0  0.72426  0.25396  0.23190  1.0000
  N   N19       1.0  0.69830  0.24032  0.36582  1.0000
  C   C84       1.0  0.18992  0.62865  0.34927  1.0000
  C   C85       1.0  0.18779  0.56655  0.35118  1.0000
  C   C86       1.0  0.11288  0.54676  0.33199  1.0000
  C   C87       1.0  0.09197  0.53717  0.33744  1.0000
  C   C88       1.0  0.21674  0.67072  0.33551  1.0000
  C   C89       1.0  0.22289  0.65798  0.37345  1.0000
  C   C90       1.0  0.20980  0.63746  0.38004  1.0000
  C   C91       1.0  0.20728  0.57648  0.38726  1.0000
  C   C92       1.0  0.21987  0.56848  0.38036  1.0000
  C   C93       1.0  0.21358  0.55008  0.33701  1.0000
  H   H60       1.0  0.21521  0.62896  0.40655  1.0000
  H   H61       1.0  0.23725  0.66338  0.39416  1.0000
  H   H62       1.0  0.21284  0.59007  0.41748  1.0000
  H   H63       1.0  0.23402  0.57673  0.40480  1.0000
  C   C94       1.0  0.17632  0.57622  0.34952  1.0000
  N   N20       1.0  0.18626  0.59630  0.35122  1.0000
  C   C95       1.0  0.17754  0.60758  0.34881  1.0000
  N   N21       1.0  0.15613  0.56702  0.34421  1.0000
  H   H64       1.0  0.11926  0.53817  0.32194  1.0000
  C   C96       1.0  0.22663  0.54290  0.32311  1.0000
  H   H65       1.0  0.08393  0.52203  0.33222  1.0000
  C   C97       1.0  0.23011  0.69088  0.32244  1.0000
  H   H66       1.0  0.22711  0.69839  0.27699  1.0000
  C   C98       1.0  0.38445  0.56388  0.34946  1.0000
  C   C99       1.0  0.44653  0.62388  0.35090  1.0000
  C   C100      1.0  0.46635  0.56876  0.33196  1.0000
  C   C101      1.0  0.47593  0.55743  0.33741  1.0000
  C   C102      1.0  0.34239  0.54865  0.33572  1.0000
  C   C103      1.0  0.35512  0.56751  0.37389  1.0000
  C   C104      1.0  0.37564  0.57493  0.38047  1.0000
  C   C105      1.0  0.43658  0.63343  0.38681  1.0000
  C   C106      1.0  0.44459  0.65403  0.37993  1.0000
  C   C107      1.0  0.46303  0.66615  0.33688  1.0000
  H   H67       1.0  0.38414  0.58883  0.40710  1.0000
  H   H68       1.0  0.34972  0.57646  0.39474  1.0000
  H   H69       1.0  0.42298  0.62541  0.41696  1.0000
  H   H70       1.0  0.43634  0.65994  0.40434  1.0000
  C   C108      1.0  0.43687  0.60273  0.34931  1.0000
  N   N22       1.0  0.41679  0.59259  0.35112  1.0000
  C   C109      1.0  0.40553  0.57259  0.34882  1.0000
  N   N23       1.0  0.44609  0.59176  0.34408  1.0000
  H   H71       1.0  0.47494  0.58373  0.32182  1.0000
  C   C110      1.0  0.47022  0.68638  0.32312  1.0000
  H   H72       1.0  0.49108  0.56453  0.33204  1.0000
  C   C111      1.0  0.32224  0.54188  0.32251  1.0000
  H   H73       1.0  0.31474  0.53140  0.27690  1.0000
  C   C112      1.0  0.44920  0.82320  0.34932  1.0000
  C   C113      1.0  0.38922  0.82533  0.35115  1.0000
  C   C114      1.0  0.44436  0.90025  0.33194  1.0000
  C   C115      1.0  0.45570  0.92116  0.33732  1.0000
  C   C116      1.0  0.46444  0.79638  0.33561  1.0000
  C   C117      1.0  0.44555  0.79023  0.37355  1.0000
  C   C118      1.0  0.43813  0.80333  0.38018  1.0000
  C   C119      1.0  0.37967  0.80585  0.38728  1.0000
  C   C120      1.0  0.35907  0.79326  0.38047  1.0000
  C   C121      1.0  0.34696  0.79954  0.33705  1.0000
  H   H74       1.0  0.42422  0.79791  0.40670  1.0000
  H   H75       1.0  0.43661  0.77588  0.39438  1.0000
  H   H76       1.0  0.38769  0.80029  0.41758  1.0000
  H   H77       1.0  0.35317  0.77911  0.40493  1.0000
  C   C122      1.0  0.41037  0.83680  0.34943  1.0000
  N   N24       1.0  0.42050  0.82685  0.35116  1.0000
  C   C123      1.0  0.44050  0.83558  0.34877  1.0000
  N   N25       1.0  0.42135  0.85699  0.34418  1.0000
  H   H78       1.0  0.42940  0.89387  0.32178  1.0000
  C   C124      1.0  0.32674  0.78649  0.32311  1.0000
  H   H79       1.0  0.44860  0.92920  0.33198  1.0000
  C   C125      1.0  0.47122  0.78300  0.32248  1.0000
  H   H80       1.0  0.48174  0.78600  0.27703  1.0000
  C   C126      1.0  0.82577  0.38170  0.34899  1.0000
  C   C127      1.0  0.82785  0.44379  0.35015  1.0000
  C   C128      1.0  0.90283  0.46354  0.33148  1.0000
  C   C129      1.0  0.92375  0.47309  0.33676  1.0000
  C   C130      1.0  0.79899  0.33962  0.33518  1.0000
  C   C131      1.0  0.79277  0.35236  0.37254  1.0000
  C   C132      1.0  0.80585  0.37288  0.37924  1.0000
  C   C133      1.0  0.80820  0.43372  0.38436  1.0000
  C   C134      1.0  0.79568  0.44181  0.37748  1.0000
  C   C135      1.0  0.80221  0.46044  0.33598  1.0000
  H   H81       1.0  0.80039  0.38137  0.40537  1.0000
  H   H82       1.0  0.77839  0.34695  0.39295  1.0000
  H   H83       1.0  0.80248  0.42000  0.41338  1.0000
  H   H84       1.0  0.78143  0.43347  0.40055  1.0000
  C   C136      1.0  0.83934  0.43412  0.34887  1.0000
  N   N26       1.0  0.82941  0.41404  0.35051  1.0000
  C   C137      1.0  0.83814  0.40277  0.34855  1.0000
  N   N27       1.0  0.85954  0.44334  0.34414  1.0000
  H   H85       1.0  0.89648  0.47212  0.32029  1.0000
  C   C138      1.0  0.78926  0.46773  0.32225  1.0000
  H   H86       1.0  0.93181  0.48821  0.33026  1.0000
  C   C139      1.0  0.78564  0.31946  0.32207  1.0000
  H   H87       1.0  0.78871  0.31193  0.27691  1.0000
  C   C140      1.0  0.63143  0.44674  0.34902  1.0000
  C   C141      1.0  0.56935  0.38672  0.35005  1.0000
  C   C142      1.0  0.54958  0.44194  0.33153  1.0000
  C   C143      1.0  0.54002  0.45329  0.33683  1.0000
  C   C144      1.0  0.67351  0.46204  0.33519  1.0000
  C   C145      1.0  0.66078  0.44309  0.37266  1.0000
  C   C146      1.0  0.64026  0.43565  0.37929  1.0000
  C   C147      1.0  0.57945  0.37715  0.38406  1.0000
  C   C148      1.0  0.57137  0.35654  0.37710  1.0000
  C   C149      1.0  0.55271  0.34443  0.33587  1.0000
  H   H88       1.0  0.63176  0.42169  0.40544  1.0000
  H   H89       1.0  0.66619  0.43412  0.39298  1.0000
  H   H90       1.0  0.59319  0.38515  0.41290  1.0000
  H   H91       1.0  0.57971  0.35062  0.40003  1.0000
  C   C150      1.0  0.57901  0.40788  0.34883  1.0000
  N   N28       1.0  0.59909  0.41804  0.35050  1.0000
  C   C151      1.0  0.61036  0.43804  0.34860  1.0000
  N   N29       1.0  0.56980  0.41886  0.34411  1.0000
  H   H92       1.0  0.54101  0.42700  0.32036  1.0000
  C   C152      1.0  0.54540  0.32418  0.32222  1.0000
  H   H93       1.0  0.52490  0.44623  0.33039  1.0000
  C   C153      1.0  0.69367  0.46886  0.32209  1.0000
  H   H94       1.0  0.70119  0.47941  0.27678  1.0000
  C   C154      1.0  0.56636  0.18732  0.34923  1.0000
  C   C155      1.0  0.62639  0.18530  0.34989  1.0000
  C   C156      1.0  0.57118  0.11029  0.33153  1.0000
  C   C157      1.0  0.55982  0.08938  0.33683  1.0000
  C   C158      1.0  0.55107  0.21411  0.33539  1.0000
  C   C159      1.0  0.56999  0.22031  0.37306  1.0000
  C   C160      1.0  0.57744  0.20723  0.37968  1.0000
  C   C161      1.0  0.63597  0.20497  0.38387  1.0000
  C   C162      1.0  0.65657  0.21749  0.37692  1.0000
  C   C163      1.0  0.66869  0.21093  0.33580  1.0000
  H   H95       1.0  0.59138  0.21267  0.40595  1.0000
  H   H96       1.0  0.57896  0.23468  0.39351  1.0000
  H   H97       1.0  0.62796  0.21071  0.41273  1.0000
  H   H98       1.0  0.66250  0.23175  0.39992  1.0000
  C   C164      1.0  0.60523  0.17379  0.34871  1.0000
  N   N30       1.0  0.59507  0.18371  0.35047  1.0000
  C   C165      1.0  0.57507  0.17497  0.34865  1.0000
  N   N31       1.0  0.59426  0.15359  0.34405  1.0000
  H   H99       1.0  0.58611  0.11665  0.32026  1.0000
  C   C166      1.0  0.68895  0.22387  0.32221  1.0000
  H   H100      1.0  0.56688  0.08131  0.33024  1.0000
  C   C167      1.0  0.54427  0.22747  0.32216  1.0000
  H   H101      1.0  0.53375  0.22444  0.27672  1.0000
  C   C168      1.0  0.02910  0.51606  0.31713  1.0000
  C   C169      1.0  0.01837  0.50984  0.39880  1.0000
  H   H102      1.0  0.02572  0.51266  0.45899  1.0000
  N   N32       1.0  0.04901  0.52565  0.31525  1.0000
  C   C170      1.0  0.49708  0.51572  0.31709  1.0000
  C   C171      1.0  0.50328  0.51119  0.39878  1.0000
  C   C172      1.0  0.51357  0.50061  0.39932  1.0000
  H   H103      1.0  0.51759  0.49744  0.46000  1.0000
  H   H104      1.0  0.50045  0.51570  0.45896  1.0000
  N   N33       1.0  0.48747  0.52602  0.31518  1.0000
  C   C173      1.0  0.49743  0.98402  0.31708  1.0000
  C   C174      1.0  0.50196  0.99475  0.39876  1.0000
  C   C175      1.0  0.51253  0.01561  0.39930  1.0000
  H   H105      1.0  0.51570  0.02280  0.45998  1.0000
  H   H106      1.0  0.49744  0.98740  0.45894  1.0000
  N   N34       1.0  0.48713  0.96411  0.31516  1.0000
  C   C176      1.0  0.29522  0.54720  0.36756  1.0000
  C   C177      1.0  0.28914  0.55327  0.44594  1.0000
  C   C178      1.0  0.27097  0.55341  0.44611  1.0000
  N   N35       1.0  0.30077  0.55965  0.52567  1.0000
  N   N36       1.0  0.26594  0.55994  0.52599  1.0000
  O   O11       1.0  0.31723  0.57509  0.51326  1.0000
  O   O12       1.0  0.24975  0.54679  0.55857  1.0000
  O   O13       1.0  0.30356  0.54632  0.55809  1.0000
  O   O14       1.0  0.26524  0.57555  0.51380  1.0000
  N   N37       1.0  0.31330  0.54939  0.36641  1.0000
  C   C179      1.0  0.46590  0.75066  0.36749  1.0000
  C   C180      1.0  0.45980  0.73850  0.44582  1.0000
  C   C181      1.0  0.45966  0.72018  0.44598  1.0000
  N   N38       1.0  0.45338  0.74372  0.52548  1.0000
  N   N39       1.0  0.45309  0.70861  0.52581  1.0000
  O   O15       1.0  0.43794  0.74474  0.51293  1.0000
  O   O16       1.0  0.46622  0.70555  0.55851  1.0000
  O   O17       1.0  0.46669  0.75984  0.55803  1.0000
  O   O18       1.0  0.43748  0.69230  0.51345  1.0000
  N   N40       1.0  0.46370  0.76655  0.36629  1.0000
  C   C182      1.0  0.26245  0.71789  0.36747  1.0000
  C   C183      1.0  0.27460  0.72396  0.44584  1.0000
  C   C184      1.0  0.29291  0.74213  0.44603  1.0000
  N   N41       1.0  0.26936  0.71232  0.52552  1.0000
  N   N42       1.0  0.30447  0.74715  0.52591  1.0000
  O   O19       1.0  0.26834  0.69586  0.51302  1.0000
  O   O20       1.0  0.30752  0.76334  0.55855  1.0000
  O   O21       1.0  0.25324  0.70952  0.55799  1.0000
  O   O22       1.0  0.32079  0.74786  0.51365  1.0000
  N   N43       1.0  0.24656  0.69980  0.36626  1.0000
  C   C185      1.0  0.72069  0.46351  0.36686  1.0000
  C   C186      1.0  0.72671  0.45731  0.44502  1.0000
  C   C187      1.0  0.74488  0.45716  0.44510  1.0000
  N   N44       1.0  0.71504  0.45081  0.52457  1.0000
  N   N45       1.0  0.74985  0.45049  0.52473  1.0000
  O   O23       1.0  0.69858  0.43539  0.51171  1.0000
  O   O24       1.0  0.76603  0.46358  0.55769  1.0000
  O   O25       1.0  0.71223  0.46410  0.55744  1.0000
  O   O26       1.0  0.75054  0.43489  0.51198  1.0000
  N   N46       1.0  0.70260  0.46131  0.36568  1.0000
  C   C188      1.0  0.54961  0.25984  0.36693  1.0000
  C   C189      1.0  0.55580  0.27205  0.44508  1.0000
  C   C190      1.0  0.55596  0.29038  0.44512  1.0000
  N   N47       1.0  0.56229  0.26688  0.52467  1.0000
  N   N48       1.0  0.56262  0.30201  0.52474  1.0000
  O   O27       1.0  0.57770  0.26583  0.51188  1.0000
  O   O28       1.0  0.54954  0.30512  0.55764  1.0000
  O   O29       1.0  0.54900  0.25079  0.55754  1.0000
  O   O30       1.0  0.57823  0.31831  0.51200  1.0000
  N   N49       1.0  0.55180  0.24394  0.36582  1.0000
  C   C191      1.0  0.75327  0.29244  0.36681  1.0000
  C   C192      1.0  0.74105  0.28642  0.44493  1.0000
  C   C193      1.0  0.72273  0.26825  0.44499  1.0000
  N   N50       1.0  0.74621  0.29810  0.52447  1.0000
  N   N51       1.0  0.71108  0.26330  0.52457  1.0000
  O   O31       1.0  0.74725  0.31455  0.51155  1.0000
  O   O32       1.0  0.70797  0.24712  0.55758  1.0000
  O   O33       1.0  0.76230  0.30091  0.55740  1.0000
  O   O34       1.0  0.69479  0.26260  0.51173  1.0000
  N   N52       1.0  0.76916  0.31053  0.36562  1.0000
  C   C194      1.0  0.93346  0.46218  0.35450  1.0000
  C   C195      1.0  0.95388  0.47118  0.36760  1.0000
  H   H107      1.0  0.95875  0.46564  0.41513  1.0000
  C   C196      1.0  0.98658  0.49494  0.31813  1.0000
  C   C197      1.0  0.99719  0.50120  0.23533  1.0000
  N   N53       1.0  0.98743  0.49731  0.15078  1.0000
  O   O35       1.0  0.97701  0.50542  0.14410  1.0000
  O   O36       1.0  0.97681  0.47902  0.13604  1.0000
  N   N54       1.0  0.96666  0.48524  0.31709  1.0000
  C   C198      1.0  0.99751  0.49956  0.39931  1.0000
  H   H108      1.0  0.99031  0.49552  0.45998  1.0000
