data_image0
_chemical_formula_structural       C31H17NHNHNHC30H17NHNHNHC2NHCH2C2NHCH2CNHCH10CNCHCH2CNCHCH2CNCHCH2
_chemical_formula_sum              "C78 H66 N12"
_cell_length_a       44.7631
_cell_length_b       44.763
_cell_length_c       14.9907
_cell_angle_alpha    90
_cell_angle_beta     90
_cell_angle_gamma    120

_space_group_name_H-M_alt    "P 1"
_space_group_IT_number       1

loop_
  _space_group_symop_operation_xyz
  'x, y, z'

loop_
  _atom_site_type_symbol
  _atom_site_label
  _atom_site_symmetry_multiplicity
  _atom_site_fract_x
  _atom_site_fract_y
  _atom_site_fract_z
  _atom_site_occupancy
  C   C1        1.0  0.00986  0.51047  0.24655  1.0000
  C   C2        1.0  0.13122  0.56697  0.35021  1.0000
  C   C3        1.0  0.15054  0.60107  0.31756  1.0000
  C   C4        1.0  0.18622  0.61607  0.30231  1.0000
  C   C5        1.0  0.20320  0.59720  0.31949  1.0000
  C   C6        1.0  0.18374  0.56296  0.35113  1.0000
  C   C7        1.0  0.14814  0.54813  0.36699  1.0000
  C   C8        1.0  0.23838  0.61167  0.30657  1.0000
  C   C9        1.0  0.26180  0.63819  0.35581  1.0000
  C   C10       1.0  0.29727  0.65211  0.34825  1.0000
  C   C11       1.0  0.31245  0.63095  0.34898  1.0000
  C   C12       1.0  0.34866  0.64532  0.34840  1.0000
  C   C13       1.0  0.36983  0.68166  0.34906  1.0000
  C   C14       1.0  0.35545  0.70350  0.34839  1.0000
  C   C15       1.0  0.31912  0.68832  0.34895  1.0000
  C   C16       1.0  0.37701  0.73898  0.35596  1.0000
  C   C17       1.0  0.37391  0.76240  0.30669  1.0000
  C   C18       1.0  0.39462  0.79758  0.31957  1.0000
  C   C19       1.0  0.37985  0.81703  0.35123  1.0000
  C   C20       1.0  0.43047  0.81455  0.30238  1.0000
  C   C21       1.0  0.45116  0.85023  0.31757  1.0000
  C   C22       1.0  0.43638  0.86956  0.35023  1.0000
  C   C23       1.0  0.40063  0.85265  0.36702  1.0000
  C   C24       1.0  0.36259  0.62377  0.35596  1.0000
  C   C25       1.0  0.38911  0.62687  0.30673  1.0000
  C   C26       1.0  0.40358  0.60616  0.31961  1.0000
  C   C27       1.0  0.38469  0.57031  0.30242  1.0000
  C   C28       1.0  0.43781  0.62093  0.35128  1.0000
  C   C29       1.0  0.45264  0.60015  0.36707  1.0000
  C   C30       1.0  0.43379  0.56440  0.35029  1.0000
  C   C31       1.0  0.39969  0.54962  0.31763  1.0000
  H   H1        1.0  0.13875  0.61524  0.30600  1.0000
  H   H2        1.0  0.19971  0.64091  0.27930  1.0000
  H   H3        1.0  0.30839  0.70387  0.35228  1.0000
  H   H4        1.0  0.29691  0.60468  0.35228  1.0000
  H   H5        1.0  0.39610  0.69239  0.35240  1.0000
  H   H6        1.0  0.35986  0.55897  0.27940  1.0000
  H   H7        1.0  0.35398  0.80538  0.36458  1.0000
  H   H8        1.0  0.47712  0.86201  0.30605  1.0000
  H   H9        1.0  0.44182  0.80105  0.27937  1.0000
  H   H10       1.0  0.38551  0.52366  0.30608  1.0000
  H   H11       1.0  0.45203  0.64680  0.36462  1.0000
  H   H12       1.0  0.35502  0.75460  0.26205  1.0000
  H   H13       1.0  0.39581  0.74728  0.40115  1.0000
  H   H14       1.0  0.24616  0.60053  0.26204  1.0000
  H   H15       1.0  0.25350  0.64872  0.40095  1.0000
  H   H16       1.0  0.40022  0.64578  0.26212  1.0000
  H   H17       1.0  0.35207  0.60495  0.40113  1.0000
  N   N1        1.0  0.45622  0.90517  0.36967  1.0000
  H   H18       1.0  0.47552  0.90908  0.41342  1.0000
  N   N2        1.0  0.09561  0.55120  0.36967  1.0000
  H   H19       1.0  0.09170  0.56658  0.41344  1.0000
  N   N3        1.0  0.44956  0.54455  0.36971  1.0000
  H   H20       1.0  0.43418  0.52525  0.41347  1.0000
  C   C32       1.0  0.86971  0.43365  0.31755  1.0000
  C   C33       1.0  0.85038  0.39954  0.35015  1.0000
  C   C34       1.0  0.81469  0.38454  0.36533  1.0000
  C   C35       1.0  0.79773  0.40343  0.34818  1.0000
  C   C36       1.0  0.81720  0.43768  0.31663  1.0000
  C   C37       1.0  0.85281  0.45251  0.30081  1.0000
  C   C38       1.0  0.76255  0.38897  0.36104  1.0000
  C   C39       1.0  0.73913  0.36244  0.31181  1.0000
  C   C40       1.0  0.70365  0.34852  0.31942  1.0000
  C   C41       1.0  0.68847  0.36967  0.31872  1.0000
  C   C42       1.0  0.65226  0.35530  0.31938  1.0000
  C   C43       1.0  0.63110  0.31896  0.31874  1.0000
  C   C44       1.0  0.64547  0.29712  0.31939  1.0000
  C   C45       1.0  0.68181  0.31231  0.31876  1.0000
  C   C46       1.0  0.62393  0.26164  0.31178  1.0000
  C   C47       1.0  0.62703  0.23822  0.36103  1.0000
  C   C48       1.0  0.60632  0.20304  0.34817  1.0000
  C   C49       1.0  0.62110  0.18357  0.31662  1.0000
  C   C50       1.0  0.57046  0.18608  0.36530  1.0000
  C   C51       1.0  0.54978  0.15039  0.35013  1.0000
  C   C52       1.0  0.56456  0.13106  0.31752  1.0000
  C   C53       1.0  0.60032  0.14797  0.30079  1.0000
  C   C54       1.0  0.63833  0.37684  0.31176  1.0000
  C   C55       1.0  0.61181  0.37375  0.36099  1.0000
  C   C56       1.0  0.59734  0.39446  0.34811  1.0000
  C   C57       1.0  0.61623  0.43031  0.36527  1.0000
  C   C58       1.0  0.56310  0.37968  0.31649  1.0000
  C   C59       1.0  0.54827  0.40047  0.30070  1.0000
  C   C60       1.0  0.56712  0.43622  0.31746  1.0000
  C   C61       1.0  0.60123  0.45100  0.35008  1.0000
  H   H21       1.0  0.86215  0.38535  0.36162  1.0000
  H   H22       1.0  0.80119  0.35970  0.38826  1.0000
  H   H23       1.0  0.69255  0.29676  0.31540  1.0000
  H   H24       1.0  0.70401  0.39595  0.31538  1.0000
  H   H25       1.0  0.60483  0.30822  0.31535  1.0000
  H   H26       1.0  0.64107  0.44166  0.38827  1.0000
  H   H27       1.0  0.64696  0.19523  0.30323  1.0000
  H   H28       1.0  0.52381  0.13862  0.36160  1.0000
  H   H29       1.0  0.55911  0.19958  0.38825  1.0000
  H   H30       1.0  0.61541  0.47696  0.36160  1.0000
  H   H31       1.0  0.54888  0.35381  0.30316  1.0000
  H   H32       1.0  0.64592  0.24601  0.40568  1.0000
  H   H33       1.0  0.60512  0.25334  0.26658  1.0000
  H   H34       1.0  0.75476  0.40008  0.40567  1.0000
  H   H35       1.0  0.74743  0.35193  0.26664  1.0000
  H   H36       1.0  0.60070  0.35486  0.40564  1.0000
  H   H37       1.0  0.64884  0.39565  0.26656  1.0000
  N   N4        1.0  0.54471  0.09545  0.29808  1.0000
  H   H38       1.0  0.52542  0.09154  0.25430  1.0000
  N   N5        1.0  0.90532  0.44942  0.29810  1.0000
  H   H39       1.0  0.90923  0.43403  0.25432  1.0000
  N   N6        1.0  0.55135  0.45607  0.29804  1.0000
  H   H40       1.0  0.56673  0.47536  0.25427  1.0000
  C   C62       1.0  0.47977  0.51460  0.31321  1.0000
  C   C63       1.0  0.49029  0.49955  0.24654  1.0000
  N   N7        1.0  0.51033  0.48594  0.26961  1.0000
  H   H41       1.0  0.48312  0.49870  0.18146  1.0000
  C   C64       1.0  0.45801  0.52993  0.29103  1.0000
  H   H42       1.0  0.43420  0.51011  0.25981  1.0000
  H   H43       1.0  0.47211  0.55046  0.24228  1.0000
  C   C65       1.0  0.48617  0.96533  0.31319  1.0000
  C   C66       1.0  0.50123  0.99091  0.24653  1.0000
  N   N8        1.0  0.51484  0.02455  0.26961  1.0000
  H   H44       1.0  0.50208  0.98459  0.18144  1.0000
  C   C67       1.0  0.47085  0.92824  0.29100  1.0000
  H   H45       1.0  0.49067  0.92426  0.25977  1.0000
  H   H46       1.0  0.45032  0.92182  0.24224  1.0000
  C   C68       1.0  0.03544  0.52098  0.31320  1.0000
  N   N9        1.0  0.97622  0.49043  0.26963  1.0000
  H   H47       1.0  0.01618  0.51764  0.18146  1.0000
  C   C69       1.0  0.07253  0.54275  0.29101  1.0000
  H   H48       1.0  0.07651  0.56656  0.25979  1.0000
  H   H49       1.0  0.07896  0.52865  0.24224  1.0000
  H   H50       1.0  0.13457  0.52349  0.39113  1.0000
  H   H51       1.0  0.19541  0.54876  0.36454  1.0000
  H   H52       1.0  0.38955  0.86622  0.39115  1.0000
  H   H53       1.0  0.47729  0.61122  0.39119  1.0000
  H   H54       1.0  0.86639  0.47716  0.27671  1.0000
  H   H55       1.0  0.80555  0.45189  0.30324  1.0000
  H   H56       1.0  0.61139  0.13439  0.27669  1.0000
  H   H57       1.0  0.52362  0.38939  0.27661  1.0000
  C   C70       1.0  0.51063  0.50108  0.42123  1.0000
  N   N10       1.0  0.49059  0.51468  0.39815  1.0000
  C   C71       1.0  0.52114  0.48602  0.35455  1.0000
  H   H58       1.0  0.51780  0.50192  0.48631  1.0000
  C   C72       1.0  0.54291  0.47069  0.37673  1.0000
  H   H59       1.0  0.52882  0.45017  0.42549  1.0000
  H   H60       1.0  0.56672  0.49052  0.40793  1.0000
  C   C73       1.0  0.49969  0.00971  0.42122  1.0000
  N   N11       1.0  0.48609  0.97606  0.39813  1.0000
  C   C74       1.0  0.51475  0.03528  0.35456  1.0000
  H   H61       1.0  0.49884  0.01603  0.48630  1.0000
  C   C75       1.0  0.53008  0.07237  0.37675  1.0000
  H   H62       1.0  0.55060  0.07880  0.42553  1.0000
  H   H63       1.0  0.51025  0.07636  0.40795  1.0000
  C   C76       1.0  0.99107  0.49013  0.42123  1.0000
  N   N12       1.0  0.02471  0.51017  0.39815  1.0000
  C   C77       1.0  0.96549  0.47962  0.35458  1.0000
  H   H64       1.0  0.98475  0.48296  0.48632  1.0000
  C   C78       1.0  0.92840  0.45785  0.37677  1.0000
  H   H65       1.0  0.92197  0.47195  0.42554  1.0000
  H   H66       1.0  0.92441  0.43404  0.40797  1.0000
