data_image0
_chemical_formula_structural       C14H12C7NC12H12C2NC3NC3NC15H14CNHCNHCNHCNHCNHCNHC3NC2NC5NC3NC17H14CNC2NC4NC18H14C2NC19H12C3NC3H5C3NC3H5C3NC3H5C3NC3H5C3NC3H5C3NC3H5
_chemical_formula_sum              "C174 H114 N24"
_cell_length_a       41.6433
_cell_length_b       41.6434
_cell_length_c       14.9876
_cell_angle_alpha    90.0374
_cell_angle_beta     89.9626
_cell_angle_gamma    120

_space_group_name_H-M_alt    "P 1"
_space_group_IT_number       1

loop_
  _space_group_symop_operation_xyz
  'x, y, z'

loop_
  _atom_site_type_symbol
  _atom_site_label
  _atom_site_symmetry_multiplicity
  _atom_site_fract_x
  _atom_site_fract_y
  _atom_site_fract_z
  _atom_site_occupancy
  C   C1        1.0  0.95124  0.55026  0.31973  1.0000
  C   C2        1.0  0.09876  0.53636  0.32899  1.0000
  C   C3        1.0  0.11105  0.57469  0.31917  1.0000
  C   C4        1.0  0.14801  0.63613  0.30385  1.0000
  C   C5        1.0  0.14743  0.60275  0.30276  1.0000
  C   C6        1.0  0.16391  0.75644  0.27907  1.0000
  C   C7        1.0  0.13402  0.71979  0.27569  1.0000
  C   C8        1.0  0.12645  0.52584  0.33129  1.0000
  C   C9        1.0  0.17264  0.51616  0.25388  1.0000
  C   C10       1.0  0.14195  0.52167  0.25140  1.0000
  C   C11       1.0  0.92861  0.40520  0.27564  1.0000
  C   C12       1.0  0.89885  0.36849  0.27889  1.0000
  C   C13       1.0  0.92033  0.60322  0.25143  1.0000
  C   C14       1.0  0.88953  0.60854  0.25390  1.0000
  H   H1        1.0  0.87840  0.61027  0.19449  1.0000
  H   H2        1.0  0.93033  0.60074  0.19094  1.0000
  H   H3        1.0  0.99764  0.66546  0.37471  1.0000
  H   H4        1.0  0.94688  0.41310  0.22347  1.0000
  H   H5        1.0  0.89668  0.35056  0.22940  1.0000
  H   H6        1.0  0.06469  0.45963  0.37560  1.0000
  H   H7        1.0  0.17124  0.66137  0.29436  1.0000
  H   H8        1.0  0.17021  0.59996  0.29297  1.0000
  H   H9        1.0  0.13200  0.52417  0.19090  1.0000
  H   H10       1.0  0.18372  0.51430  0.19447  1.0000
  H   H11       1.0  0.11583  0.71197  0.22340  1.0000
  H   H12       1.0  0.16628  0.77438  0.22948  1.0000
  C   C15       1.0  0.43972  0.45287  0.36395  1.0000
  C   C16       1.0  0.44624  0.50944  0.34496  1.0000
  C   C17       1.0  0.54280  0.49372  0.31900  1.0000
  C   C18       1.0  0.61501  0.61342  0.34452  1.0000
  C   C19       1.0  0.62154  0.67000  0.36335  1.0000
  C   C20       1.0  0.55676  0.65515  0.32851  1.0000
  C   C21       1.0  0.51842  0.62911  0.31904  1.0000
  N   N1        1.0  0.50142  0.59198  0.33059  1.0000
  C   C22       1.0  0.45698  0.60459  0.30354  1.0000
  C   C23       1.0  0.49036  0.63740  0.30240  1.0000
  C   C24       1.0  0.33667  0.50013  0.27907  1.0000
  C   C25       1.0  0.37331  0.50687  0.27574  1.0000
  C   C26       1.0  0.56727  0.69335  0.33086  1.0000
  C   C27       1.0  0.57885  0.76697  0.33566  1.0000
  C   C28       1.0  0.57700  0.74922  0.25352  1.0000
  C   C29       1.0  0.57146  0.71301  0.25100  1.0000
  C   C30       1.0  0.68790  0.61604  0.27545  1.0000
  C   C31       1.0  0.72461  0.62298  0.27877  1.0000
  C   C32       1.0  0.48988  0.40983  0.25105  1.0000
  C   C33       1.0  0.48459  0.37373  0.25352  1.0000
  H   H13       1.0  0.48286  0.36084  0.19411  1.0000
  H   H14       1.0  0.49236  0.42229  0.19056  1.0000
  H   H15       1.0  0.42768  0.42500  0.37504  1.0000
  H   H16       1.0  0.68004  0.62642  0.22328  1.0000
  H   H17       1.0  0.74256  0.63873  0.22934  1.0000
  H   H18       1.0  0.63354  0.69786  0.37471  1.0000
  H   H19       1.0  0.43174  0.60254  0.29360  1.0000
  H   H20       1.0  0.49316  0.66293  0.29208  1.0000
  H   H21       1.0  0.56899  0.70055  0.19048  1.0000
  H   H22       1.0  0.57886  0.76214  0.19412  1.0000
  H   H23       1.0  0.38113  0.49645  0.22348  1.0000
  H   H24       1.0  0.31871  0.48448  0.22956  1.0000
  C   C34       1.0  0.64035  0.07965  0.36283  1.0000
  C   C35       1.0  0.58375  0.02958  0.34420  1.0000
  N   N2        1.0  0.58217  0.06098  0.33107  1.0000
  C   C36       1.0  0.62547  0.12958  0.32830  1.0000
  C   C37       1.0  0.59943  0.14188  0.31874  1.0000
  C   C38       1.0  0.47970  0.09438  0.34399  1.0000
  N   N3        1.0  0.48125  0.06297  0.33071  1.0000
  C   C39       1.0  0.42309  0.04431  0.36261  1.0000
  C   C40       1.0  0.43798  0.99435  0.32848  1.0000
  C   C41       1.0  0.46402  0.98204  0.31920  1.0000
  N   N4        1.0  0.50116  0.00219  0.33049  1.0000
  C   C42       1.0  0.48852  0.94509  0.30386  1.0000
  C   C43       1.0  0.45571  0.94566  0.30275  1.0000
  C   C44       1.0  0.56452  0.96342  0.34165  1.0000
  C   C45       1.0  0.57771  0.90233  0.34733  1.0000
  C   C46       1.0  0.59298  0.92925  0.27868  1.0000
  C   C47       1.0  0.58623  0.95914  0.27535  1.0000
  C   C48       1.0  0.39977  0.96666  0.33086  1.0000
  C   C49       1.0  0.32618  0.90460  0.33582  1.0000
  C   C50       1.0  0.34392  0.92044  0.25363  1.0000
  C   C51       1.0  0.38009  0.95115  0.25103  1.0000
  C   C52       1.0  0.47714  0.16466  0.27495  1.0000
  C   C53       1.0  0.47018  0.19441  0.27834  1.0000
  C   C54       1.0  0.68335  0.17284  0.25085  1.0000
  C   C55       1.0  0.73713  0.21958  0.33560  1.0000
  C   C56       1.0  0.71946  0.20364  0.25342  1.0000
  H   H25       1.0  0.73239  0.21477  0.19405  1.0000
  H   H26       1.0  0.67092  0.16287  0.19032  1.0000
  H   H27       1.0  0.66820  0.09551  0.37417  1.0000
  H   H28       1.0  0.56065  0.06119  0.30807  1.0000
  H   H29       1.0  0.50284  0.06270  0.30833  1.0000
  H   H30       1.0  0.46679  0.14641  0.22272  1.0000
  H   H31       1.0  0.45450  0.19664  0.22881  1.0000
  H   H32       1.0  0.39524  0.02847  0.37411  1.0000
  H   H33       1.0  0.49057  0.92191  0.29388  1.0000
  H   H34       1.0  0.43018  0.92292  0.29251  1.0000
  H   H35       1.0  0.39256  0.96105  0.19050  1.0000
  H   H36       1.0  0.33099  0.90932  0.19427  1.0000
  H   H37       1.0  0.59662  0.97733  0.22304  1.0000
  H   H38       1.0  0.60861  0.92690  0.22913  1.0000
  C   C57       1.0  0.27572  0.51925  0.26652  1.0000
  N   N5        1.0  0.24323  0.51929  0.26520  1.0000
  H   H39       1.0  0.29111  0.52652  0.20923  1.0000
  C   C58       1.0  0.57389  0.84920  0.26623  1.0000
  N   N6        1.0  0.57382  0.81665  0.26489  1.0000
  H   H40       1.0  0.56659  0.85727  0.20896  1.0000
  C   C59       1.0  0.24397  0.81734  0.26653  1.0000
  N   N7        1.0  0.27651  0.84983  0.26515  1.0000
  H   H41       1.0  0.23589  0.80193  0.20929  1.0000
  C   C60       1.0  0.78600  0.60450  0.26636  1.0000
  N   N8        1.0  0.81863  0.60474  0.26513  1.0000
  H   H42       1.0  0.77062  0.59704  0.20908  1.0000
  C   C61       1.0  0.48866  0.27426  0.26602  1.0000
  N   N9        1.0  0.48841  0.30665  0.26478  1.0000
  H   H43       1.0  0.49614  0.26633  0.20875  1.0000
  C   C62       1.0  0.81900  0.30710  0.26623  1.0000
  N   N10       1.0  0.78660  0.27448  0.26488  1.0000
  H   H44       1.0  0.82698  0.32250  0.20898  1.0000
  C   C63       1.0  0.01349  0.65348  0.36305  1.0000
  C   C64       1.0  0.05176  0.67205  0.36601  1.0000
  C   C65       1.0  0.06356  0.64693  0.34442  1.0000
  N   N11       1.0  0.03215  0.61397  0.33115  1.0000
  C   C66       1.0  0.00115  0.61650  0.34126  1.0000
  C   C67       1.0  0.96353  0.58861  0.32905  1.0000
  N   N12       1.0  0.97138  0.53327  0.33102  1.0000
  C   C68       1.0  0.95019  0.49606  0.32289  1.0000
  C   C69       1.0  0.91431  0.48882  0.30427  1.0000
  C   C70       1.0  0.91487  0.52220  0.30322  1.0000
  C   C71       1.0  0.96121  0.46913  0.33552  1.0000
  C   C72       1.0  0.99878  0.47811  0.34498  1.0000
  N   N13       1.0  0.03017  0.51111  0.33199  1.0000
  C   C73       1.0  0.06116  0.50855  0.34188  1.0000
  C   C74       1.0  0.04884  0.47163  0.36419  1.0000
  C   C75       1.0  0.01057  0.45305  0.36704  1.0000
  N   N14       1.0  0.09093  0.59170  0.33063  1.0000
  C   C76       1.0  0.11212  0.62891  0.32241  1.0000
  C   C77       1.0  0.10113  0.65585  0.33538  1.0000
  C   C78       1.0  0.12973  0.69383  0.34201  1.0000
  C   C79       1.0  0.15586  0.70564  0.41221  1.0000
  C   C80       1.0  0.18629  0.74193  0.41391  1.0000
  C   C81       1.0  0.19085  0.76809  0.34767  1.0000
  C   C82       1.0  0.14149  0.52328  0.41355  1.0000
  C   C83       1.0  0.17182  0.51722  0.41576  1.0000
  C   C84       1.0  0.18851  0.51429  0.33600  1.0000
  C   C85       1.0  0.93265  0.43113  0.34188  1.0000
  C   C86       1.0  0.87184  0.35668  0.34739  1.0000
  C   C87       1.0  0.87612  0.38282  0.41350  1.0000
  C   C88       1.0  0.90640  0.41920  0.41189  1.0000
  C   C89       1.0  0.93583  0.59912  0.33132  1.0000
  C   C90       1.0  0.92070  0.60160  0.41358  1.0000
  C   C91       1.0  0.89027  0.60750  0.41578  1.0000
  C   C92       1.0  0.87352  0.61026  0.33601  1.0000
  H   H45       1.0  0.87935  0.60784  0.47671  1.0000
  H   H46       1.0  0.93095  0.59791  0.47236  1.0000
  H   H47       1.0  0.06796  0.69963  0.38007  1.0000
  H   H48       1.0  0.03189  0.59211  0.30885  1.0000
  H   H49       1.0  0.03042  0.53273  0.30804  1.0000
  H   H50       1.0  0.89212  0.52498  0.29313  1.0000
  H   H51       1.0  0.89111  0.46358  0.29442  1.0000
  H   H52       1.0  0.90822  0.43748  0.46009  1.0000
  H   H53       1.0  0.85647  0.37610  0.46194  1.0000
  H   H54       1.0  0.99437  0.42546  0.38101  1.0000
  H   H55       1.0  0.13121  0.52698  0.47233  1.0000
  H   H56       1.0  0.18259  0.51670  0.47671  1.0000
  H   H57       1.0  0.20591  0.74853  0.46233  1.0000
  H   H58       1.0  0.15391  0.68730  0.46034  1.0000
  C   C93       1.0  0.42117  0.47258  0.36707  1.0000
  N   N15       1.0  0.47924  0.51104  0.33194  1.0000
  C   C94       1.0  0.47666  0.47747  0.34179  1.0000
  C   C95       1.0  0.50446  0.46768  0.32868  1.0000
  N   N16       1.0  0.55981  0.53084  0.33064  1.0000
  C   C96       1.0  0.59703  0.54685  0.32248  1.0000
  C   C97       1.0  0.60425  0.51821  0.30367  1.0000
  C   C98       1.0  0.57086  0.48540  0.30248  1.0000
  C   C99       1.0  0.62396  0.58479  0.33527  1.0000
  N   N17       1.0  0.58203  0.61183  0.33137  1.0000
  C   C100      1.0  0.58459  0.64539  0.34128  1.0000
  C   C101      1.0  0.64008  0.65029  0.36655  1.0000
  C   C102      1.0  0.46421  0.57596  0.32237  1.0000
  C   C103      1.0  0.43728  0.53803  0.33532  1.0000
  C   C104      1.0  0.39929  0.52864  0.34193  1.0000
  C   C105      1.0  0.38750  0.54305  0.41205  1.0000
  C   C106      1.0  0.35120  0.53717  0.41377  1.0000
  C   C107      1.0  0.32501  0.51545  0.34763  1.0000
  C   C108      1.0  0.56980  0.71097  0.41314  1.0000
  C   C109      1.0  0.57588  0.74736  0.41539  1.0000
  C   C110      1.0  0.66196  0.59421  0.34167  1.0000
  C   C111      1.0  0.73638  0.60780  0.34733  1.0000
  C   C112      1.0  0.71022  0.58600  0.41345  1.0000
  C   C113      1.0  0.67384  0.57991  0.41173  1.0000
  C   C114      1.0  0.49395  0.42948  0.33094  1.0000
  C   C115      1.0  0.49149  0.41190  0.41319  1.0000
  C   C116      1.0  0.48560  0.37557  0.41540  1.0000
  C   C117      1.0  0.48285  0.35604  0.33564  1.0000
  H   H59       1.0  0.48523  0.36434  0.47634  1.0000
  H   H60       1.0  0.49513  0.42586  0.47198  1.0000
  H   H61       1.0  0.39352  0.46115  0.38045  1.0000
  H   H62       1.0  0.50086  0.53240  0.30793  1.0000
  H   H63       1.0  0.56031  0.59033  0.30822  1.0000
  H   H64       1.0  0.56807  0.45987  0.29228  1.0000
  H   H65       1.0  0.62949  0.52024  0.29383  1.0000
  H   H66       1.0  0.65554  0.56345  0.45985  1.0000
  H   H67       1.0  0.71691  0.57305  0.46183  1.0000
  H   H68       1.0  0.66770  0.66171  0.38021  1.0000
  H   H69       1.0  0.56611  0.69701  0.47192  1.0000
  H   H70       1.0  0.57639  0.75868  0.47635  1.0000
  H   H71       1.0  0.34460  0.55023  0.46213  1.0000
  H   H72       1.0  0.40584  0.55950  0.46011  1.0000
  C   C118      1.0  0.62064  0.04139  0.36601  1.0000
  C   C119      1.0  0.61571  0.09198  0.34100  1.0000
  N   N18       1.0  0.56229  0.12175  0.33016  1.0000
  C   C120      1.0  0.54627  0.14295  0.32201  1.0000
  C   C121      1.0  0.57494  0.17884  0.30358  1.0000
  C   C122      1.0  0.60775  0.17827  0.30248  1.0000
  C   C123      1.0  0.50833  0.13194  0.33483  1.0000
  C   C124      1.0  0.44772  0.03197  0.34080  1.0000
  C   C125      1.0  0.44279  0.08258  0.36565  1.0000
  C   C126      1.0  0.51718  0.98099  0.32241  1.0000
  C   C127      1.0  0.55512  0.99201  0.33504  1.0000
  C   C128      1.0  0.55018  0.93729  0.41187  1.0000
  C   C129      1.0  0.55605  0.90687  0.41355  1.0000
  C   C130      1.0  0.38218  0.95164  0.41318  1.0000
  C   C131      1.0  0.34578  0.92135  0.41551  1.0000
  C   C132      1.0  0.49891  0.16052  0.34127  1.0000
  C   C133      1.0  0.48533  0.22136  0.34697  1.0000
  C   C134      1.0  0.50708  0.21700  0.41315  1.0000
  C   C135      1.0  0.51318  0.18671  0.41139  1.0000
  C   C136      1.0  0.66367  0.15729  0.33069  1.0000
  C   C137      1.0  0.68122  0.17236  0.41300  1.0000
  C   C138      1.0  0.71754  0.20282  0.41530  1.0000
  H   H73       1.0  0.72878  0.21366  0.47628  1.0000
  H   H74       1.0  0.66723  0.16208  0.47175  1.0000
  H   H75       1.0  0.63206  0.02519  0.37959  1.0000
  H   H76       1.0  0.63329  0.20102  0.29247  1.0000
  H   H77       1.0  0.57292  0.20205  0.29389  1.0000
  H   H78       1.0  0.52958  0.18485  0.45960  1.0000
  H   H79       1.0  0.52001  0.23664  0.46160  1.0000
  H   H80       1.0  0.43138  0.09878  0.37950  1.0000
  H   H81       1.0  0.39616  0.96194  0.47193  1.0000
  H   H82       1.0  0.33451  0.91054  0.47649  1.0000
  H   H83       1.0  0.54304  0.88726  0.46200  1.0000
  H   H84       1.0  0.53377  0.93923  0.46001  1.0000
  C   C139      1.0  0.26546  0.50288  0.42212  1.0000
  C   C140      1.0  0.28895  0.51171  0.34623  1.0000
  C   C141      1.0  0.22137  0.51172  0.33844  1.0000
  N   N19       1.0  0.23340  0.50383  0.41518  1.0000
  C   C142      1.0  0.27372  0.49357  0.51135  1.0000
  C   C143      1.0  0.24417  0.45673  0.55327  1.0000
  C   C144      1.0  0.28110  0.46105  0.52187  1.0000
  H   H85       1.0  0.28714  0.51592  0.56011  1.0000
  H   H86       1.0  0.30041  0.46403  0.57477  1.0000
  H   H87       1.0  0.27952  0.44550  0.46177  1.0000
  H   H88       1.0  0.22032  0.43811  0.51243  1.0000
  H   H89       1.0  0.24095  0.45662  0.62559  1.0000
  C   C145      1.0  0.59027  0.85537  0.42181  1.0000
  C   C146      1.0  0.58146  0.87002  0.34592  1.0000
  C   C147      1.0  0.58140  0.80240  0.33813  1.0000
  N   N20       1.0  0.58931  0.82235  0.41486  1.0000
  C   C148      1.0  0.59964  0.87301  0.51103  1.0000
  C   C149      1.0  0.63649  0.88030  0.55283  1.0000
  C   C150      1.0  0.63217  0.91291  0.52148  1.0000
  H   H90       1.0  0.57730  0.86410  0.55985  1.0000
  H   H91       1.0  0.62922  0.92927  0.57441  1.0000
  H   H92       1.0  0.64769  0.92683  0.46135  1.0000
  H   H93       1.0  0.65508  0.87504  0.51193  1.0000
  H   H94       1.0  0.63663  0.87723  0.62515  1.0000
  C   C151      1.0  0.23782  0.82766  0.42211  1.0000
  C   C152      1.0  0.22316  0.80415  0.34625  1.0000
  C   C153      1.0  0.29077  0.87171  0.33835  1.0000
  N   N21       1.0  0.27082  0.85971  0.41511  1.0000
  C   C154      1.0  0.22019  0.81945  0.51133  1.0000
  C   C155      1.0  0.21292  0.84902  0.55315  1.0000
  C   C156      1.0  0.18030  0.81209  0.52182  1.0000
  H   H95       1.0  0.22910  0.80604  0.56015  1.0000
  H   H96       1.0  0.16394  0.79281  0.57475  1.0000
  H   H97       1.0  0.16637  0.81366  0.46169  1.0000
  H   H98       1.0  0.21818  0.87286  0.51225  1.0000
  H   H99       1.0  0.21600  0.85228  0.62547  1.0000
  C   C157      1.0  0.79602  0.62086  0.42201  1.0000
  C   C158      1.0  0.77257  0.61187  0.34605  1.0000
  C   C159      1.0  0.84047  0.61249  0.33842  1.0000
  N   N22       1.0  0.82826  0.62023  0.41514  1.0000
  C   C160      1.0  0.78758  0.63009  0.51121  1.0000
  C   C161      1.0  0.81689  0.66703  0.55318  1.0000
  C   C162      1.0  0.77985  0.66239  0.52166  1.0000
  H   H100      1.0  0.77426  0.60772  0.55994  1.0000
  H   H101      1.0  0.76044  0.65925  0.57450  1.0000
  H   H102      1.0  0.78135  0.67787  0.46155  1.0000
  H   H103      1.0  0.84071  0.68577  0.51240  1.0000
  H   H104      1.0  0.82007  0.66718  0.62551  1.0000
  C   C163      1.0  0.47225  0.26798  0.42164  1.0000
  C   C164      1.0  0.48127  0.25350  0.34570  1.0000
  C   C165      1.0  0.48062  0.32075  0.33804  1.0000
  N   N23       1.0  0.47286  0.30082  0.41476  1.0000
  C   C166      1.0  0.46300  0.25034  0.51083  1.0000
  C   C167      1.0  0.42605  0.24273  0.55276  1.0000
  C   C168      1.0  0.43070  0.21032  0.52125  1.0000
  H   H105      1.0  0.48536  0.25941  0.55959  1.0000
  H   H106      1.0  0.43383  0.19407  0.57410  1.0000
  H   H107      1.0  0.41524  0.19632  0.46112  1.0000
  H   H108      1.0  0.40732  0.24779  0.51195  1.0000
  H   H109      1.0  0.42588  0.24578  0.62508  1.0000
  C   C169      1.0  0.82518  0.29701  0.42188  1.0000
  C   C170      1.0  0.83972  0.32049  0.34598  1.0000
  C   C171      1.0  0.77244  0.25260  0.33810  1.0000
  N   N24       1.0  0.79231  0.26479  0.41489  1.0000
  C   C172      1.0  0.84273  0.30542  0.51116  1.0000
  C   C173      1.0  0.85032  0.27610  0.55316  1.0000
  C   C174      1.0  0.88275  0.31317  0.52182  1.0000
  H   H110      1.0  0.83359  0.31870  0.55986  1.0000
  H   H111      1.0  0.89894  0.33255  0.57475  1.0000
  H   H112      1.0  0.89682  0.31171  0.46178  1.0000
  H   H113      1.0  0.84531  0.25231  0.51234  1.0000
  H   H114      1.0  0.84720  0.27288  0.62547  1.0000
