data_image0
_chemical_formula_structural       C12H6CH2C2O2C12H6CH2C2O2C12H6CH2C2O2NC2HNHNC2HNHNC2HNHNC2HNHNC2HNHNC2HNHC12H6C2H2C2O2C12H6C2H2C2O2C12H6C2H2C2O2CNCNO2NHCNCNO2NHCNCNO2NHCNCNO2NHCNCNO2NHCNCNO2NH
_chemical_formula_sum              "C117 H66 O24 N30"
_cell_length_a       34.2727
_cell_length_b       34.2727
_cell_length_c       15.0772
_cell_angle_alpha    90
_cell_angle_beta     90
_cell_angle_gamma    120

_space_group_name_H-M_alt    "P 1"
_space_group_IT_number       1

loop_
  _space_group_symop_operation_xyz
  'x, y, z'

loop_
  _atom_site_type_symbol
  _atom_site_label
  _atom_site_symmetry_multiplicity
  _atom_site_fract_x
  _atom_site_fract_y
  _atom_site_fract_z
  _atom_site_occupancy
  C   C1        1.0  0.96862  0.51241  0.27540  1.0000
  C   C2        1.0  0.97200  0.51529  0.18139  1.0000
  C   C3        1.0  0.02017  0.47952  0.18168  1.0000
  C   C4        1.0  0.02332  0.48234  0.27572  1.0000
  C   C5        1.0  0.05296  0.47024  0.31730  1.0000
  C   C6        1.0  0.07841  0.45571  0.26775  1.0000
  C   C7        1.0  0.07052  0.44872  0.17572  1.0000
  C   C8        1.0  0.04222  0.46109  0.13294  1.0000
  C   C9        1.0  0.95002  0.53369  0.13235  1.0000
  C   C10       1.0  0.92160  0.54601  0.17480  1.0000
  C   C11       1.0  0.91347  0.53897  0.26676  1.0000
  C   C12       1.0  0.93887  0.52448  0.31661  1.0000
  H   H1        1.0  0.06479  0.57873  0.27567  1.0000
  H   H2        1.0  0.92707  0.41609  0.27553  1.0000
  H   H3        1.0  0.08728  0.43700  0.13783  1.0000
  H   H4        1.0  0.03956  0.45853  0.06518  1.0000
  H   H5        1.0  0.95291  0.53639  0.06463  1.0000
  H   H6        1.0  0.90506  0.55790  0.13668  1.0000
  C   C13       1.0  0.99615  0.49743  0.12997  1.0000
  H   H7        1.0  0.02086  0.52444  0.08758  1.0000
  H   H8        1.0  0.97153  0.47043  0.08740  1.0000
  C   C14       1.0  0.87747  0.54209  0.30591  1.0000
  C   C15       1.0  0.11444  0.45275  0.30715  1.0000
  O   O1        1.0  0.11783  0.66785  0.27178  1.0000
  O   O2        1.0  0.87400  0.32690  0.27173  1.0000
  C   C16       1.0  0.48002  0.45455  0.27615  1.0000
  C   C17       1.0  0.47694  0.45490  0.18216  1.0000
  C   C18       1.0  0.51324  0.53888  0.18187  1.0000
  C   C19       1.0  0.51064  0.53942  0.27594  1.0000
  C   C20       1.0  0.52311  0.58132  0.31722  1.0000
  C   C21       1.0  0.53775  0.62124  0.26739  1.0000
  C   C22       1.0  0.54462  0.62009  0.17537  1.0000
  C   C23       1.0  0.53181  0.57927  0.13284  1.0000
  C   C24       1.0  0.45819  0.41441  0.13341  1.0000
  C   C25       1.0  0.44582  0.37371  0.17608  1.0000
  C   C26       1.0  0.45312  0.37277  0.26796  1.0000
  C   C27       1.0  0.46786  0.41277  0.31761  1.0000
  H   H9        1.0  0.41429  0.48528  0.27651  1.0000
  H   H10       1.0  0.57653  0.50910  0.27558  1.0000
  H   H11       1.0  0.55653  0.64851  0.13722  1.0000
  H   H12       1.0  0.53433  0.57903  0.06508  1.0000
  H   H13       1.0  0.45536  0.41449  0.06570  1.0000
  H   H14       1.0  0.43379  0.34520  0.13816  1.0000
  C   C28       1.0  0.49493  0.49683  0.13045  1.0000
  H   H15       1.0  0.46790  0.49465  0.08829  1.0000
  H   H16       1.0  0.52173  0.49891  0.08766  1.0000
  C   C29       1.0  0.45021  0.33375  0.30708  1.0000
  C   C30       1.0  0.54117  0.66047  0.30661  1.0000
  O   O3        1.0  0.32493  0.44973  0.27381  1.0000
  O   O4        1.0  0.66566  0.54509  0.27137  1.0000
  C   C31       1.0  0.53844  0.02466  0.27548  1.0000
  C   C32       1.0  0.53802  0.02136  0.18145  1.0000
  C   C33       1.0  0.45409  0.97325  0.18147  1.0000
  C   C34       1.0  0.45367  0.97000  0.27550  1.0000
  C   C35       1.0  0.41188  0.94034  0.31690  1.0000
  C   C36       1.0  0.37194  0.91497  0.26719  1.0000
  C   C37       1.0  0.37293  0.92302  0.17522  1.0000
  C   C38       1.0  0.41366  0.95124  0.13257  1.0000
  C   C39       1.0  0.57844  0.04335  0.13255  1.0000
  C   C40       1.0  0.61917  0.07165  0.17517  1.0000
  C   C41       1.0  0.62013  0.07975  0.26711  1.0000
  C   C42       1.0  0.58022  0.05433  0.31688  1.0000
  H   H17       1.0  0.50866  0.92854  0.27578  1.0000
  H   H18       1.0  0.48375  0.06631  0.27533  1.0000
  H   H19       1.0  0.34448  0.90639  0.13718  1.0000
  H   H20       1.0  0.41380  0.95406  0.06484  1.0000
  H   H21       1.0  0.57831  0.04049  0.06483  1.0000
  H   H22       1.0  0.64761  0.08830  0.13712  1.0000
  C   C43       1.0  0.49605  0.99728  0.12989  1.0000
  H   H23       1.0  0.49837  0.97258  0.08748  1.0000
  H   H24       1.0  0.49374  0.02193  0.08735  1.0000
  C   C44       1.0  0.65916  0.11578  0.30634  1.0000
  C   C45       1.0  0.33285  0.87903  0.30646  1.0000
  O   O5        1.0  0.54494  0.87574  0.27197  1.0000
  O   O6        1.0  0.44771  0.11945  0.27136  1.0000
  N   N1        1.0  0.26750  0.48502  0.27436  1.0000
  C   C46       1.0  0.22907  0.48038  0.23955  1.0000
  C   C47       1.0  0.19343  0.47287  0.29685  1.0000
  H   H25       1.0  0.22633  0.48189  0.17227  1.0000
  N   N2        1.0  0.15467  0.46921  0.26407  1.0000
  H   H26       1.0  0.15712  0.48168  0.20481  1.0000
  N   N3        1.0  0.51333  0.78407  0.27269  1.0000
  C   C48       1.0  0.51764  0.75004  0.23803  1.0000
  C   C49       1.0  0.52273  0.72047  0.29570  1.0000
  H   H27       1.0  0.51741  0.74651  0.17066  1.0000
  N   N4        1.0  0.52570  0.68498  0.26305  1.0000
  H   H28       1.0  0.51346  0.67530  0.20354  1.0000
  N   N5        1.0  0.20964  0.72746  0.27244  1.0000
  C   C50       1.0  0.24370  0.76577  0.23783  1.0000
  C   C51       1.0  0.27318  0.80048  0.29554  1.0000
  H   H29       1.0  0.24727  0.76909  0.17047  1.0000
  N   N6        1.0  0.30860  0.83899  0.26296  1.0000
  H   H30       1.0  0.31834  0.83651  0.20344  1.0000
  N   N7        1.0  0.72576  0.51344  0.27154  1.0000
  C   C52       1.0  0.76423  0.51803  0.23696  1.0000
  C   C53       1.0  0.79894  0.52330  0.29470  1.0000
  H   H31       1.0  0.76763  0.51795  0.16960  1.0000
  N   N8        1.0  0.83754  0.52656  0.26212  1.0000
  H   H32       1.0  0.83513  0.51446  0.20253  1.0000
  N   N9        1.0  0.47957  0.21122  0.27210  1.0000
  C   C54       1.0  0.47495  0.24511  0.23773  1.0000
  C   C55       1.0  0.46955  0.27440  0.29565  1.0000
  H   H33       1.0  0.47503  0.24866  0.17038  1.0000
  N   N10       1.0  0.46607  0.30965  0.26325  1.0000
  H   H34       1.0  0.47807  0.31939  0.20360  1.0000
  N   N11       1.0  0.78211  0.26745  0.27211  1.0000
  C   C56       1.0  0.74810  0.22909  0.23755  1.0000
  C   C57       1.0  0.71867  0.19438  0.29530  1.0000
  H   H35       1.0  0.74452  0.22574  0.17019  1.0000
  N   N12       1.0  0.68332  0.15580  0.26275  1.0000
  H   H36       1.0  0.67353  0.15823  0.20326  1.0000
  C   C58       1.0  0.96368  0.45663  0.38487  1.0000
  C   C59       1.0  0.96579  0.45682  0.47906  1.0000
  C   C60       1.0  0.02592  0.53796  0.47910  1.0000
  C   C61       1.0  0.02812  0.53816  0.38492  1.0000
  C   C62       1.0  0.05396  0.57714  0.52830  1.0000
  C   C63       1.0  0.08595  0.61625  0.48546  1.0000
  C   C64       1.0  0.09145  0.61684  0.39264  1.0000
  C   C65       1.0  0.06147  0.57825  0.34324  1.0000
  C   C66       1.0  0.93037  0.41655  0.34310  1.0000
  C   C67       1.0  0.90031  0.37798  0.39246  1.0000
  C   C68       1.0  0.90573  0.37855  0.48530  1.0000
  C   C69       1.0  0.93771  0.41764  0.52821  1.0000
  H   H37       1.0  0.88598  0.35076  0.52329  1.0000
  H   H38       1.0  0.93968  0.41749  0.59607  1.0000
  H   H39       1.0  0.05191  0.57729  0.59615  1.0000
  H   H40       1.0  0.10563  0.64405  0.52347  1.0000
  H   H41       1.0  0.05789  0.47460  0.38438  1.0000
  H   H42       1.0  0.93379  0.52008  0.38367  1.0000
  C   C70       1.0  0.99593  0.49739  0.33026  1.0000
  C   C71       1.0  0.99584  0.49739  0.53060  1.0000
  H   H43       1.0  0.97476  0.50526  0.57305  1.0000
  H   H44       1.0  0.01690  0.48951  0.57311  1.0000
  C   C72       1.0  0.12687  0.65532  0.35085  1.0000
  C   C73       1.0  0.86488  0.33955  0.35060  1.0000
  O   O7        1.0  0.10913  0.43753  0.39167  1.0000
  O   O8        1.0  0.88256  0.55700  0.39065  1.0000
  C   C74       1.0  0.53617  0.50531  0.38513  1.0000
  C   C75       1.0  0.53608  0.50721  0.47933  1.0000
  C   C76       1.0  0.45514  0.48694  0.47978  1.0000
  C   C77       1.0  0.45484  0.48884  0.38559  1.0000
  C   C78       1.0  0.41616  0.47634  0.52919  1.0000
  C   C79       1.0  0.37717  0.46969  0.48655  1.0000
  C   C80       1.0  0.37651  0.47448  0.39371  1.0000
  C   C81       1.0  0.41484  0.48246  0.34408  1.0000
  C   C82       1.0  0.57613  0.51184  0.34318  1.0000
  C   C83       1.0  0.61471  0.52018  0.39232  1.0000
  C   C84       1.0  0.61422  0.52496  0.48520  1.0000
  C   C85       1.0  0.57523  0.51800  0.52830  1.0000
  H   H45       1.0  0.64202  0.53292  0.52308  1.0000
  H   H46       1.0  0.57547  0.52016  0.59617  1.0000
  H   H47       1.0  0.41608  0.47423  0.59704  1.0000
  H   H48       1.0  0.34953  0.46205  0.52470  1.0000
  H   H49       1.0  0.51884  0.58203  0.38432  1.0000
  H   H50       1.0  0.47245  0.41219  0.38461  1.0000
  C   C86       1.0  0.49542  0.49703  0.33073  1.0000
  C   C87       1.0  0.49566  0.49703  0.53107  1.0000
  H   H51       1.0  0.48756  0.46799  0.57342  1.0000
  H   H52       1.0  0.50384  0.52601  0.57367  1.0000
  C   C88       1.0  0.33823  0.47193  0.35215  1.0000
  C   C89       1.0  0.65314  0.52327  0.35019  1.0000
  O   O9        1.0  0.55626  0.67028  0.39124  1.0000
  O   O10       1.0  0.43554  0.32399  0.39197  1.0000
  C   C90       1.0  0.48754  0.02964  0.38472  1.0000
  C   C91       1.0  0.48552  0.02750  0.47890  1.0000
  C   C92       1.0  0.50647  0.96732  0.47914  1.0000
  C   C93       1.0  0.50457  0.96515  0.38495  1.0000
  C   C94       1.0  0.51760  0.93931  0.52844  1.0000
  C   C95       1.0  0.52490  0.90742  0.48568  1.0000
  C   C96       1.0  0.52009  0.90192  0.39284  1.0000
  C   C97       1.0  0.51143  0.93185  0.34335  1.0000
  C   C98       1.0  0.48086  0.06301  0.34290  1.0000
  C   C99       1.0  0.47241  0.09313  0.39220  1.0000
  C   C100      1.0  0.46748  0.08768  0.48503  1.0000
  C   C101      1.0  0.47446  0.05563  0.52798  1.0000
  H   H53       1.0  0.45945  0.10745  0.52297  1.0000
  H   H54       1.0  0.47227  0.05365  0.59584  1.0000
  H   H55       1.0  0.51976  0.94137  0.59629  1.0000
  H   H56       1.0  0.53306  0.88780  0.52378  1.0000
  H   H57       1.0  0.41125  0.93536  0.38399  1.0000
  H   H58       1.0  0.58082  0.05944  0.38391  1.0000
  C   C102      1.0  0.49605  0.99736  0.33020  1.0000
  C   C103      1.0  0.49593  0.99740  0.53054  1.0000
  H   H59       1.0  0.52483  0.01845  0.57312  1.0000
  H   H60       1.0  0.46693  0.97634  0.57291  1.0000
  C   C104      1.0  0.52341  0.86662  0.35109  1.0000
  C   C105      1.0  0.46941  0.12856  0.35030  1.0000
  O   O11       1.0  0.32301  0.88424  0.39111  1.0000
  O   O12       1.0  0.66911  0.11061  0.39093  1.0000
  C   C106      1.0  0.27420  0.48349  0.36283  1.0000
  N   N13       1.0  0.20051  0.47195  0.38531  1.0000
  C   C107      1.0  0.23904  0.47721  0.42148  1.0000
  N   N14       1.0  0.23932  0.47447  0.51471  1.0000
  O   O13       1.0  0.26823  0.51115  0.54849  1.0000
  O   O14       1.0  0.24662  0.44374  0.53974  1.0000
  N   N15       1.0  0.31393  0.48852  0.39239  1.0000
  H   H61       1.0  0.32523  0.50488  0.44788  1.0000
  C   C108      1.0  0.51319  0.79137  0.36126  1.0000
  N   N16       1.0  0.52194  0.72746  0.38420  1.0000
  C   C109      1.0  0.51718  0.76126  0.41997  1.0000
  N   N17       1.0  0.51724  0.76645  0.51272  1.0000
  O   O15       1.0  0.48550  0.73171  0.54726  1.0000
  O   O16       1.0  0.55355  0.77240  0.54524  1.0000
  N   N18       1.0  0.50799  0.82591  0.39152  1.0000
  H   H62       1.0  0.49193  0.82064  0.44757  1.0000
  C   C110      1.0  0.20227  0.72004  0.36100  1.0000
  N   N19       1.0  0.26613  0.79271  0.38405  1.0000
  C   C111      1.0  0.23233  0.75413  0.41976  1.0000
  N   N20       1.0  0.22704  0.74901  0.51250  1.0000
  O   O17       1.0  0.26176  0.75204  0.54721  1.0000
  O   O18       1.0  0.22105  0.77937  0.54488  1.0000
  N   N21       1.0  0.16764  0.68035  0.39120  1.0000
  H   H63       1.0  0.17283  0.66951  0.44725  1.0000
  C   C112      1.0  0.71821  0.51311  0.36010  1.0000
  N   N22       1.0  0.79103  0.52230  0.38319  1.0000
  C   C113      1.0  0.75233  0.51723  0.41887  1.0000
  N   N23       1.0  0.74710  0.51715  0.51162  1.0000
  O   O19       1.0  0.75032  0.48552  0.54606  1.0000
  O   O20       1.0  0.77727  0.55352  0.54431  1.0000
  N   N24       1.0  0.67836  0.50768  0.39030  1.0000
  H   H64       1.0  0.66757  0.49152  0.44623  1.0000
  C   C114      1.0  0.47985  0.20386  0.36063  1.0000
  N   N25       1.0  0.47052  0.26739  0.38410  1.0000
  C   C115      1.0  0.47567  0.23377  0.41958  1.0000
  N   N26       1.0  0.47570  0.22848  0.51229  1.0000
  O   O21       1.0  0.50728  0.26331  0.54691  1.0000
  O   O22       1.0  0.43930  0.22218  0.54498  1.0000
  N   N27       1.0  0.48516  0.16935  0.39059  1.0000
  H   H65       1.0  0.50128  0.17458  0.44656  1.0000
  C   C116      1.0  0.78947  0.27490  0.36067  1.0000
  N   N28       1.0  0.72571  0.20218  0.38379  1.0000
  C   C117      1.0  0.75946  0.24081  0.41947  1.0000
  N   N29       1.0  0.76475  0.24596  0.51220  1.0000
  O   O23       1.0  0.73001  0.24286  0.54693  1.0000
  O   O24       1.0  0.77084  0.21567  0.54462  1.0000
  N   N30       1.0  0.82407  0.31461  0.39083  1.0000
  H   H66       1.0  0.81884  0.32550  0.44679  1.0000
