data_image0
_chemical_formula_structural       C2HC3H2C2O2C3OH2NHC3OH2NHC4H2C3HC2O2C3HOHNHC3HOHNHC2HC3H2C2O2C3OH2NHC3OH2NHC4H2C3HC2O2C3HOHNHC3HOHNHC2HC3H2C2O2C3OH2NHC3OH2NHC4H2C3HC2O2C3HOHNHC3HOHNHC2HC3H2C2O2C3OH2NHC3OH2NHC4H2C3HC2O2C3HOHNHC3HOHNH
_chemical_formula_sum              "C112 H72 O32 N16"
_cell_length_a       30.3778
_cell_length_b       30.3778
_cell_length_c       15
_cell_angle_alpha    90
_cell_angle_beta     90
_cell_angle_gamma    90

_space_group_name_H-M_alt    "P 1"
_space_group_IT_number       1

loop_
  _space_group_symop_operation_xyz
  'x, y, z'

loop_
  _atom_site_type_symbol
  _atom_site_label
  _atom_site_symmetry_multiplicity
  _atom_site_fract_x
  _atom_site_fract_y
  _atom_site_fract_z
  _atom_site_occupancy
  C   C1        1.0  0.09186  0.46598  0.40314  1.0000
  C   C2        1.0  0.06122  0.49427  0.36058  1.0000
  H   H1        1.0  0.07329  0.02263  0.33396  1.0000
  C   C3        1.0  0.44150  0.00309  0.28603  1.0000
  C   C4        1.0  0.41179  0.03223  0.24355  1.0000
  C   C5        1.0  0.42687  0.07519  0.22503  1.0000
  H   H2        1.0  0.43148  0.47122  0.29069  1.0000
  H   H3        1.0  0.40524  0.09690  0.19691  1.0000
  C   C6        1.0  0.36676  0.02163  0.22830  1.0000
  C   C7        1.0  0.13817  0.47347  0.40362  1.0000
  O   O1        1.0  0.16279  0.44716  0.45728  1.0000
  O   O2        1.0  0.34381  0.04820  0.17226  1.0000
  C   C8        1.0  0.99894  0.28071  0.28213  1.0000
  C   C9        1.0  0.00071  0.23500  0.26613  1.0000
  C   C10       1.0  0.99665  0.29851  0.36928  1.0000
  O   O3        1.0  0.01126  0.22072  0.18245  1.0000
  H   H4        1.0  0.00228  0.30143  0.22869  1.0000
  H   H5        1.0  0.98964  0.23296  0.14029  1.0000
  N   N1        1.0  0.99735  0.34347  0.37761  1.0000
  H   H6        1.0  0.98837  0.35988  0.32470  1.0000
  C   C11       1.0  0.22254  0.99701  0.24117  1.0000
  C   C12       1.0  0.26836  0.99575  0.22509  1.0000
  C   C13       1.0  0.20479  0.99864  0.32846  1.0000
  O   O4        1.0  0.28281  0.98642  0.14103  1.0000
  H   H7        1.0  0.20178  0.99374  0.18781  1.0000
  H   H8        1.0  0.27113  0.00907  0.10051  1.0000
  N   N2        1.0  0.15993  0.99650  0.33860  1.0000
  H   H9        1.0  0.14243  0.00402  0.28631  1.0000
  C   C14       1.0  0.01541  0.48464  0.35239  1.0000
  C   C15       1.0  0.00304  0.44156  0.38066  1.0000
  C   C16       1.0  0.03219  0.41187  0.42315  1.0000
  C   C17       1.0  0.07514  0.42694  0.44171  1.0000
  H   H10       1.0  0.47119  0.43151  0.37587  1.0000
  H   H11       1.0  0.09685  0.40531  0.46984  1.0000
  C   C18       1.0  0.48462  0.01543  0.31411  1.0000
  C   C19       1.0  0.46595  0.09189  0.26343  1.0000
  C   C20       1.0  0.49425  0.06123  0.30588  1.0000
  H   H12       1.0  0.02265  0.07329  0.33241  1.0000
  C   C21       1.0  0.47354  0.13818  0.26299  1.0000
  C   C22       1.0  0.02157  0.36684  0.43848  1.0000
  O   O5        1.0  0.44694  0.16286  0.20997  1.0000
  O   O6        1.0  0.04807  0.34396  0.49476  1.0000
  C   C23       1.0  0.99867  0.20478  0.33819  1.0000
  C   C24       1.0  0.99713  0.22253  0.42550  1.0000
  C   C25       1.0  0.99587  0.26836  0.44156  1.0000
  H   H13       1.0  0.99383  0.20177  0.47885  1.0000
  O   O7        1.0  0.98653  0.28274  0.52566  1.0000
  H   H14       1.0  0.00924  0.27111  0.56611  1.0000
  N   N3        1.0  0.99655  0.15991  0.32803  1.0000
  H   H15       1.0  0.00420  0.14248  0.38033  1.0000
  C   C26       1.0  0.29851  0.99658  0.29738  1.0000
  C   C27       1.0  0.28072  0.99890  0.38453  1.0000
  C   C28       1.0  0.23501  0.00071  0.40050  1.0000
  H   H16       1.0  0.30145  0.00231  0.43794  1.0000
  O   O8        1.0  0.22078  0.01137  0.48415  1.0000
  H   H17       1.0  0.23298  0.98978  0.52640  1.0000
  N   N4        1.0  0.34349  0.99721  0.28899  1.0000
  H   H18       1.0  0.35981  0.98811  0.34191  1.0000
  C   C29       1.0  0.09186  0.96598  0.40314  1.0000
  C   C30       1.0  0.06122  0.99427  0.36058  1.0000
  H   H19       1.0  0.07329  0.52263  0.33396  1.0000
  C   C31       1.0  0.44150  0.50309  0.28603  1.0000
  C   C32       1.0  0.41179  0.53223  0.24355  1.0000
  C   C33       1.0  0.42687  0.57519  0.22503  1.0000
  H   H20       1.0  0.43148  0.97122  0.29069  1.0000
  H   H21       1.0  0.40524  0.59690  0.19691  1.0000
  C   C34       1.0  0.36676  0.52163  0.22830  1.0000
  C   C35       1.0  0.13817  0.97347  0.40362  1.0000
  O   O9        1.0  0.16279  0.94715  0.45728  1.0000
  O   O10       1.0  0.34381  0.54820  0.17226  1.0000
  C   C36       1.0  0.99894  0.78071  0.28213  1.0000
  C   C37       1.0  0.00071  0.73500  0.26613  1.0000
  C   C38       1.0  0.99665  0.79851  0.36928  1.0000
  O   O11       1.0  0.01126  0.72072  0.18245  1.0000
  H   H22       1.0  0.00228  0.80143  0.22869  1.0000
  H   H23       1.0  0.98964  0.73296  0.14029  1.0000
  N   N5        1.0  0.99735  0.84347  0.37761  1.0000
  H   H24       1.0  0.98837  0.85988  0.32470  1.0000
  C   C39       1.0  0.22254  0.49701  0.24117  1.0000
  C   C40       1.0  0.26836  0.49575  0.22509  1.0000
  C   C41       1.0  0.20479  0.49864  0.32846  1.0000
  O   O12       1.0  0.28281  0.48641  0.14103  1.0000
  H   H25       1.0  0.20178  0.49375  0.18781  1.0000
  H   H26       1.0  0.27113  0.50908  0.10051  1.0000
  N   N6        1.0  0.15993  0.49650  0.33860  1.0000
  H   H27       1.0  0.14243  0.50402  0.28631  1.0000
  C   C42       1.0  0.01541  0.98464  0.35239  1.0000
  C   C43       1.0  0.00304  0.94156  0.38066  1.0000
  C   C44       1.0  0.03219  0.91187  0.42315  1.0000
  C   C45       1.0  0.07514  0.92695  0.44171  1.0000
  H   H28       1.0  0.47119  0.93151  0.37587  1.0000
  H   H29       1.0  0.09685  0.90531  0.46984  1.0000
  C   C46       1.0  0.48462  0.51543  0.31411  1.0000
  C   C47       1.0  0.46595  0.59189  0.26343  1.0000
  C   C48       1.0  0.49425  0.56123  0.30588  1.0000
  H   H30       1.0  0.02265  0.57329  0.33241  1.0000
  C   C49       1.0  0.47354  0.63818  0.26299  1.0000
  C   C50       1.0  0.02157  0.86684  0.43848  1.0000
  O   O13       1.0  0.44694  0.66286  0.20997  1.0000
  O   O14       1.0  0.04807  0.84396  0.49476  1.0000
  C   C51       1.0  0.99867  0.70478  0.33819  1.0000
  C   C52       1.0  0.99713  0.72253  0.42550  1.0000
  C   C53       1.0  0.99587  0.76836  0.44156  1.0000
  H   H31       1.0  0.99383  0.70177  0.47885  1.0000
  O   O15       1.0  0.98653  0.78274  0.52566  1.0000
  H   H32       1.0  0.00924  0.77112  0.56611  1.0000
  N   N7        1.0  0.99655  0.65991  0.32803  1.0000
  H   H33       1.0  0.00420  0.64249  0.38033  1.0000
  C   C54       1.0  0.29851  0.49658  0.29738  1.0000
  C   C55       1.0  0.28072  0.49889  0.38453  1.0000
  C   C56       1.0  0.23501  0.50070  0.40050  1.0000
  H   H34       1.0  0.30145  0.50231  0.43794  1.0000
  O   O16       1.0  0.22078  0.51137  0.48415  1.0000
  H   H35       1.0  0.23298  0.48978  0.52640  1.0000
  N   N8        1.0  0.34349  0.49721  0.28899  1.0000
  H   H36       1.0  0.35981  0.48811  0.34191  1.0000
  C   C57       1.0  0.59186  0.46598  0.40314  1.0000
  C   C58       1.0  0.56122  0.49427  0.36058  1.0000
  H   H37       1.0  0.57329  0.02263  0.33396  1.0000
  C   C59       1.0  0.94150  0.00309  0.28603  1.0000
  C   C60       1.0  0.91179  0.03223  0.24355  1.0000
  C   C61       1.0  0.92687  0.07519  0.22503  1.0000
  H   H38       1.0  0.93148  0.47122  0.29069  1.0000
  H   H39       1.0  0.90524  0.09690  0.19691  1.0000
  C   C62       1.0  0.86676  0.02163  0.22830  1.0000
  C   C63       1.0  0.63818  0.47347  0.40362  1.0000
  O   O17       1.0  0.66279  0.44716  0.45728  1.0000
  O   O18       1.0  0.84381  0.04820  0.17226  1.0000
  C   C64       1.0  0.49894  0.28071  0.28213  1.0000
  C   C65       1.0  0.50071  0.23500  0.26613  1.0000
  C   C66       1.0  0.49666  0.29851  0.36928  1.0000
  O   O19       1.0  0.51126  0.22072  0.18245  1.0000
  H   H40       1.0  0.50228  0.30143  0.22869  1.0000
  H   H41       1.0  0.48964  0.23296  0.14029  1.0000
  N   N9        1.0  0.49735  0.34347  0.37761  1.0000
  H   H42       1.0  0.48836  0.35988  0.32470  1.0000
  C   C67       1.0  0.72255  0.99701  0.24117  1.0000
  C   C68       1.0  0.76836  0.99575  0.22509  1.0000
  C   C69       1.0  0.70479  0.99864  0.32846  1.0000
  O   O20       1.0  0.78281  0.98642  0.14103  1.0000
  H   H43       1.0  0.70178  0.99374  0.18781  1.0000
  H   H44       1.0  0.77112  0.00907  0.10051  1.0000
  N   N10       1.0  0.65993  0.99650  0.33860  1.0000
  H   H45       1.0  0.64243  0.00402  0.28631  1.0000
  C   C70       1.0  0.51541  0.48464  0.35239  1.0000
  C   C71       1.0  0.50304  0.44156  0.38066  1.0000
  C   C72       1.0  0.53219  0.41187  0.42315  1.0000
  C   C73       1.0  0.57514  0.42694  0.44171  1.0000
  H   H46       1.0  0.97119  0.43151  0.37587  1.0000
  H   H47       1.0  0.59685  0.40531  0.46984  1.0000
  C   C74       1.0  0.98462  0.01543  0.31411  1.0000
  C   C75       1.0  0.96595  0.09189  0.26343  1.0000
  C   C76       1.0  0.99425  0.06123  0.30588  1.0000
  H   H48       1.0  0.52265  0.07329  0.33241  1.0000
  C   C77       1.0  0.97354  0.13818  0.26299  1.0000
  C   C78       1.0  0.52157  0.36684  0.43848  1.0000
  O   O21       1.0  0.94694  0.16286  0.20997  1.0000
  O   O22       1.0  0.54807  0.34396  0.49476  1.0000
  C   C79       1.0  0.49867  0.20478  0.33819  1.0000
  C   C80       1.0  0.49712  0.22253  0.42550  1.0000
  C   C81       1.0  0.49587  0.26836  0.44156  1.0000
  H   H49       1.0  0.49383  0.20177  0.47885  1.0000
  O   O23       1.0  0.48653  0.28274  0.52566  1.0000
  H   H50       1.0  0.50924  0.27111  0.56611  1.0000
  N   N11       1.0  0.49656  0.15991  0.32803  1.0000
  H   H51       1.0  0.50420  0.14248  0.38033  1.0000
  C   C82       1.0  0.79852  0.99658  0.29738  1.0000
  C   C83       1.0  0.78072  0.99890  0.38453  1.0000
  C   C84       1.0  0.73501  0.00071  0.40050  1.0000
  H   H52       1.0  0.80145  0.00231  0.43794  1.0000
  O   O24       1.0  0.72078  0.01137  0.48415  1.0000
  H   H53       1.0  0.73298  0.98978  0.52640  1.0000
  N   N12       1.0  0.84349  0.99721  0.28899  1.0000
  H   H54       1.0  0.85981  0.98811  0.34191  1.0000
  C   C85       1.0  0.59186  0.96598  0.40314  1.0000
  C   C86       1.0  0.56122  0.99427  0.36058  1.0000
  H   H55       1.0  0.57329  0.52263  0.33396  1.0000
  C   C87       1.0  0.94150  0.50309  0.28603  1.0000
  C   C88       1.0  0.91179  0.53223  0.24355  1.0000
  C   C89       1.0  0.92687  0.57519  0.22503  1.0000
  H   H56       1.0  0.93148  0.97122  0.29069  1.0000
  H   H57       1.0  0.90524  0.59690  0.19691  1.0000
  C   C90       1.0  0.86676  0.52163  0.22830  1.0000
  C   C91       1.0  0.63818  0.97347  0.40362  1.0000
  O   O25       1.0  0.66279  0.94715  0.45728  1.0000
  O   O26       1.0  0.84381  0.54820  0.17226  1.0000
  C   C92       1.0  0.49894  0.78071  0.28213  1.0000
  C   C93       1.0  0.50071  0.73500  0.26613  1.0000
  C   C94       1.0  0.49666  0.79851  0.36928  1.0000
  O   O27       1.0  0.51126  0.72072  0.18245  1.0000
  H   H58       1.0  0.50228  0.80143  0.22869  1.0000
  H   H59       1.0  0.48964  0.73296  0.14029  1.0000
  N   N13       1.0  0.49735  0.84347  0.37761  1.0000
  H   H60       1.0  0.48836  0.85988  0.32470  1.0000
  C   C95       1.0  0.72255  0.49701  0.24117  1.0000
  C   C96       1.0  0.76836  0.49575  0.22509  1.0000
  C   C97       1.0  0.70479  0.49864  0.32846  1.0000
  O   O28       1.0  0.78281  0.48641  0.14103  1.0000
  H   H61       1.0  0.70178  0.49375  0.18781  1.0000
  H   H62       1.0  0.77112  0.50908  0.10051  1.0000
  N   N14       1.0  0.65993  0.49650  0.33860  1.0000
  H   H63       1.0  0.64243  0.50402  0.28631  1.0000
  C   C98       1.0  0.51541  0.98464  0.35239  1.0000
  C   C99       1.0  0.50304  0.94156  0.38066  1.0000
  C   C100      1.0  0.53219  0.91187  0.42315  1.0000
  C   C101      1.0  0.57514  0.92695  0.44171  1.0000
  H   H64       1.0  0.97119  0.93151  0.37587  1.0000
  H   H65       1.0  0.59685  0.90531  0.46984  1.0000
  C   C102      1.0  0.98462  0.51543  0.31411  1.0000
  C   C103      1.0  0.96595  0.59189  0.26343  1.0000
  C   C104      1.0  0.99425  0.56123  0.30588  1.0000
  H   H66       1.0  0.52265  0.57329  0.33241  1.0000
  C   C105      1.0  0.97354  0.63818  0.26299  1.0000
  C   C106      1.0  0.52157  0.86684  0.43848  1.0000
  O   O29       1.0  0.94694  0.66286  0.20997  1.0000
  O   O30       1.0  0.54807  0.84396  0.49476  1.0000
  C   C107      1.0  0.49867  0.70478  0.33819  1.0000
  C   C108      1.0  0.49712  0.72253  0.42550  1.0000
  C   C109      1.0  0.49587  0.76836  0.44156  1.0000
  H   H67       1.0  0.49383  0.70177  0.47885  1.0000
  O   O31       1.0  0.48653  0.78274  0.52566  1.0000
  H   H68       1.0  0.50924  0.77112  0.56611  1.0000
  N   N15       1.0  0.49656  0.65991  0.32803  1.0000
  H   H69       1.0  0.50420  0.64249  0.38033  1.0000
  C   C110      1.0  0.79852  0.49658  0.29738  1.0000
  C   C111      1.0  0.78072  0.49889  0.38453  1.0000
  C   C112      1.0  0.73501  0.50070  0.40050  1.0000
  H   H70       1.0  0.80145  0.50231  0.43794  1.0000
  O   O32       1.0  0.72078  0.51137  0.48415  1.0000
  H   H71       1.0  0.73298  0.48978  0.52640  1.0000
  N   N16       1.0  0.84349  0.49721  0.28899  1.0000
  H   H72       1.0  0.85981  0.48811  0.34191  1.0000
