data_image0
_chemical_formula_structural       C3HNO2COC3HNO2COC3HNO2COC3HNO2COC3HNO2COC3HNO2COC3HNO2COC3HNO2COC3HNO2CONC18H12NHNHNHNC18H12NHNHNHNC18H12NHNHNHNC18H12NHNHNHNC18H12NHNHNHNC18H12NHNHNHC3HNO2COC3HNO2COC3HNO2COC3HNO2COC3HNO2COC3HNO2COC3HNO2COC3HNO2COC3HNO2CO
_chemical_formula_sum              "C180 H108 N42 O54"
_cell_length_a       67.2677
_cell_length_b       67.2678
_cell_length_c       15.0008
_cell_angle_alpha    90
_cell_angle_beta     90
_cell_angle_gamma    120

_space_group_name_H-M_alt    "P 1"
_space_group_IT_number       1

loop_
  _space_group_symop_operation_xyz
  'x, y, z'

loop_
  _atom_site_type_symbol
  _atom_site_label
  _atom_site_symmetry_multiplicity
  _atom_site_fract_x
  _atom_site_fract_y
  _atom_site_fract_z
  _atom_site_occupancy
  C   C1        1.0  0.02343  0.51235  0.32827  1.0000
  C   C2        1.0  0.00741  0.50382  0.25712  1.0000
  C   C3        1.0  0.98371  0.49045  0.27659  1.0000
  H   H1        1.0  0.97238  0.48394  0.22454  1.0000
  N   N1        1.0  0.01526  0.50807  0.16767  1.0000
  O   O1        1.0  0.00984  0.48974  0.12677  1.0000
  O   O2        1.0  0.00735  0.51877  0.12577  1.0000
  C   C4        1.0  0.04737  0.52646  0.31210  1.0000
  O   O3        1.0  0.05369  0.54489  0.25865  1.0000
  C   C5        1.0  0.48753  0.51104  0.32836  1.0000
  C   C6        1.0  0.49604  0.50355  0.25713  1.0000
  C   C7        1.0  0.50945  0.49326  0.27648  1.0000
  H   H2        1.0  0.51596  0.48846  0.22436  1.0000
  N   N2        1.0  0.49175  0.50714  0.16772  1.0000
  O   O4        1.0  0.51006  0.52006  0.12671  1.0000
  O   O5        1.0  0.48105  0.48852  0.12585  1.0000
  C   C8        1.0  0.47339  0.52084  0.31235  1.0000
  O   O6        1.0  0.45497  0.50876  0.25881  1.0000
  C   C9        1.0  0.48885  0.97648  0.32831  1.0000
  C   C10       1.0  0.49634  0.99248  0.25710  1.0000
  C   C11       1.0  0.50663  0.01618  0.27648  1.0000
  H   H3        1.0  0.51143  0.02749  0.22436  1.0000
  N   N3        1.0  0.49275  0.98461  0.16769  1.0000
  O   O7        1.0  0.47983  0.98999  0.12669  1.0000
  O   O8        1.0  0.51137  0.99253  0.12583  1.0000
  C   C12       1.0  0.47905  0.95254  0.31224  1.0000
  O   O9        1.0  0.49118  0.94622  0.25887  1.0000
  C   C13       1.0  0.28665  0.53213  0.29080  1.0000
  C   C14       1.0  0.26829  0.52424  0.22836  1.0000
  C   C15       1.0  0.24747  0.52316  0.25331  1.0000
  H   H4        1.0  0.23471  0.51811  0.20662  1.0000
  N   N4        1.0  0.27059  0.51731  0.14152  1.0000
  O   O10       1.0  0.25617  0.49657  0.12717  1.0000
  O   O11       1.0  0.26855  0.52938  0.08220  1.0000
  C   C16       1.0  0.30905  0.53605  0.26701  1.0000
  O   O12       1.0  0.31561  0.54111  0.18082  1.0000
  C   C17       1.0  0.46781  0.75451  0.29075  1.0000
  C   C18       1.0  0.47570  0.74406  0.22826  1.0000
  C   C19       1.0  0.47677  0.72431  0.25312  1.0000
  H   H5        1.0  0.48185  0.71663  0.20642  1.0000
  N   N5        1.0  0.48265  0.75331  0.14145  1.0000
  O   O13       1.0  0.50338  0.75963  0.12713  1.0000
  O   O14       1.0  0.47058  0.73921  0.08208  1.0000
  C   C20       1.0  0.46387  0.77298  0.26703  1.0000
  O   O15       1.0  0.45882  0.77451  0.18084  1.0000
  C   C21       1.0  0.24540  0.71328  0.29079  1.0000
  C   C22       1.0  0.25589  0.73163  0.22832  1.0000
  C   C23       1.0  0.27563  0.75244  0.25325  1.0000
  H   H6        1.0  0.28333  0.76520  0.20656  1.0000
  N   N6        1.0  0.24666  0.72933  0.14146  1.0000
  O   O16       1.0  0.24035  0.74375  0.12707  1.0000
  O   O17       1.0  0.26078  0.73135  0.08218  1.0000
  C   C24       1.0  0.22694  0.69087  0.26699  1.0000
  O   O18       1.0  0.22545  0.68430  0.18082  1.0000
  C   C25       1.0  0.71019  0.46593  0.29753  1.0000
  C   C26       1.0  0.72554  0.47029  0.22544  1.0000
  C   C27       1.0  0.74699  0.47185  0.24184  1.0000
  H   H7        1.0  0.75771  0.47452  0.18906  1.0000
  N   N7        1.0  0.71933  0.47305  0.13791  1.0000
  O   O19       1.0  0.73302  0.49260  0.10716  1.0000
  O   O20       1.0  0.71870  0.45815  0.08554  1.0000
  C   C28       1.0  0.68729  0.46130  0.28289  1.0000
  O   O21       1.0  0.67566  0.44645  0.21594  1.0000
  C   C29       1.0  0.53411  0.24436  0.29775  1.0000
  C   C30       1.0  0.52980  0.25534  0.22551  1.0000
  C   C31       1.0  0.52817  0.27520  0.24174  1.0000
  H   H8        1.0  0.52555  0.28326  0.18884  1.0000
  N   N8        1.0  0.52718  0.24642  0.13796  1.0000
  O   O22       1.0  0.50766  0.24052  0.10681  1.0000
  O   O23       1.0  0.54213  0.26072  0.08584  1.0000
  C   C32       1.0  0.53887  0.22616  0.28333  1.0000
  O   O24       1.0  0.55365  0.22932  0.21620  1.0000
  C   C33       1.0  0.75565  0.28972  0.29747  1.0000
  C   C34       1.0  0.74470  0.27440  0.22526  1.0000
  C   C35       1.0  0.72484  0.25292  0.24151  1.0000
  H   H9        1.0  0.71681  0.24222  0.18864  1.0000
  N   N9        1.0  0.75366  0.28068  0.13776  1.0000
  O   O25       1.0  0.75958  0.26704  0.10684  1.0000
  O   O26       1.0  0.73938  0.28130  0.08546  1.0000
  C   C36       1.0  0.77385  0.31267  0.28304  1.0000
  O   O27       1.0  0.77069  0.32428  0.21589  1.0000
  N   N10       1.0  0.15966  0.57906  0.34059  1.0000
  C   C37       1.0  0.17358  0.56905  0.35494  1.0000
  C   C38       1.0  0.17032  0.60318  0.32886  1.0000
  C   C39       1.0  0.13552  0.56523  0.34364  1.0000
  C   C40       1.0  0.12235  0.56052  0.26528  1.0000
  C   C41       1.0  0.09831  0.54668  0.26864  1.0000
  C   C42       1.0  0.08685  0.53752  0.35052  1.0000
  C   C43       1.0  0.10032  0.54202  0.42839  1.0000
  C   C44       1.0  0.12435  0.55582  0.42522  1.0000
  C   C45       1.0  0.18843  0.57548  0.42914  1.0000
  C   C46       1.0  0.20481  0.56839  0.43552  1.0000
  C   C47       1.0  0.20622  0.55414  0.36954  1.0000
  C   C48       1.0  0.19082  0.54717  0.29673  1.0000
  C   C49       1.0  0.17469  0.55458  0.28945  1.0000
  C   C50       1.0  0.18656  0.61411  0.26034  1.0000
  C   C51       1.0  0.20003  0.63818  0.25740  1.0000
  C   C52       1.0  0.19702  0.65228  0.32006  1.0000
  C   C53       1.0  0.17985  0.64095  0.38607  1.0000
  C   C54       1.0  0.16692  0.61686  0.39124  1.0000
  H   H10       1.0  0.21629  0.57433  0.48718  1.0000
  H   H11       1.0  0.18830  0.58648  0.47590  1.0000
  H   H12       1.0  0.16463  0.55044  0.23370  1.0000
  H   H13       1.0  0.19233  0.53803  0.24531  1.0000
  H   H14       1.0  0.13027  0.56690  0.20538  1.0000
  H   H15       1.0  0.08928  0.54292  0.21032  1.0000
  H   H16       1.0  0.18995  0.60453  0.21650  1.0000
  H   H17       1.0  0.21309  0.64498  0.21230  1.0000
  H   H18       1.0  0.17740  0.65024  0.43441  1.0000
  H   H19       1.0  0.15565  0.60935  0.44282  1.0000
  H   H20       1.0  0.13369  0.55903  0.48261  1.0000
  H   H21       1.0  0.09263  0.53550  0.48854  1.0000
  N   N11       1.0  0.22456  0.55065  0.36981  1.0000
  H   H22       1.0  0.23957  0.56446  0.37507  1.0000
  N   N12       1.0  0.06347  0.52365  0.35668  1.0000
  H   H23       1.0  0.05796  0.51104  0.39937  1.0000
  N   N13       1.0  0.21155  0.67580  0.32736  1.0000
  H   H24       1.0  0.21099  0.68250  0.38426  1.0000
  N   N14       1.0  0.42085  0.58058  0.34084  1.0000
  C   C55       1.0  0.43087  0.60452  0.35502  1.0000
  C   C56       1.0  0.39673  0.56713  0.32906  1.0000
  C   C57       1.0  0.43468  0.57027  0.34384  1.0000
  C   C58       1.0  0.43938  0.56181  0.26547  1.0000
  C   C59       1.0  0.45321  0.55160  0.26881  1.0000
  C   C60       1.0  0.46238  0.54930  0.35067  1.0000
  C   C61       1.0  0.45790  0.55829  0.42854  1.0000
  C   C62       1.0  0.44411  0.56853  0.42540  1.0000
  C   C63       1.0  0.42444  0.61296  0.42915  1.0000
  C   C64       1.0  0.43150  0.63644  0.43532  1.0000
  C   C65       1.0  0.44576  0.65206  0.36927  1.0000
  C   C66       1.0  0.45277  0.64362  0.29663  1.0000
  C   C67       1.0  0.44537  0.62008  0.28955  1.0000
  C   C68       1.0  0.38581  0.57244  0.26051  1.0000
  C   C69       1.0  0.36174  0.56180  0.25744  1.0000
  C   C70       1.0  0.34763  0.54469  0.32006  1.0000
  C   C71       1.0  0.35896  0.53888  0.38617  1.0000
  C   C72       1.0  0.38305  0.55004  0.39140  1.0000
  H   H25       1.0  0.42556  0.64199  0.48690  1.0000
  H   H26       1.0  0.41341  0.60184  0.47585  1.0000
  H   H27       1.0  0.44950  0.61413  0.23384  1.0000
  H   H28       1.0  0.46193  0.65426  0.24520  1.0000
  H   H29       1.0  0.43298  0.56333  0.20560  1.0000
  H   H30       1.0  0.45694  0.54631  0.21049  1.0000
  H   H31       1.0  0.39539  0.58539  0.21659  1.0000
  H   H32       1.0  0.35494  0.56806  0.21230  1.0000
  H   H33       1.0  0.34965  0.52715  0.43456  1.0000
  H   H34       1.0  0.39055  0.54630  0.44310  1.0000
  H   H35       1.0  0.44090  0.57465  0.48280  1.0000
  H   H36       1.0  0.46441  0.55710  0.48868  1.0000
  N   N15       1.0  0.44927  0.67389  0.36937  1.0000
  H   H37       1.0  0.43546  0.67511  0.37470  1.0000
  N   N16       1.0  0.47623  0.53977  0.35682  1.0000
  H   H38       1.0  0.48886  0.54688  0.39945  1.0000
  N   N17       1.0  0.32412  0.53573  0.32740  1.0000
  H   H39       1.0  0.31741  0.52848  0.38431  1.0000
  N   N18       1.0  0.41933  0.84025  0.34083  1.0000
  C   C73       1.0  0.39539  0.82634  0.35510  1.0000
  C   C74       1.0  0.43277  0.82956  0.32908  1.0000
  C   C75       1.0  0.42966  0.86439  0.34385  1.0000
  C   C76       1.0  0.43813  0.87755  0.26549  1.0000
  C   C77       1.0  0.44835  0.90160  0.26883  1.0000
  C   C78       1.0  0.45063  0.91305  0.35069  1.0000
  C   C79       1.0  0.44164  0.89959  0.42856  1.0000
  C   C80       1.0  0.43139  0.87556  0.42541  1.0000
  C   C81       1.0  0.38697  0.81150  0.42930  1.0000
  C   C82       1.0  0.36349  0.79510  0.43560  1.0000
  C   C83       1.0  0.34785  0.79371  0.36959  1.0000
  C   C84       1.0  0.35629  0.80912  0.29681  1.0000
  C   C85       1.0  0.37983  0.82527  0.28964  1.0000
  C   C86       1.0  0.42746  0.81334  0.26052  1.0000
  C   C87       1.0  0.43806  0.79985  0.25763  1.0000
  C   C88       1.0  0.45518  0.80287  0.32022  1.0000
  C   C89       1.0  0.46102  0.82004  0.38625  1.0000
  C   C90       1.0  0.44985  0.83296  0.39146  1.0000
  H   H40       1.0  0.35794  0.78364  0.48727  1.0000
  H   H41       1.0  0.39809  0.81161  0.47607  1.0000
  H   H42       1.0  0.38577  0.83528  0.23377  1.0000
  H   H43       1.0  0.34564  0.80758  0.24532  1.0000
  H   H44       1.0  0.43660  0.86963  0.20562  1.0000
  H   H45       1.0  0.45363  0.91062  0.21051  1.0000
  H   H46       1.0  0.41451  0.80997  0.21665  1.0000
  H   H47       1.0  0.43184  0.78683  0.21237  1.0000
  H   H48       1.0  0.47277  0.82249  0.43456  1.0000
  H   H49       1.0  0.45362  0.84423  0.44306  1.0000
  H   H50       1.0  0.42526  0.86623  0.48280  1.0000
  H   H51       1.0  0.44281  0.90729  0.48869  1.0000
  N   N19       1.0  0.32602  0.77537  0.36975  1.0000
  H   H52       1.0  0.32482  0.76036  0.37512  1.0000
  N   N20       1.0  0.46015  0.93644  0.35684  1.0000
  H   H53       1.0  0.45302  0.94194  0.39943  1.0000
  N   N21       1.0  0.46419  0.78836  0.32746  1.0000
  H   H54       1.0  0.47143  0.78890  0.38435  1.0000
  N   N22       1.0  0.83943  0.42067  0.34970  1.0000
  C   C91       1.0  0.82538  0.43043  0.33417  1.0000
  C   C92       1.0  0.82916  0.39650  0.34856  1.0000
  C   C93       1.0  0.86355  0.43447  0.34624  1.0000
  C   C94       1.0  0.87502  0.44445  0.26569  1.0000
  C   C95       1.0  0.89909  0.45796  0.26382  1.0000
  C   C96       1.0  0.91231  0.46156  0.34184  1.0000
  C   C97       1.0  0.90056  0.45188  0.42271  1.0000
  C   C98       1.0  0.87648  0.43838  0.42481  1.0000
  C   C99       1.0  0.81958  0.44008  0.40591  1.0000
  C   C100      1.0  0.80383  0.44785  0.39391  1.0000
  C   C101      1.0  0.79368  0.44639  0.30963  1.0000
  C   C102      1.0  0.79975  0.43677  0.23801  1.0000
  C   C103      1.0  0.81546  0.42897  0.24985  1.0000
  C   C104      1.0  0.81735  0.38384  0.42479  1.0000
  C   C105      1.0  0.80542  0.35971  0.42299  1.0000
  C   C106      1.0  0.80465  0.34775  0.34439  1.0000
  C   C107      1.0  0.81717  0.36052  0.26905  1.0000
  C   C108      1.0  0.82933  0.38467  0.27111  1.0000
  H   H55       1.0  0.79890  0.45336  0.44860  1.0000
  H   H56       1.0  0.82604  0.44057  0.46812  1.0000
  H   H57       1.0  0.81910  0.42160  0.19744  1.0000
  H   H58       1.0  0.79234  0.43492  0.17673  1.0000
  H   H59       1.0  0.86591  0.44182  0.20808  1.0000
  H   H60       1.0  0.90701  0.46486  0.20436  1.0000
  H   H61       1.0  0.81689  0.39216  0.48117  1.0000
  H   H62       1.0  0.79631  0.35090  0.47812  1.0000
  H   H63       1.0  0.81714  0.35228  0.21170  1.0000
  H   H64       1.0  0.83768  0.39359  0.21506  1.0000
  H   H65       1.0  0.86838  0.43155  0.48402  1.0000
  H   H66       1.0  0.90940  0.45498  0.48127  1.0000
  N   N23       1.0  0.77637  0.45134  0.29737  1.0000
  H   H67       1.0  0.76406  0.44116  0.25691  1.0000
  N   N24       1.0  0.93576  0.47507  0.33689  1.0000
  H   H68       1.0  0.94160  0.48793  0.29523  1.0000
  N   N25       1.0  0.79123  0.32434  0.34262  1.0000
  H   H69       1.0  0.79201  0.31610  0.39475  1.0000
  N   N26       1.0  0.57930  0.41878  0.34994  1.0000
  C   C109      1.0  0.56952  0.39498  0.33426  1.0000
  C   C110      1.0  0.60347  0.43268  0.34862  1.0000
  C   C111      1.0  0.56551  0.42912  0.34634  1.0000
  C   C112      1.0  0.55558  0.43063  0.26571  1.0000
  C   C113      1.0  0.54208  0.44121  0.26372  1.0000
  C   C114      1.0  0.53844  0.45081  0.34172  1.0000
  C   C115      1.0  0.54809  0.44873  0.42267  1.0000
  C   C116      1.0  0.56157  0.43813  0.42487  1.0000
  C   C117      1.0  0.55982  0.37950  0.40593  1.0000
  C   C118      1.0  0.55204  0.35600  0.39385  1.0000
  C   C119      1.0  0.55353  0.34731  0.30956  1.0000
  C   C120      1.0  0.56317  0.36303  0.23801  1.0000
  C   C121      1.0  0.57097  0.38653  0.24991  1.0000
  C   C122      1.0  0.61616  0.43356  0.42479  1.0000
  C   C123      1.0  0.64029  0.44578  0.42288  1.0000
  C   C124      1.0  0.65222  0.45699  0.34424  1.0000
  C   C125      1.0  0.63942  0.45671  0.26897  1.0000
  C   C126      1.0  0.61527  0.44469  0.27113  1.0000
  H   H70       1.0  0.54656  0.34555  0.44855  1.0000
  H   H71       1.0  0.55939  0.38548  0.46821  1.0000
  H   H72       1.0  0.57838  0.39755  0.19756  1.0000
  H   H73       1.0  0.56502  0.35747  0.17672  1.0000
  H   H74       1.0  0.55823  0.42416  0.20812  1.0000
  H   H75       1.0  0.53519  0.44223  0.20423  1.0000
  H   H76       1.0  0.60786  0.42480  0.48124  1.0000
  H   H77       1.0  0.64913  0.44555  0.47802  1.0000
  H   H78       1.0  0.64763  0.46490  0.21157  1.0000
  H   H79       1.0  0.60633  0.44408  0.21509  1.0000
  H   H80       1.0  0.56836  0.43683  0.48414  1.0000
  H   H81       1.0  0.54495  0.45443  0.48120  1.0000
  N   N27       1.0  0.54857  0.32505  0.29731  1.0000
  H   H82       1.0  0.55877  0.32294  0.25697  1.0000
  N   N28       1.0  0.52494  0.46075  0.33666  1.0000
  H   H83       1.0  0.51208  0.45372  0.29499  1.0000
  N   N29       1.0  0.67565  0.46707  0.34235  1.0000
  H   H84       1.0  0.68384  0.47600  0.39469  1.0000
  N   N30       1.0  0.58122  0.16049  0.34980  1.0000
  C   C127      1.0  0.60503  0.17450  0.33412  1.0000
  C   C128      1.0  0.56736  0.17080  0.34874  1.0000
  C   C129      1.0  0.57086  0.13636  0.34628  1.0000
  C   C130      1.0  0.56933  0.12490  0.26566  1.0000
  C   C131      1.0  0.55873  0.10083  0.26373  1.0000
  C   C132      1.0  0.54913  0.08760  0.34175  1.0000
  C   C133      1.0  0.55125  0.09934  0.42269  1.0000
  C   C134      1.0  0.56187  0.12343  0.42485  1.0000
  C   C135      1.0  0.62052  0.18026  0.40574  1.0000
  C   C136      1.0  0.64402  0.19597  0.39360  1.0000
  C   C137      1.0  0.65271  0.20612  0.30929  1.0000
  C   C138      1.0  0.63698  0.20008  0.23781  1.0000
  C   C139      1.0  0.61347  0.18442  0.24979  1.0000
  C   C140      1.0  0.56658  0.18265  0.42496  1.0000
  C   C141      1.0  0.55442  0.19462  0.42323  1.0000
  C   C142      1.0  0.54319  0.19537  0.34472  1.0000
  C   C143      1.0  0.54337  0.18282  0.26940  1.0000
  C   C144      1.0  0.55533  0.17062  0.27138  1.0000
  H   H85       1.0  0.65449  0.20089  0.44824  1.0000
  H   H86       1.0  0.61456  0.17381  0.46798  1.0000
  H   H87       1.0  0.60244  0.18082  0.19746  1.0000
  H   H88       1.0  0.64253  0.20752  0.17654  1.0000
  H   H89       1.0  0.57579  0.13401  0.20804  1.0000
  H   H90       1.0  0.55769  0.09291  0.20423  1.0000
  H   H91       1.0  0.57536  0.18310  0.48130  1.0000
  H   H92       1.0  0.55473  0.20373  0.47838  1.0000
  H   H93       1.0  0.53514  0.18284  0.21211  1.0000
  H   H94       1.0  0.55585  0.16225  0.21534  1.0000
  H   H95       1.0  0.56318  0.13153  0.48409  1.0000
  H   H96       1.0  0.54553  0.09051  0.48124  1.0000
  N   N31       1.0  0.67496  0.22345  0.29700  1.0000
  H   H97       1.0  0.67707  0.23576  0.25665  1.0000
  N   N32       1.0  0.53917  0.06415  0.33672  1.0000
  H   H98       1.0  0.54619  0.05832  0.29503  1.0000
  N   N33       1.0  0.53322  0.20882  0.34300  1.0000
  H   H99       1.0  0.52417  0.20800  0.39509  1.0000
  C   C145      1.0  0.97550  0.48543  0.36519  1.0000
  C   C146      1.0  0.99153  0.49384  0.43636  1.0000
  C   C147      1.0  0.01522  0.50724  0.41688  1.0000
  H   H100      1.0  0.02654  0.51379  0.46896  1.0000
  N   N34       1.0  0.98364  0.48950  0.52575  1.0000
  O   O28       1.0  0.98909  0.50778  0.56707  1.0000
  O   O29       1.0  0.99150  0.47871  0.56732  1.0000
  C   C148      1.0  0.95153  0.47167  0.38114  1.0000
  O   O30       1.0  0.94485  0.45292  0.43313  1.0000
  C   C149      1.0  0.51453  0.49010  0.36503  1.0000
  C   C150      1.0  0.50613  0.49770  0.43627  1.0000
  C   C151      1.0  0.49269  0.50796  0.41692  1.0000
  H   H101      1.0  0.48616  0.51273  0.46906  1.0000
  N   N35       1.0  0.51053  0.49419  0.52564  1.0000
  O   O31       1.0  0.49227  0.48134  0.56708  1.0000
  O   O32       1.0  0.52131  0.51285  0.56715  1.0000
  C   C152      1.0  0.52833  0.47993  0.38082  1.0000
  O   O33       1.0  0.54704  0.49195  0.43303  1.0000
  C   C153      1.0  0.50979  0.02441  0.36504  1.0000
  C   C154      1.0  0.50220  0.00841  0.43626  1.0000
  C   C155      1.0  0.49193  0.98471  0.41689  1.0000
  H   H102      1.0  0.48718  0.97340  0.46901  1.0000
  N   N36       1.0  0.50573  0.01631  0.52564  1.0000
  O   O34       1.0  0.51858  0.01090  0.56702  1.0000
  O   O35       1.0  0.48707  0.00844  0.56720  1.0000
  C   C156      1.0  0.51997  0.04839  0.38082  1.0000
  O   O36       1.0  0.50800  0.05509  0.43326  1.0000
  C   C157      1.0  0.24425  0.52970  0.33908  1.0000
  C   C158      1.0  0.26204  0.53658  0.40319  1.0000
  C   C159      1.0  0.28283  0.53789  0.37769  1.0000
  H   H103      1.0  0.29577  0.54412  0.42379  1.0000
  N   N37       1.0  0.26046  0.54137  0.49409  1.0000
  O   O37       1.0  0.26015  0.55965  0.50613  1.0000
  O   O38       1.0  0.24353  0.52511  0.53241  1.0000
  C   C160      1.0  0.22381  0.53030  0.35584  1.0000
  O   O39       1.0  0.20359  0.51086  0.34059  1.0000
  C   C161      1.0  0.47022  0.71453  0.33885  1.0000
  C   C162      1.0  0.46335  0.72542  0.40304  1.0000
  C   C163      1.0  0.46205  0.74491  0.37761  1.0000
  H   H104      1.0  0.45582  0.75161  0.42376  1.0000
  N   N38       1.0  0.45857  0.71905  0.49393  1.0000
  O   O40       1.0  0.44029  0.70045  0.50595  1.0000
  O   O41       1.0  0.47484  0.71837  0.53219  1.0000
  C   C164      1.0  0.46964  0.69349  0.35550  1.0000
  O   O42       1.0  0.48908  0.69270  0.34058  1.0000
  C   C165      1.0  0.28538  0.75567  0.33903  1.0000
  C   C166      1.0  0.27447  0.73789  0.40317  1.0000
  C   C167      1.0  0.25497  0.71710  0.37769  1.0000
  H   H105      1.0  0.24827  0.70416  0.42379  1.0000
  N   N39       1.0  0.28083  0.73947  0.49409  1.0000
  O   O43       1.0  0.29941  0.73978  0.50615  1.0000
  O   O44       1.0  0.28149  0.75641  0.53236  1.0000
  C   C168      1.0  0.30641  0.77611  0.35581  1.0000
  O   O45       1.0  0.30720  0.79633  0.34052  1.0000
  C   C169      1.0  0.75361  0.46921  0.32836  1.0000
  C   C170      1.0  0.73853  0.46534  0.40098  1.0000
  C   C171      1.0  0.71715  0.46375  0.38434  1.0000
  H   H106      1.0  0.70595  0.45954  0.43656  1.0000
  N   N40       1.0  0.74250  0.46152  0.49041  1.0000
  O   O46       1.0  0.74543  0.44456  0.49832  1.0000
  O   O47       1.0  0.75920  0.47893  0.52421  1.0000
  C   C172      1.0  0.77392  0.46800  0.33894  1.0000
  O   O48       1.0  0.79083  0.48426  0.38993  1.0000
  C   C173      1.0  0.53067  0.28442  0.32826  1.0000
  C   C174      1.0  0.53445  0.27320  0.40105  1.0000
  C   C175      1.0  0.53617  0.25348  0.38455  1.0000
  H   H107      1.0  0.54031  0.24648  0.43694  1.0000
  N   N41       1.0  0.53814  0.28096  0.49052  1.0000
  O   O49       1.0  0.55506  0.30086  0.49872  1.0000
  O   O50       1.0  0.52066  0.28018  0.52393  1.0000
  C   C176      1.0  0.53185  0.30594  0.33866  1.0000
  O   O51       1.0  0.51559  0.30661  0.38954  1.0000
  C   C177      1.0  0.71558  0.24622  0.32800  1.0000
  C   C178      1.0  0.72677  0.26126  0.40077  1.0000
  C   C179      1.0  0.74650  0.28269  0.38425  1.0000
  H   H108      1.0  0.75348  0.29386  0.43658  1.0000
  N   N42       1.0  0.71897  0.25722  0.49019  1.0000
  O   O52       1.0  0.69907  0.25424  0.49817  1.0000
  O   O53       1.0  0.71973  0.24052  0.52378  1.0000
  C   C180      1.0  0.69409  0.22589  0.33845  1.0000
  O   O54       1.0  0.69345  0.20897  0.38929  1.0000
