data_image0
_chemical_formula_structural       C14H12C7NC12H12C2NC3NC3NC15H14C3HOHC3HOHC3HOHC3HOHC3HOHC3HOHC3NC2NC5NC3NC17H14CNC2NC4NC18H14C2NC19H12C3OH2C3OH2C3OH2C3OH2C3OH2C3OH2
_chemical_formula_sum              "C168 H102 N12 O12"
_cell_length_a       41.8936
_cell_length_b       41.8936
_cell_length_c       15.029
_cell_angle_alpha    90.0372
_cell_angle_beta     89.9628
_cell_angle_gamma    120

_space_group_name_H-M_alt    "P 1"
_space_group_IT_number       1

loop_
  _space_group_symop_operation_xyz
  'x, y, z'

loop_
  _atom_site_type_symbol
  _atom_site_label
  _atom_site_symmetry_multiplicity
  _atom_site_fract_x
  _atom_site_fract_y
  _atom_site_fract_z
  _atom_site_occupancy
  C   C1        1.0  0.94829  0.54756  0.33157  1.0000
  C   C2        1.0  0.09781  0.53621  0.32981  1.0000
  C   C3        1.0  0.10971  0.57455  0.33127  1.0000
  C   C4        1.0  0.14630  0.63609  0.33067  1.0000
  C   C5        1.0  0.14629  0.60324  0.33294  1.0000
  C   C6        1.0  0.15762  0.75452  0.26991  1.0000
  C   C7        1.0  0.13002  0.71716  0.26666  1.0000
  C   C8        1.0  0.12556  0.52571  0.32702  1.0000
  C   C9        1.0  0.17943  0.52862  0.25533  1.0000
  C   C10       1.0  0.15013  0.53588  0.25440  1.0000
  C   C11       1.0  0.92817  0.40498  0.26642  1.0000
  C   C12       1.0  0.90077  0.36756  0.26966  1.0000
  C   C13       1.0  0.90795  0.58611  0.25418  1.0000
  C   C14       1.0  0.87851  0.59316  0.25500  1.0000
  H   H1        1.0  0.85943  0.58139  0.20555  1.0000
  H   H2        1.0  0.90984  0.57109  0.20276  1.0000
  H   H3        1.0  0.99461  0.66470  0.32733  1.0000
  H   H4        1.0  0.94551  0.41437  0.21272  1.0000
  H   H5        1.0  0.89998  0.35112  0.21849  1.0000
  H   H6        1.0  0.06338  0.45740  0.32733  1.0000
  H   H7        1.0  0.16969  0.66132  0.32935  1.0000
  H   H8        1.0  0.16967  0.60139  0.33420  1.0000
  H   H9        1.0  0.14836  0.55091  0.20291  1.0000
  H   H10       1.0  0.19853  0.54024  0.20587  1.0000
  H   H11       1.0  0.11276  0.70784  0.21282  1.0000
  H   H12       1.0  0.15863  0.77098  0.21863  1.0000
  C   C15       1.0  0.43726  0.44974  0.32911  1.0000
  C   C16       1.0  0.44387  0.50643  0.33306  1.0000
  C   C17       1.0  0.54182  0.49249  0.33114  1.0000
  C   C18       1.0  0.61278  0.61297  0.33322  1.0000
  C   C19       1.0  0.61939  0.66966  0.32922  1.0000
  C   C20       1.0  0.55318  0.65336  0.32947  1.0000
  C   C21       1.0  0.51484  0.62693  0.33089  1.0000
  N   N1        1.0  0.49838  0.58970  0.33153  1.0000
  C   C22       1.0  0.45329  0.60197  0.33036  1.0000
  C   C23       1.0  0.48614  0.63481  0.33245  1.0000
  C   C24       1.0  0.33486  0.49484  0.26971  1.0000
  C   C25       1.0  0.37222  0.50460  0.26639  1.0000
  C   C26       1.0  0.56368  0.69161  0.32666  1.0000
  C   C27       1.0  0.58166  0.76757  0.32377  1.0000
  C   C28       1.0  0.56084  0.74256  0.25490  1.0000
  C   C29       1.0  0.55351  0.70597  0.25406  1.0000
  C   C30       1.0  0.68441  0.61491  0.26625  1.0000
  C   C31       1.0  0.72183  0.62490  0.26949  1.0000
  C   C32       1.0  0.50328  0.41356  0.25378  1.0000
  C   C33       1.0  0.49623  0.37706  0.25463  1.0000
  H   H13       1.0  0.50800  0.36973  0.20519  1.0000
  H   H14       1.0  0.51830  0.43044  0.20235  1.0000
  H   H15       1.0  0.42468  0.42167  0.32694  1.0000
  H   H16       1.0  0.67503  0.62283  0.21250  1.0000
  H   H17       1.0  0.73828  0.64052  0.21834  1.0000
  H   H18       1.0  0.63199  0.69773  0.32688  1.0000
  H   H19       1.0  0.42806  0.60012  0.32893  1.0000
  H   H20       1.0  0.48800  0.66005  0.33380  1.0000
  H   H21       1.0  0.53849  0.68916  0.20253  1.0000
  H   H22       1.0  0.54918  0.75000  0.20548  1.0000
  H   H23       1.0  0.38152  0.49662  0.21256  1.0000
  H   H24       1.0  0.31836  0.47933  0.21849  1.0000
  C   C34       1.0  0.63965  0.07929  0.32915  1.0000
  C   C35       1.0  0.58296  0.02920  0.33286  1.0000
  N   N2        1.0  0.58063  0.06037  0.33149  1.0000
  C   C36       1.0  0.62334  0.12919  0.32944  1.0000
  C   C37       1.0  0.59690  0.14110  0.33094  1.0000
  C   C38       1.0  0.47642  0.09157  0.33286  1.0000
  N   N3        1.0  0.47875  0.06040  0.33135  1.0000
  C   C39       1.0  0.41973  0.04149  0.32896  1.0000
  C   C40       1.0  0.43603  0.99158  0.32924  1.0000
  C   C41       1.0  0.46247  0.97967  0.33063  1.0000
  N   N4        1.0  0.49970  0.00045  0.33127  1.0000
  C   C42       1.0  0.48743  0.94309  0.33003  1.0000
  C   C43       1.0  0.45458  0.94309  0.33213  1.0000
  C   C44       1.0  0.56492  0.96376  0.33634  1.0000
  C   C45       1.0  0.58242  0.90545  0.33924  1.0000
  C   C46       1.0  0.59457  0.93177  0.26935  1.0000
  C   C47       1.0  0.58481  0.95937  0.26606  1.0000
  C   C48       1.0  0.39778  0.96383  0.32651  1.0000
  C   C49       1.0  0.32184  0.90583  0.32384  1.0000
  C   C50       1.0  0.34683  0.90995  0.25496  1.0000
  C   C51       1.0  0.38339  0.93928  0.25387  1.0000
  C   C52       1.0  0.47447  0.16123  0.26592  1.0000
  C   C53       1.0  0.46447  0.18865  0.26919  1.0000
  C   C54       1.0  0.67587  0.18146  0.25379  1.0000
  C   C55       1.0  0.73739  0.21525  0.32367  1.0000
  C   C56       1.0  0.71236  0.21091  0.25476  1.0000
  H   H25       1.0  0.71973  0.22998  0.20528  1.0000
  H   H26       1.0  0.65902  0.17959  0.20232  1.0000
  H   H27       1.0  0.66772  0.09477  0.32675  1.0000
  H   H28       1.0  0.55772  0.06037  0.33139  1.0000
  H   H29       1.0  0.50166  0.06040  0.33125  1.0000
  H   H30       1.0  0.46657  0.14392  0.21216  1.0000
  H   H31       1.0  0.44888  0.18947  0.21800  1.0000
  H   H32       1.0  0.39166  0.02601  0.32671  1.0000
  H   H33       1.0  0.48927  0.91970  0.32851  1.0000
  H   H34       1.0  0.42935  0.91971  0.33343  1.0000
  H   H35       1.0  0.40020  0.94099  0.20241  1.0000
  H   H36       1.0  0.33936  0.89082  0.20555  1.0000
  H   H37       1.0  0.59279  0.97663  0.21224  1.0000
  H   H38       1.0  0.61009  0.93077  0.21813  1.0000
  C   C57       1.0  0.26699  0.50084  0.25454  1.0000
  C   C58       1.0  0.23305  0.50020  0.24874  1.0000
  C   C59       1.0  0.21499  0.50231  0.32674  1.0000
  H   H39       1.0  0.27973  0.50165  0.19596  1.0000
  O   O1        1.0  0.21702  0.49474  0.16681  1.0000
  H   H40       1.0  0.23372  0.51541  0.12823  1.0000
  C   C60       1.0  0.58860  0.85790  0.25416  1.0000
  C   C61       1.0  0.58921  0.82458  0.24835  1.0000
  C   C62       1.0  0.58710  0.80445  0.32635  1.0000
  H   H41       1.0  0.58776  0.86979  0.19558  1.0000
  O   O2        1.0  0.59466  0.81399  0.16641  1.0000
  H   H42       1.0  0.57398  0.80998  0.12785  1.0000
  C   C63       1.0  0.23151  0.82236  0.25451  1.0000
  C   C64       1.0  0.26480  0.85629  0.24859  1.0000
  C   C65       1.0  0.28497  0.87438  0.32653  1.0000
  H   H43       1.0  0.21957  0.80959  0.19596  1.0000
  O   O3        1.0  0.27537  0.87229  0.16663  1.0000
  H   H44       1.0  0.27934  0.85559  0.12806  1.0000
  C   C66       1.0  0.79019  0.61980  0.25436  1.0000
  C   C67       1.0  0.82432  0.62085  0.24856  1.0000
  C   C68       1.0  0.84246  0.61892  0.32654  1.0000
  H   H45       1.0  0.77741  0.61883  0.19576  1.0000
  O   O4        1.0  0.84046  0.62655  0.16667  1.0000
  H   H46       1.0  0.82395  0.60584  0.12793  1.0000
  C   C69       1.0  0.46962  0.26213  0.25404  1.0000
  C   C70       1.0  0.46853  0.29519  0.24822  1.0000
  C   C71       1.0  0.47046  0.31529  0.32619  1.0000
  H   H47       1.0  0.47054  0.25026  0.19544  1.0000
  O   O5        1.0  0.46282  0.30559  0.16633  1.0000
  H   H48       1.0  0.48352  0.30975  0.12757  1.0000
  C   C72       1.0  0.82732  0.29919  0.25436  1.0000
  C   C73       1.0  0.79425  0.26506  0.24847  1.0000
  C   C74       1.0  0.77412  0.24691  0.32640  1.0000
  H   H49       1.0  0.83919  0.31199  0.19579  1.0000
  O   O6        1.0  0.78388  0.24894  0.16655  1.0000
  H   H50       1.0  0.77973  0.26546  0.12780  1.0000
  C   C75       1.0  0.01010  0.65212  0.32967  1.0000
  C   C76       1.0  0.04798  0.67105  0.33441  1.0000
  C   C77       1.0  0.06018  0.64551  0.33341  1.0000
  N   N5        1.0  0.02902  0.61202  0.33205  1.0000
  C   C78       1.0  0.99787  0.61437  0.33065  1.0000
  C   C79       1.0  0.96020  0.58590  0.33000  1.0000
  N   N6        1.0  0.96906  0.53110  0.33214  1.0000
  C   C80       1.0  0.94826  0.49387  0.33269  1.0000
  C   C81       1.0  0.91170  0.48601  0.33106  1.0000
  C   C82       1.0  0.91172  0.51887  0.33328  1.0000
  C   C83       1.0  0.96015  0.46741  0.33409  1.0000
  C   C84       1.0  0.99781  0.47660  0.33338  1.0000
  N   N7        1.0  0.02898  0.51010  0.33186  1.0000
  C   C85       1.0  0.06013  0.50774  0.33044  1.0000
  C   C86       1.0  0.04790  0.47000  0.32940  1.0000
  C   C87       1.0  0.01002  0.45107  0.33444  1.0000
  N   N8        1.0  0.08894  0.59100  0.33189  1.0000
  C   C88       1.0  0.10973  0.62823  0.33246  1.0000
  C   C89       1.0  0.09785  0.65469  0.33402  1.0000
  C   C90       1.0  0.12562  0.69292  0.33697  1.0000
  C   C91       1.0  0.15015  0.70720  0.40964  1.0000
  C   C92       1.0  0.17960  0.74369  0.40868  1.0000
  C   C93       1.0  0.18395  0.76872  0.33976  1.0000
  C   C94       1.0  0.12981  0.50579  0.39735  1.0000
  C   C95       1.0  0.15724  0.49580  0.39407  1.0000
  C   C96       1.0  0.18357  0.50778  0.32418  1.0000
  C   C97       1.0  0.93238  0.42917  0.33678  1.0000
  C   C98       1.0  0.87441  0.35320  0.33948  1.0000
  C   C99       1.0  0.87849  0.37820  0.40832  1.0000
  C   C100      1.0  0.90776  0.41478  0.40929  1.0000
  C   C101      1.0  0.93244  0.59638  0.32694  1.0000
  C   C102      1.0  0.92802  0.61625  0.39720  1.0000
  C   C103      1.0  0.90042  0.62601  0.39383  1.0000
  C   C104      1.0  0.87412  0.61385  0.32391  1.0000
  H   H51       1.0  0.89938  0.64150  0.44507  1.0000
  H   H52       1.0  0.94525  0.62422  0.45107  1.0000
  H   H53       1.0  0.06348  0.69912  0.33675  1.0000
  H   H54       1.0  0.02901  0.58910  0.33204  1.0000
  H   H55       1.0  0.02899  0.53302  0.33184  1.0000
  H   H56       1.0  0.88833  0.52073  0.33457  1.0000
  H   H57       1.0  0.88830  0.46078  0.32964  1.0000
  H   H58       1.0  0.90952  0.43157  0.46086  1.0000
  H   H59       1.0  0.85937  0.37072  0.45775  1.0000
  H   H60       1.0  0.99454  0.42301  0.33702  1.0000
  H   H61       1.0  0.11250  0.49787  0.45112  1.0000
  H   H62       1.0  0.15806  0.48019  0.44523  1.0000
  H   H63       1.0  0.19871  0.75104  0.45806  1.0000
  H   H64       1.0  0.14831  0.69035  0.46108  1.0000
  C   C105      1.0  0.41834  0.46869  0.33419  1.0000
  N   N9        1.0  0.47737  0.50876  0.33163  1.0000
  C   C106      1.0  0.47501  0.47525  0.33021  1.0000
  C   C107      1.0  0.50348  0.46605  0.32956  1.0000
  N   N10       1.0  0.55828  0.52972  0.33176  1.0000
  C   C108      1.0  0.59551  0.54615  0.33236  1.0000
  C   C109      1.0  0.60337  0.51744  0.33072  1.0000
  C   C110      1.0  0.57051  0.48460  0.33285  1.0000
  C   C111      1.0  0.62197  0.58449  0.33384  1.0000
  N   N11       1.0  0.57928  0.61064  0.33171  1.0000
  C   C112      1.0  0.58164  0.64415  0.33022  1.0000
  C   C113      1.0  0.63831  0.65071  0.33438  1.0000
  C   C114      1.0  0.46115  0.57326  0.33209  1.0000
  C   C115      1.0  0.43470  0.53492  0.33367  1.0000
  C   C116      1.0  0.39647  0.52447  0.33668  1.0000
  C   C117      1.0  0.38221  0.53475  0.40939  1.0000
  C   C118      1.0  0.34571  0.52770  0.40852  1.0000
  C   C119      1.0  0.32066  0.50698  0.33964  1.0000
  C   C120      1.0  0.58361  0.71582  0.39699  1.0000
  C   C121      1.0  0.59360  0.75324  0.39371  1.0000
  C   C122      1.0  0.66021  0.59497  0.33658  1.0000
  C   C123      1.0  0.73616  0.61293  0.33935  1.0000
  C   C124      1.0  0.71116  0.59209  0.40823  1.0000
  C   C125      1.0  0.67458  0.58478  0.40915  1.0000
  C   C126      1.0  0.49300  0.42782  0.32650  1.0000
  C   C127      1.0  0.47312  0.40356  0.39677  1.0000
  C   C128      1.0  0.46337  0.36620  0.39345  1.0000
  C   C129      1.0  0.47554  0.35203  0.32356  1.0000
  H   H65       1.0  0.44789  0.34971  0.44470  1.0000
  H   H66       1.0  0.46516  0.41286  0.45064  1.0000
  H   H67       1.0  0.39027  0.45613  0.33636  1.0000
  H   H68       1.0  0.50028  0.53167  0.33161  1.0000
  H   H69       1.0  0.55637  0.58773  0.33163  1.0000
  H   H70       1.0  0.56865  0.45937  0.33422  1.0000
  H   H71       1.0  0.62860  0.51928  0.32938  1.0000
  H   H72       1.0  0.65776  0.56973  0.46063  1.0000
  H   H73       1.0  0.71861  0.58042  0.45760  1.0000
  H   H74       1.0  0.66638  0.66329  0.33660  1.0000
  H   H75       1.0  0.59150  0.70645  0.45080  1.0000
  H   H76       1.0  0.60920  0.76969  0.44488  1.0000
  H   H77       1.0  0.33837  0.53948  0.45794  1.0000
  H   H78       1.0  0.39907  0.54979  0.46081  1.0000
  C   C130      1.0  0.62070  0.04141  0.33402  1.0000
  C   C131      1.0  0.61414  0.09152  0.33012  1.0000
  N   N12       1.0  0.55967  0.12032  0.33151  1.0000
  C   C132      1.0  0.54324  0.14112  0.33207  1.0000
  C   C133      1.0  0.57195  0.17769  0.33042  1.0000
  C   C134      1.0  0.60478  0.17767  0.33261  1.0000
  C   C135      1.0  0.50490  0.12924  0.33349  1.0000
  C   C136      1.0  0.44525  0.02925  0.32994  1.0000
  C   C137      1.0  0.43868  0.07936  0.33401  1.0000
  C   C138      1.0  0.51613  0.97965  0.33179  1.0000
  C   C139      1.0  0.55447  0.99154  0.33337  1.0000
  C   C140      1.0  0.55464  0.93923  0.40902  1.0000
  C   C141      1.0  0.56170  0.90980  0.40813  1.0000
  C   C142      1.0  0.37361  0.95960  0.39690  1.0000
  C   C143      1.0  0.33618  0.93218  0.39369  1.0000
  C   C144      1.0  0.49442  0.15700  0.33624  1.0000
  C   C145      1.0  0.47643  0.21498  0.33907  1.0000
  C   C146      1.0  0.49729  0.21086  0.40791  1.0000
  C   C147      1.0  0.50462  0.18160  0.40880  1.0000
  C   C148      1.0  0.66158  0.15695  0.32648  1.0000
  C   C149      1.0  0.68580  0.16135  0.39682  1.0000
  C   C150      1.0  0.72316  0.18894  0.39357  1.0000
  H   H79       1.0  0.73964  0.18993  0.44481  1.0000
  H   H80       1.0  0.67648  0.14408  0.45064  1.0000
  H   H81       1.0  0.63327  0.02591  0.33608  1.0000
  H   H82       1.0  0.63002  0.20105  0.33400  1.0000
  H   H83       1.0  0.57011  0.20108  0.32903  1.0000
  H   H84       1.0  0.51964  0.17984  0.46033  1.0000
  H   H85       1.0  0.50895  0.23000  0.45730  1.0000
  H   H86       1.0  0.42610  0.09485  0.33636  1.0000
  H   H87       1.0  0.38300  0.97689  0.45069  1.0000
  H   H88       1.0  0.31976  0.93134  0.44493  1.0000
  H   H89       1.0  0.54992  0.89070  0.45753  1.0000
  H   H90       1.0  0.53959  0.94108  0.46044  1.0000
  C   C151      1.0  0.23075  0.50101  0.40917  1.0000
  C   C152      1.0  0.26383  0.49996  0.41497  1.0000
  C   C153      1.0  0.28393  0.50190  0.33699  1.0000
  O   O7        1.0  0.27424  0.49427  0.49686  1.0000
  H   H91       1.0  0.21887  0.50192  0.46777  1.0000
  H   H92       1.0  0.27840  0.51497  0.53561  1.0000
  C   C154      1.0  0.58844  0.82157  0.40878  1.0000
  C   C155      1.0  0.58948  0.85570  0.41459  1.0000
  C   C156      1.0  0.58754  0.87382  0.33661  1.0000
  O   O8        1.0  0.59515  0.87183  0.49649  1.0000
  H   H93       1.0  0.58750  0.80880  0.46738  1.0000
  H   H94       1.0  0.57445  0.85529  0.53521  1.0000
  C   C157      1.0  0.26791  0.85865  0.40902  1.0000
  C   C158      1.0  0.23379  0.82557  0.41493  1.0000
  C   C159      1.0  0.21562  0.80544  0.33701  1.0000
  O   O9        1.0  0.21769  0.81520  0.49687  1.0000
  H   H95       1.0  0.28070  0.87055  0.46758  1.0000
  H   H96       1.0  0.23422  0.81104  0.53557  1.0000
  C   C160      1.0  0.82653  0.61997  0.40898  1.0000
  C   C161      1.0  0.79320  0.62056  0.41479  1.0000
  C   C162      1.0  0.77306  0.61844  0.33680  1.0000
  O   O10       1.0  0.78257  0.62597  0.49674  1.0000
  H   H97       1.0  0.83842  0.61914  0.46757  1.0000
  H   H98       1.0  0.77859  0.60529  0.53527  1.0000
  C   C163      1.0  0.46946  0.29838  0.40864  1.0000
  C   C164      1.0  0.46887  0.26447  0.41447  1.0000
  C   C165      1.0  0.47098  0.24641  0.33648  1.0000
  O   O11       1.0  0.46342  0.24845  0.49642  1.0000
  H   H99       1.0  0.47026  0.31113  0.46723  1.0000
  H   H100      1.0  0.48410  0.26516  0.53496  1.0000
  C   C166      1.0  0.79103  0.26282  0.40889  1.0000
  C   C167      1.0  0.82494  0.29614  0.41479  1.0000
  C   C168      1.0  0.84302  0.31630  0.33684  1.0000
  O   O12       1.0  0.84092  0.30675  0.49677  1.0000
  H   H101      1.0  0.77825  0.25090  0.46744  1.0000
  H   H102      1.0  0.82417  0.31071  0.53527  1.0000
