data_image0
_chemical_formula_structural       C2HC2HN2CNCNH2CHCNCNH2CHC4OC4OH4N3C2HCHNC2HCHC2HC2HN2CNCNH2CHCNCNH2CHC4OC4OH4N3C2HCHNC2HCHC2HC2HN2CNCNH2CHCNCNH2CHC4OC4OH4N3C2HCHNC2HCHC2HC2HN2CNCNH2CHCNCNH2CHC4OC4OH4N3C2HCHNC2HCH
_chemical_formula_sum              "C96 H64 N40 O8"
_cell_length_a       31.2159
_cell_length_b       31.2159
_cell_length_c       14.8326
_cell_angle_alpha    90
_cell_angle_beta     90
_cell_angle_gamma    90

_space_group_name_H-M_alt    "P 1"
_space_group_IT_number       1

loop_
  _space_group_symop_operation_xyz
  'x, y, z'

loop_
  _atom_site_type_symbol
  _atom_site_label
  _atom_site_symmetry_multiplicity
  _atom_site_fract_x
  _atom_site_fract_y
  _atom_site_fract_z
  _atom_site_occupancy
  C   C1        1.0  0.50312  0.44007  0.32878  1.0000
  C   C2        1.0  0.47141  0.40768  0.32812  1.0000
  H   H1        1.0  0.03386  0.42964  0.32931  1.0000
  C   C3        1.0  0.04815  0.09510  0.32875  1.0000
  C   C4        1.0  0.01673  0.06244  0.32816  1.0000
  H   H2        1.0  0.48598  0.07269  0.32690  1.0000
  N   N1        1.0  0.03932  0.13771  0.32805  1.0000
  N   N2        1.0  0.47983  0.36505  0.32823  1.0000
  C   C5        1.0  0.00391  0.20620  0.32656  1.0000
  N   N3        1.0  0.47358  0.27626  0.32552  1.0000
  C   C6        1.0  0.96709  0.23311  0.32425  1.0000
  N   N4        1.0  0.92580  0.21971  0.32067  1.0000
  H   H3        1.0  0.91807  0.18967  0.31903  1.0000
  H   H4        1.0  0.90250  0.24042  0.31899  1.0000
  C   C7        1.0  0.00284  0.16107  0.32616  1.0000
  H   H5        1.0  0.97424  0.14541  0.32450  1.0000
  C   C8        1.0  0.30506  0.00737  0.32795  1.0000
  N   N5        1.0  0.23501  0.53771  0.32791  1.0000
  C   C9        1.0  0.27816  0.04421  0.32713  1.0000
  N   N6        1.0  0.29156  0.08552  0.32540  1.0000
  H   H6        1.0  0.32160  0.09327  0.32433  1.0000
  H   H7        1.0  0.27085  0.10884  0.32470  1.0000
  C   C10       1.0  0.35020  0.00844  0.32769  1.0000
  H   H8        1.0  0.36586  0.03705  0.32723  1.0000
  C   C11       1.0  0.49359  0.48487  0.32862  1.0000
  C   C12       1.0  0.42790  0.41957  0.32677  1.0000
  C   C13       1.0  0.41617  0.46312  0.32774  1.0000
  C   C14       1.0  0.44883  0.49454  0.32838  1.0000
  O   O1        1.0  0.39686  0.38873  0.32760  1.0000
  C   C15       1.0  0.02640  0.01767  0.32893  1.0000
  C   C16       1.0  0.07119  0.00815  0.32963  1.0000
  C   C17       1.0  0.10358  0.03985  0.32996  1.0000
  C   C18       1.0  0.09169  0.08337  0.33047  1.0000
  O   O2        1.0  0.12254  0.11441  0.32940  1.0000
  H   H9        1.0  0.39054  0.38220  0.26411  1.0000
  H   H10       1.0  0.12893  0.12095  0.39285  1.0000
  H   H11       1.0  0.43857  0.02529  0.32917  1.0000
  H   H12       1.0  0.08163  0.47741  0.32963  1.0000
  N   N7        1.0  0.14621  0.03144  0.32985  1.0000
  N   N8        1.0  0.37356  0.47194  0.32773  1.0000
  N   N9        1.0  0.04289  0.22585  0.32965  1.0000
  C   C19       1.0  0.54869  0.26891  0.33071  1.0000
  C   C20       1.0  0.51247  0.29580  0.32869  1.0000
  H   H13       1.0  0.57907  0.28104  0.33311  1.0000
  C   C21       1.0  0.51560  0.34070  0.32965  1.0000
  H   H14       1.0  0.54508  0.35494  0.33157  1.0000
  N   N10       1.0  0.28541  0.96837  0.32925  1.0000
  C   C22       1.0  0.24235  0.46257  0.32989  1.0000
  C   C23       1.0  0.21547  0.49879  0.32931  1.0000
  H   H15       1.0  0.23021  0.43216  0.33092  1.0000
  C   C24       1.0  0.17056  0.49566  0.32992  1.0000
  H   H16       1.0  0.15632  0.46616  0.33054  1.0000
  C   C25       1.0  0.50312  0.94008  0.32878  1.0000
  C   C26       1.0  0.47141  0.90768  0.32812  1.0000
  H   H17       1.0  0.03386  0.92964  0.32931  1.0000
  C   C27       1.0  0.04815  0.59510  0.32875  1.0000
  C   C28       1.0  0.01673  0.56244  0.32816  1.0000
  H   H18       1.0  0.48598  0.57269  0.32690  1.0000
  N   N11       1.0  0.03932  0.63771  0.32805  1.0000
  N   N12       1.0  0.47983  0.86505  0.32823  1.0000
  C   C29       1.0  0.00391  0.70620  0.32656  1.0000
  N   N13       1.0  0.47358  0.77626  0.32552  1.0000
  C   C30       1.0  0.96709  0.73311  0.32425  1.0000
  N   N14       1.0  0.92580  0.71971  0.32067  1.0000
  H   H19       1.0  0.91807  0.68967  0.31903  1.0000
  H   H20       1.0  0.90250  0.74042  0.31899  1.0000
  C   C31       1.0  0.00284  0.66107  0.32616  1.0000
  H   H21       1.0  0.97424  0.64541  0.32450  1.0000
  C   C32       1.0  0.30506  0.50737  0.32795  1.0000
  N   N15       1.0  0.23501  0.03771  0.32791  1.0000
  C   C33       1.0  0.27816  0.54421  0.32713  1.0000
  N   N16       1.0  0.29156  0.58552  0.32540  1.0000
  H   H22       1.0  0.32160  0.59327  0.32433  1.0000
  H   H23       1.0  0.27085  0.60884  0.32470  1.0000
  C   C34       1.0  0.35020  0.50844  0.32769  1.0000
  H   H24       1.0  0.36586  0.53705  0.32723  1.0000
  C   C35       1.0  0.49359  0.98487  0.32862  1.0000
  C   C36       1.0  0.42790  0.91957  0.32677  1.0000
  C   C37       1.0  0.41617  0.96312  0.32774  1.0000
  C   C38       1.0  0.44883  0.99454  0.32838  1.0000
  O   O3        1.0  0.39686  0.88873  0.32760  1.0000
  C   C39       1.0  0.02640  0.51768  0.32893  1.0000
  C   C40       1.0  0.07119  0.50815  0.32963  1.0000
  C   C41       1.0  0.10358  0.53985  0.32996  1.0000
  C   C42       1.0  0.09169  0.58337  0.33047  1.0000
  O   O4        1.0  0.12254  0.61441  0.32940  1.0000
  H   H25       1.0  0.39054  0.88221  0.26411  1.0000
  H   H26       1.0  0.12893  0.62096  0.39285  1.0000
  H   H27       1.0  0.43857  0.52529  0.32917  1.0000
  H   H28       1.0  0.08163  0.97741  0.32963  1.0000
  N   N17       1.0  0.14621  0.53144  0.32985  1.0000
  N   N18       1.0  0.37356  0.97194  0.32773  1.0000
  N   N19       1.0  0.04289  0.72585  0.32965  1.0000
  C   C43       1.0  0.54869  0.76891  0.33071  1.0000
  C   C44       1.0  0.51247  0.79580  0.32869  1.0000
  H   H29       1.0  0.57907  0.78105  0.33311  1.0000
  C   C45       1.0  0.51560  0.84070  0.32965  1.0000
  H   H30       1.0  0.54508  0.85494  0.33157  1.0000
  N   N20       1.0  0.28541  0.46837  0.32925  1.0000
  C   C46       1.0  0.24235  0.96257  0.32989  1.0000
  C   C47       1.0  0.21547  0.99879  0.32931  1.0000
  H   H31       1.0  0.23021  0.93216  0.33092  1.0000
  C   C48       1.0  0.17056  0.99566  0.32992  1.0000
  H   H32       1.0  0.15632  0.96617  0.33054  1.0000
  C   C49       1.0  0.00312  0.44007  0.32878  1.0000
  C   C50       1.0  0.97142  0.40768  0.32812  1.0000
  H   H33       1.0  0.53386  0.42964  0.32931  1.0000
  C   C51       1.0  0.54815  0.09510  0.32875  1.0000
  C   C52       1.0  0.51673  0.06244  0.32816  1.0000
  H   H34       1.0  0.98599  0.07269  0.32690  1.0000
  N   N21       1.0  0.53933  0.13771  0.32805  1.0000
  N   N22       1.0  0.97983  0.36505  0.32823  1.0000
  C   C53       1.0  0.50391  0.20620  0.32656  1.0000
  N   N23       1.0  0.97358  0.27626  0.32552  1.0000
  C   C54       1.0  0.46709  0.23311  0.32425  1.0000
  N   N24       1.0  0.42580  0.21971  0.32067  1.0000
  H   H35       1.0  0.41807  0.18967  0.31903  1.0000
  H   H36       1.0  0.40250  0.24042  0.31899  1.0000
  C   C55       1.0  0.50284  0.16107  0.32616  1.0000
  H   H37       1.0  0.47424  0.14541  0.32450  1.0000
  C   C56       1.0  0.80507  0.00737  0.32795  1.0000
  N   N25       1.0  0.73501  0.53771  0.32791  1.0000
  C   C57       1.0  0.77816  0.04421  0.32713  1.0000
  N   N26       1.0  0.79156  0.08552  0.32540  1.0000
  H   H38       1.0  0.82161  0.09327  0.32433  1.0000
  H   H39       1.0  0.77085  0.10884  0.32470  1.0000
  C   C58       1.0  0.85020  0.00844  0.32769  1.0000
  H   H40       1.0  0.86586  0.03705  0.32723  1.0000
  C   C59       1.0  0.99359  0.48487  0.32862  1.0000
  C   C60       1.0  0.92789  0.41957  0.32677  1.0000
  C   C61       1.0  0.91617  0.46312  0.32774  1.0000
  C   C62       1.0  0.94883  0.49454  0.32838  1.0000
  O   O5        1.0  0.89686  0.38873  0.32760  1.0000
  C   C63       1.0  0.52640  0.01767  0.32893  1.0000
  C   C64       1.0  0.57119  0.00815  0.32963  1.0000
  C   C65       1.0  0.60358  0.03985  0.32996  1.0000
  C   C66       1.0  0.59169  0.08337  0.33047  1.0000
  O   O6        1.0  0.62254  0.11441  0.32940  1.0000
  H   H41       1.0  0.89053  0.38220  0.26411  1.0000
  H   H42       1.0  0.62893  0.12095  0.39285  1.0000
  H   H43       1.0  0.93857  0.02529  0.32917  1.0000
  H   H44       1.0  0.58163  0.47741  0.32963  1.0000
  N   N27       1.0  0.64622  0.03144  0.32985  1.0000
  N   N28       1.0  0.87356  0.47194  0.32773  1.0000
  N   N29       1.0  0.54289  0.22585  0.32965  1.0000
  C   C67       1.0  0.04869  0.26891  0.33071  1.0000
  C   C68       1.0  0.01247  0.29580  0.32869  1.0000
  H   H45       1.0  0.07907  0.28104  0.33311  1.0000
  C   C69       1.0  0.01560  0.34070  0.32965  1.0000
  H   H46       1.0  0.04508  0.35494  0.33157  1.0000
  N   N30       1.0  0.78541  0.96837  0.32925  1.0000
  C   C70       1.0  0.74235  0.46257  0.32989  1.0000
  C   C71       1.0  0.71547  0.49879  0.32931  1.0000
  H   H47       1.0  0.73022  0.43216  0.33092  1.0000
  C   C72       1.0  0.67056  0.49566  0.32992  1.0000
  H   H48       1.0  0.65632  0.46616  0.33054  1.0000
  C   C73       1.0  0.00312  0.94008  0.32878  1.0000
  C   C74       1.0  0.97142  0.90768  0.32812  1.0000
  H   H49       1.0  0.53386  0.92964  0.32931  1.0000
  C   C75       1.0  0.54815  0.59510  0.32875  1.0000
  C   C76       1.0  0.51673  0.56244  0.32816  1.0000
  H   H50       1.0  0.98599  0.57269  0.32690  1.0000
  N   N31       1.0  0.53933  0.63771  0.32805  1.0000
  N   N32       1.0  0.97983  0.86505  0.32823  1.0000
  C   C77       1.0  0.50391  0.70620  0.32656  1.0000
  N   N33       1.0  0.97358  0.77626  0.32552  1.0000
  C   C78       1.0  0.46709  0.73311  0.32425  1.0000
  N   N34       1.0  0.42580  0.71971  0.32067  1.0000
  H   H51       1.0  0.41807  0.68967  0.31903  1.0000
  H   H52       1.0  0.40250  0.74042  0.31899  1.0000
  C   C79       1.0  0.50284  0.66107  0.32616  1.0000
  H   H53       1.0  0.47424  0.64541  0.32450  1.0000
  C   C80       1.0  0.80507  0.50737  0.32795  1.0000
  N   N35       1.0  0.73501  0.03771  0.32791  1.0000
  C   C81       1.0  0.77816  0.54421  0.32713  1.0000
  N   N36       1.0  0.79156  0.58552  0.32540  1.0000
  H   H54       1.0  0.82161  0.59327  0.32433  1.0000
  H   H55       1.0  0.77085  0.60884  0.32470  1.0000
  C   C82       1.0  0.85020  0.50844  0.32769  1.0000
  H   H56       1.0  0.86586  0.53705  0.32723  1.0000
  C   C83       1.0  0.99359  0.98487  0.32862  1.0000
  C   C84       1.0  0.92789  0.91957  0.32677  1.0000
  C   C85       1.0  0.91617  0.96312  0.32774  1.0000
  C   C86       1.0  0.94883  0.99454  0.32838  1.0000
  O   O7        1.0  0.89686  0.88873  0.32760  1.0000
  C   C87       1.0  0.52640  0.51768  0.32893  1.0000
  C   C88       1.0  0.57119  0.50815  0.32963  1.0000
  C   C89       1.0  0.60358  0.53985  0.32996  1.0000
  C   C90       1.0  0.59169  0.58337  0.33047  1.0000
  O   O8        1.0  0.62254  0.61441  0.32940  1.0000
  H   H57       1.0  0.89053  0.88221  0.26411  1.0000
  H   H58       1.0  0.62893  0.62096  0.39285  1.0000
  H   H59       1.0  0.93857  0.52529  0.32917  1.0000
  H   H60       1.0  0.58163  0.97741  0.32963  1.0000
  N   N37       1.0  0.64622  0.53144  0.32985  1.0000
  N   N38       1.0  0.87356  0.97194  0.32773  1.0000
  N   N39       1.0  0.54289  0.72585  0.32965  1.0000
  C   C91       1.0  0.04869  0.76891  0.33071  1.0000
  C   C92       1.0  0.01247  0.79580  0.32869  1.0000
  H   H61       1.0  0.07907  0.78105  0.33311  1.0000
  C   C93       1.0  0.01560  0.84070  0.32965  1.0000
  H   H62       1.0  0.04508  0.85494  0.33157  1.0000
  N   N40       1.0  0.78541  0.46837  0.32925  1.0000
  C   C94       1.0  0.74235  0.96257  0.32989  1.0000
  C   C95       1.0  0.71547  0.99879  0.32931  1.0000
  H   H63       1.0  0.73022  0.93216  0.33092  1.0000
  C   C96       1.0  0.67056  0.99566  0.32992  1.0000
  H   H64       1.0  0.65632  0.96617  0.33054  1.0000
