data_image0
_chemical_formula_structural       C4H2C4H2C4H2N13C18H12NC18H12NC18H12NC18H12NC18H12NC18H12N6C4H2C4H2C4H2C4H2C4H2C4H2
_chemical_formula_sum              "C144 H90 N24"
_cell_length_a       52.2465
_cell_length_b       52.2466
_cell_length_c       14.8659
_cell_angle_alpha    90
_cell_angle_beta     90
_cell_angle_gamma    120

_space_group_name_H-M_alt    "P 1"
_space_group_IT_number       1

loop_
  _space_group_symop_operation_xyz
  'x, y, z'

loop_
  _atom_site_type_symbol
  _atom_site_label
  _atom_site_symmetry_multiplicity
  _atom_site_fract_x
  _atom_site_fract_y
  _atom_site_fract_z
  _atom_site_occupancy
  C   C1        1.0  0.97565  0.48943  0.31348  1.0000
  C   C2        1.0  0.99136  0.49529  0.23144  1.0000
  C   C3        1.0  0.02248  0.51078  0.23113  1.0000
  C   C4        1.0  0.03839  0.52068  0.31283  1.0000
  H   H1        1.0  0.03312  0.51381  0.17107  1.0000
  H   H2        1.0  0.98056  0.48764  0.17162  1.0000
  C   C5        1.0  0.52244  0.48895  0.31607  1.0000
  C   C6        1.0  0.51446  0.49681  0.23395  1.0000
  C   C7        1.0  0.49884  0.51231  0.23386  1.0000
  C   C8        1.0  0.49108  0.52044  0.31589  1.0000
  H   H3        1.0  0.49292  0.51697  0.17328  1.0000
  H   H4        1.0  0.52022  0.49192  0.17343  1.0000
  C   C9        1.0  0.52272  0.03617  0.31961  1.0000
  C   C10       1.0  0.51245  0.02030  0.23796  1.0000
  C   C11       1.0  0.49684  0.98919  0.23816  1.0000
  C   C12       1.0  0.49126  0.97341  0.32001  1.0000
  H   H5        1.0  0.48894  0.97843  0.17841  1.0000
  H   H6        1.0  0.51531  0.03101  0.17809  1.0000
  N   N1        1.0  0.27090  0.55768  0.29329  1.0000
  N   N2        1.0  0.29590  0.55760  0.29400  1.0000
  N   N3        1.0  0.44244  0.71001  0.28823  1.0000
  N   N4        1.0  0.44269  0.73515  0.28861  1.0000
  N   N5        1.0  0.29946  0.73856  0.29236  1.0000
  N   N6        1.0  0.27460  0.71336  0.29079  1.0000
  N   N7        1.0  0.73993  0.44643  0.29014  1.0000
  N   N8        1.0  0.71498  0.44659  0.29073  1.0000
  N   N9        1.0  0.56687  0.29702  0.29123  1.0000
  N   N10       1.0  0.56673  0.27191  0.29147  1.0000
  N   N11       1.0  0.71525  0.27223  0.29049  1.0000
  N   N12       1.0  0.74032  0.29723  0.29040  1.0000
  N   N13       1.0  0.16480  0.58272  0.33784  1.0000
  C   C13       1.0  0.18189  0.61406  0.33876  1.0000
  C   C14       1.0  0.13351  0.56754  0.33214  1.0000
  C   C15       1.0  0.18090  0.56758  0.34633  1.0000
  C   C16       1.0  0.19112  0.55992  0.26877  1.0000
  C   C17       1.0  0.21343  0.55234  0.27514  1.0000
  C   C18       1.0  0.22614  0.55201  0.35915  1.0000
  C   C19       1.0  0.21466  0.55843  0.43700  1.0000
  C   C20       1.0  0.19256  0.56623  0.43065  1.0000
  C   C21       1.0  0.18805  0.62956  0.42077  1.0000
  C   C22       1.0  0.21073  0.65931  0.42643  1.0000
  C   C23       1.0  0.22815  0.67470  0.35044  1.0000
  C   C24       1.0  0.22066  0.65909  0.26754  1.0000
  C   C25       1.0  0.19813  0.62932  0.26182  1.0000
  C   C26       1.0  0.11944  0.56860  0.25248  1.0000
  C   C27       1.0  0.08837  0.55342  0.24606  1.0000
  C   C28       1.0  0.07012  0.53649  0.31877  1.0000
  C   C29       1.0  0.08464  0.53598  0.39891  1.0000
  C   C30       1.0  0.11574  0.55114  0.40547  1.0000
  H   H7        1.0  0.21560  0.66872  0.48880  1.0000
  H   H8        1.0  0.17749  0.61861  0.47824  1.0000
  H   H9        1.0  0.19478  0.61831  0.20224  1.0000
  H   H10       1.0  0.23248  0.66880  0.21042  1.0000
  H   H11       1.0  0.18399  0.56203  0.20662  1.0000
  H   H12       1.0  0.22124  0.54836  0.21681  1.0000
  H   H13       1.0  0.13183  0.58051  0.19856  1.0000
  H   H14       1.0  0.07933  0.55547  0.18750  1.0000
  H   H15       1.0  0.07268  0.52409  0.45348  1.0000
  H   H16       1.0  0.12540  0.55011  0.46414  1.0000
  H   H17       1.0  0.18647  0.57295  0.48729  1.0000
  H   H18       1.0  0.22390  0.55992  0.49876  1.0000
  N   N14       1.0  0.42651  0.58230  0.34480  1.0000
  C   C31       1.0  0.39524  0.56714  0.35255  1.0000
  C   C32       1.0  0.44256  0.56710  0.33747  1.0000
  C   C33       1.0  0.44057  0.61360  0.34079  1.0000
  C   C34       1.0  0.43872  0.62758  0.26184  1.0000
  C   C35       1.0  0.44580  0.65734  0.26336  1.0000
  C   C36       1.0  0.45481  0.67417  0.34385  1.0000
  C   C37       1.0  0.45774  0.66018  0.42187  1.0000
  C   C38       1.0  0.45069  0.63039  0.42043  1.0000
  C   C39       1.0  0.38216  0.56675  0.43591  1.0000
  C   C40       1.0  0.35224  0.55899  0.44093  1.0000
  C   C41       1.0  0.33445  0.55167  0.36260  1.0000
  C   C42       1.0  0.34755  0.55106  0.27966  1.0000
  C   C43       1.0  0.37744  0.55856  0.27468  1.0000
  C   C44       1.0  0.44431  0.55085  0.41055  1.0000
  C   C45       1.0  0.46028  0.53574  0.40309  1.0000
  C   C46       1.0  0.47507  0.53621  0.32241  1.0000
  C   C47       1.0  0.47335  0.55304  0.25000  1.0000
  C   C48       1.0  0.45734  0.56808  0.25715  1.0000
  H   H19       1.0  0.34439  0.56113  0.50178  1.0000
  H   H20       1.0  0.39494  0.57417  0.49255  1.0000
  H   H21       1.0  0.38672  0.55985  0.21307  1.0000
  H   H22       1.0  0.33578  0.54635  0.22104  1.0000
  H   H23       1.0  0.43049  0.61563  0.20403  1.0000
  H   H24       1.0  0.44302  0.66620  0.20532  1.0000
  H   H25       1.0  0.43388  0.54989  0.46969  1.0000
  H   H26       1.0  0.46059  0.52397  0.45765  1.0000
  H   H27       1.0  0.48419  0.55514  0.19093  1.0000
  H   H28       1.0  0.45661  0.57990  0.20337  1.0000
  H   H29       1.0  0.45083  0.62036  0.47937  1.0000
  H   H30       1.0  0.46289  0.67076  0.48260  1.0000
  N   N15       1.0  0.42783  0.84703  0.34901  1.0000
  C   C49       1.0  0.44217  0.83003  0.34460  1.0000
  C   C50       1.0  0.44355  0.87829  0.34125  1.0000
  C   C51       1.0  0.39650  0.83055  0.35407  1.0000
  C   C52       1.0  0.37949  0.82078  0.27468  1.0000
  C   C53       1.0  0.34981  0.79784  0.27764  1.0000
  C   C54       1.0  0.33612  0.78420  0.36003  1.0000
  C   C55       1.0  0.35300  0.79525  0.43985  1.0000
  C   C56       1.0  0.38279  0.81789  0.43681  1.0000
  C   C57       1.0  0.45101  0.82222  0.42472  1.0000
  C   C58       1.0  0.45787  0.79935  0.42529  1.0000
  C   C59       1.0  0.45585  0.78336  0.34593  1.0000
  C   C60       1.0  0.44810  0.79226  0.26516  1.0000
  C   C61       1.0  0.44136  0.81519  0.26443  1.0000
  C   C62       1.0  0.45806  0.89223  0.26070  1.0000
  C   C63       1.0  0.47373  0.92330  0.25359  1.0000
  C   C64       1.0  0.47544  0.94168  0.32646  1.0000
  C   C65       1.0  0.46098  0.92728  0.40738  1.0000
  C   C66       1.0  0.44526  0.89619  0.41462  1.0000
  H   H31       1.0  0.46210  0.79307  0.48603  1.0000
  H   H32       1.0  0.45038  0.83168  0.48431  1.0000
  H   H33       1.0  0.43397  0.81967  0.20616  1.0000
  H   H34       1.0  0.44602  0.78128  0.20621  1.0000
  H   H35       1.0  0.38927  0.82877  0.21363  1.0000
  H   H36       1.0  0.33864  0.79035  0.21817  1.0000
  H   H37       1.0  0.45736  0.87978  0.20670  1.0000
  H   H38       1.0  0.48442  0.93225  0.19442  1.0000
  H   H39       1.0  0.46135  0.93931  0.46213  1.0000
  H   H40       1.0  0.43504  0.88662  0.47393  1.0000
  H   H41       1.0  0.39504  0.82358  0.49459  1.0000
  H   H42       1.0  0.34466  0.78527  0.50044  1.0000
  N   N16       1.0  0.84933  0.42610  0.34225  1.0000
  C   C67       1.0  0.83276  0.39477  0.34641  1.0000
  C   C68       1.0  0.88059  0.44179  0.33489  1.0000
  C   C69       1.0  0.83258  0.44071  0.34279  1.0000
  C   C70       1.0  0.81811  0.44175  0.26397  1.0000
  C   C71       1.0  0.79557  0.44900  0.26824  1.0000
  C   C72       1.0  0.78647  0.45522  0.35140  1.0000
  C   C73       1.0  0.80209  0.45527  0.42961  1.0000
  C   C74       1.0  0.82469  0.44806  0.42545  1.0000
  C   C75       1.0  0.82155  0.38072  0.42985  1.0000
  C   C76       1.0  0.79901  0.35091  0.43368  1.0000
  C   C77       1.0  0.78658  0.33429  0.35413  1.0000
  C   C78       1.0  0.79871  0.34836  0.27078  1.0000
  C   C79       1.0  0.82151  0.37808  0.26694  1.0000
  C   C80       1.0  0.89847  0.44283  0.40746  1.0000
  C   C81       1.0  0.92955  0.45855  0.40021  1.0000
  C   C82       1.0  0.94394  0.47365  0.32004  1.0000
  C   C83       1.0  0.92560  0.47262  0.24801  1.0000
  C   C84       1.0  0.89454  0.45697  0.25516  1.0000
  H   H43       1.0  0.79017  0.34234  0.49527  1.0000
  H   H44       1.0  0.82832  0.39273  0.48805  1.0000
  H   H45       1.0  0.82839  0.38812  0.20566  1.0000
  H   H46       1.0  0.79022  0.33742  0.21148  1.0000
  H   H47       1.0  0.82264  0.43543  0.20373  1.0000
  H   H48       1.0  0.78495  0.44837  0.20974  1.0000
  H   H49       1.0  0.88889  0.43213  0.46620  1.0000
  H   H50       1.0  0.94158  0.45841  0.45429  1.0000
  H   H51       1.0  0.93458  0.48378  0.18948  1.0000
  H   H52       1.0  0.88209  0.45675  0.20177  1.0000
  H   H53       1.0  0.83384  0.44605  0.48394  1.0000
  H   H54       1.0  0.79572  0.45820  0.49191  1.0000
  N   N17       1.0  0.58628  0.42639  0.34590  1.0000
  C   C85       1.0  0.61762  0.44132  0.34949  1.0000
  C   C86       1.0  0.57048  0.44183  0.33812  1.0000
  C   C87       1.0  0.57187  0.39504  0.34542  1.0000
  C   C88       1.0  0.57114  0.37978  0.26632  1.0000
  C   C89       1.0  0.56403  0.35002  0.26990  1.0000
  C   C90       1.0  0.55764  0.33447  0.35265  1.0000
  C   C91       1.0  0.55734  0.34979  0.43116  1.0000
  C   C92       1.0  0.56439  0.37955  0.42768  1.0000
  C   C93       1.0  0.63180  0.44400  0.43256  1.0000
  C   C94       1.0  0.66165  0.45136  0.43566  1.0000
  C   C95       1.0  0.67817  0.45589  0.35570  1.0000
  C   C96       1.0  0.66399  0.45419  0.27277  1.0000
  C   C97       1.0  0.63423  0.44715  0.26966  1.0000
  C   C98       1.0  0.56949  0.45883  0.41030  1.0000
  C   C99       1.0  0.55369  0.47410  0.40270  1.0000
  C   C100      1.0  0.53835  0.47310  0.32271  1.0000
  C   C101      1.0  0.53936  0.45560  0.25114  1.0000
  C   C102      1.0  0.55517  0.44036  0.25849  1.0000
  H   H55       1.0  0.67032  0.45090  0.49689  1.0000
  H   H56       1.0  0.61985  0.43844  0.49092  1.0000
  H   H57       1.0  0.62409  0.44414  0.20861  1.0000
  H   H58       1.0  0.67487  0.45686  0.21321  1.0000
  H   H59       1.0  0.57755  0.39080  0.20636  1.0000
  H   H60       1.0  0.56487  0.34023  0.21123  1.0000
  H   H61       1.0  0.58029  0.46014  0.46897  1.0000
  H   H62       1.0  0.55388  0.48636  0.45660  1.0000
  H   H63       1.0  0.52807  0.45311  0.19272  1.0000
  H   H64       1.0  0.55534  0.42801  0.20538  1.0000
  H   H65       1.0  0.56618  0.39052  0.48642  1.0000
  H   H66       1.0  0.55425  0.34030  0.49324  1.0000
  N   N18       1.0  0.58586  0.16258  0.34561  1.0000
  C   C103      1.0  0.57108  0.17915  0.34891  1.0000
  C   C104      1.0  0.57029  0.13130  0.33898  1.0000
  C   C105      1.0  0.61723  0.17939  0.34580  1.0000
  C   C106      1.0  0.63267  0.19346  0.26646  1.0000
  C   C107      1.0  0.66242  0.21616  0.27010  1.0000
  C   C108      1.0  0.67777  0.22578  0.35306  1.0000
  C   C109      1.0  0.66226  0.21059  0.43186  1.0000
  C   C110      1.0  0.63252  0.18782  0.42836  1.0000
  C   C111      1.0  0.56798  0.19035  0.43204  1.0000
  C   C112      1.0  0.56083  0.21298  0.43521  1.0000
  C   C113      1.0  0.55698  0.22548  0.35527  1.0000
  C   C114      1.0  0.55914  0.21335  0.27222  1.0000
  C   C115      1.0  0.56596  0.19047  0.26903  1.0000
  C   C116      1.0  0.55366  0.11359  0.41212  1.0000
  C   C117      1.0  0.53826  0.08249  0.40557  1.0000
  C   C118      1.0  0.53870  0.06790  0.32553  1.0000
  C   C119      1.0  0.55580  0.08607  0.25291  1.0000
  C   C120      1.0  0.57125  0.11714  0.25937  1.0000
  H   H67       1.0  0.56096  0.22186  0.49661  1.0000
  H   H68       1.0  0.57307  0.18360  0.49055  1.0000
  H   H69       1.0  0.56931  0.18360  0.20800  1.0000
  H   H70       1.0  0.55696  0.22191  0.21269  1.0000
  H   H71       1.0  0.62177  0.18857  0.20626  1.0000
  H   H72       1.0  0.67235  0.22648  0.21120  1.0000
  H   H73       1.0  0.55273  0.12331  0.47077  1.0000
  H   H74       1.0  0.52627  0.07058  0.46007  1.0000
  H   H75       1.0  0.55777  0.07693  0.19441  1.0000
  H   H76       1.0  0.58331  0.12945  0.20555  1.0000
  H   H77       1.0  0.62139  0.17899  0.48713  1.0000
  H   H78       1.0  0.67162  0.21732  0.49397  1.0000
  N   N19       1.0  0.02159  0.51380  0.38878  1.0000
  N   N20       1.0  0.99262  0.49936  0.38909  1.0000
  N   N21       1.0  0.49964  0.51208  0.39177  1.0000
  N   N22       1.0  0.51412  0.49759  0.39188  1.0000
  N   N23       1.0  0.50155  0.99036  0.39558  1.0000
  N   N24       1.0  0.51608  0.01934  0.39542  1.0000
  C   C121      1.0  0.30556  0.54834  0.36523  1.0000
  C   C122      1.0  0.28657  0.53788  0.44074  1.0000
  C   C123      1.0  0.25967  0.53795  0.43989  1.0000
  C   C124      1.0  0.25162  0.54854  0.36361  1.0000
  H   H79       1.0  0.24625  0.53025  0.49506  1.0000
  H   H80       1.0  0.29202  0.53017  0.49650  1.0000
  C   C125      1.0  0.45860  0.75743  0.34783  1.0000
  C   C126      1.0  0.47578  0.75225  0.41090  1.0000
  C   C127      1.0  0.47553  0.72517  0.41037  1.0000
  C   C128      1.0  0.45806  0.70307  0.34692  1.0000
  H   H81       1.0  0.48837  0.72202  0.45583  1.0000
  H   H82       1.0  0.48875  0.76803  0.45673  1.0000
  C   C129      1.0  0.25378  0.70372  0.35701  1.0000
  C   C130      1.0  0.26036  0.72334  0.43045  1.0000
  C   C131      1.0  0.28719  0.75040  0.43281  1.0000
  C   C132      1.0  0.30754  0.75827  0.36115  1.0000
  H   H83       1.0  0.29150  0.76423  0.48643  1.0000
  H   H84       1.0  0.24595  0.71842  0.48264  1.0000
  C   C133      1.0  0.70689  0.45886  0.35768  1.0000
  C   C134      1.0  0.72738  0.47228  0.42861  1.0000
  C   C135      1.0  0.75429  0.47220  0.42755  1.0000
  C   C136      1.0  0.76081  0.45850  0.35595  1.0000
  H   H85       1.0  0.76887  0.48231  0.47906  1.0000
  H   H86       1.0  0.72310  0.48233  0.48081  1.0000
  C   C137      1.0  0.55410  0.25129  0.35761  1.0000
  C   C138      1.0  0.54026  0.25807  0.42798  1.0000
  C   C139      1.0  0.54034  0.28505  0.42732  1.0000
  C   C140      1.0  0.55443  0.30555  0.35663  1.0000
  H   H87       1.0  0.52992  0.28931  0.47838  1.0000
  H   H88       1.0  0.52989  0.24352  0.47946  1.0000
  C   C141      1.0  0.76084  0.30555  0.35696  1.0000
  C   C142      1.0  0.75398  0.28523  0.42829  1.0000
  C   C143      1.0  0.72703  0.25828  0.42804  1.0000
  C   C144      1.0  0.70666  0.25153  0.35679  1.0000
  H   H89       1.0  0.72271  0.24383  0.47982  1.0000
  H   H90       1.0  0.76844  0.28965  0.48022  1.0000
