data_image0
_chemical_formula_structural       CHC2NCHCHC2NCHNCN2CNH2C2NCNHCNH3C2NCNHCNHC2HC2HCHCNCNCNC5NHC5NHC3NHC2HC2HCHCNCNCNC5NHC5NHC3NHC2H2C2H2C2H2CNCNCNCNCNCNC4NC2NH2C4NC2NH2C4NC2NH2C2H2C2H2C2H2CNCNCNCNCNCNC4NC2NH2C4NC2NH2C4NC2NH2
_chemical_formula_sum              "C120 H48 N48"
_cell_length_a       29.1259
_cell_length_b       29.1259
_cell_length_c       14.7684
_cell_angle_alpha    90
_cell_angle_beta     90
_cell_angle_gamma    120

_space_group_name_H-M_alt    "P 1"
_space_group_IT_number       1

loop_
  _space_group_symop_operation_xyz
  'x, y, z'

loop_
  _atom_site_type_symbol
  _atom_site_label
  _atom_site_symmetry_multiplicity
  _atom_site_fract_x
  _atom_site_fract_y
  _atom_site_fract_z
  _atom_site_occupancy
  C   C1        1.0  0.03970  0.27181  0.26748  1.0000
  H   H1        1.0  0.05925  0.28159  0.20668  1.0000
  C   C2        1.0  0.04003  0.27198  0.43218  1.0000
  C   C3        1.0  0.06850  0.28621  0.34953  1.0000
  N   N1        1.0  0.06543  0.28468  0.51360  1.0000
  C   C4        1.0  0.03960  0.27176  0.59414  1.0000
  H   H2        1.0  0.06045  0.28219  0.65342  1.0000
  C   C5        1.0  0.03970  0.77181  0.26748  1.0000
  H   H3        1.0  0.05925  0.78158  0.20668  1.0000
  C   C6        1.0  0.04002  0.77197  0.43218  1.0000
  C   C7        1.0  0.06851  0.78621  0.34953  1.0000
  N   N2        1.0  0.06543  0.78468  0.51361  1.0000
  C   C8        1.0  0.03959  0.77176  0.59414  1.0000
  H   H4        1.0  0.06045  0.78219  0.65342  1.0000
  N   N3        1.0  0.15158  0.36802  0.34799  1.0000
  C   C9        1.0  0.12424  0.31408  0.34754  1.0000
  N   N4        1.0  0.15158  0.28748  0.34799  1.0000
  N   N5        1.0  0.15158  0.86802  0.34799  1.0000
  C   C10       1.0  0.12425  0.81409  0.34754  1.0000
  N   N6        1.0  0.15158  0.78748  0.34799  1.0000
  H   H5        1.0  0.23801  0.28158  0.20668  1.0000
  H   H6        1.0  0.23801  0.46035  0.20668  1.0000
  C   C11       1.0  0.20552  0.39535  0.34755  1.0000
  C   C12       1.0  0.20552  0.31408  0.34754  1.0000
  N   N7        1.0  0.23212  0.36802  0.34799  1.0000
  C   C13       1.0  0.23339  0.28621  0.34953  1.0000
  N   N8        1.0  0.23492  0.28467  0.51360  1.0000
  H   H7        1.0  0.23741  0.28219  0.65342  1.0000
  C   C14       1.0  0.23339  0.45109  0.34954  1.0000
  N   N9        1.0  0.23492  0.45417  0.51361  1.0000
  H   H8        1.0  0.23741  0.45915  0.65342  1.0000
  H   H9        1.0  0.23801  0.78158  0.20668  1.0000
  H   H10       1.0  0.23801  0.96035  0.20668  1.0000
  C   C15       1.0  0.20552  0.89535  0.34755  1.0000
  C   C16       1.0  0.20552  0.81408  0.34754  1.0000
  N   N10       1.0  0.23212  0.86802  0.34799  1.0000
  C   C17       1.0  0.23339  0.78621  0.34953  1.0000
  N   N11       1.0  0.23492  0.78467  0.51360  1.0000
  H   H11       1.0  0.23741  0.78219  0.65342  1.0000
  C   C18       1.0  0.23339  0.95110  0.34954  1.0000
  N   N12       1.0  0.23493  0.95417  0.51361  1.0000
  H   H12       1.0  0.23741  0.95915  0.65342  1.0000
  C   C19       1.0  0.24779  0.27181  0.26748  1.0000
  C   C20       1.0  0.27573  0.24387  0.26748  1.0000
  H   H13       1.0  0.28551  0.23409  0.20668  1.0000
  C   C21       1.0  0.24779  0.47990  0.26748  1.0000
  C   C22       1.0  0.27573  0.03578  0.26748  1.0000
  H   H14       1.0  0.28550  0.05533  0.20668  1.0000
  C   C23       1.0  0.48382  0.24387  0.26748  1.0000
  H   H15       1.0  0.46427  0.23409  0.20668  1.0000
  C   C24       1.0  0.31800  0.12033  0.34755  1.0000
  N   N13       1.0  0.37194  0.14766  0.34799  1.0000
  C   C25       1.0  0.39927  0.20159  0.34755  1.0000
  N   N14       1.0  0.37194  0.22820  0.34800  1.0000
  C   C26       1.0  0.31800  0.20160  0.34755  1.0000
  N   N15       1.0  0.29140  0.14766  0.34800  1.0000
  C   C27       1.0  0.29013  0.22947  0.34954  1.0000
  C   C28       1.0  0.27589  0.24371  0.43218  1.0000
  C   C29       1.0  0.24763  0.27197  0.43218  1.0000
  C   C30       1.0  0.24784  0.27176  0.59414  1.0000
  C   C31       1.0  0.27568  0.24392  0.59414  1.0000
  N   N16       1.0  0.28860  0.23101  0.51361  1.0000
  H   H16       1.0  0.28611  0.23350  0.65342  1.0000
  C   C32       1.0  0.29013  0.06459  0.34954  1.0000
  C   C33       1.0  0.27589  0.03611  0.43218  1.0000
  C   C34       1.0  0.24763  0.47958  0.43218  1.0000
  C   C35       1.0  0.24784  0.48000  0.59414  1.0000
  C   C36       1.0  0.27568  0.03568  0.59414  1.0000
  N   N17       1.0  0.28859  0.06151  0.51361  1.0000
  H   H17       1.0  0.28611  0.05653  0.65342  1.0000
  C   C37       1.0  0.45501  0.22947  0.34954  1.0000
  C   C38       1.0  0.48349  0.24371  0.43218  1.0000
  C   C39       1.0  0.48392  0.24392  0.59414  1.0000
  N   N18       1.0  0.45809  0.23100  0.51361  1.0000
  H   H18       1.0  0.46307  0.23349  0.65342  1.0000
  C   C40       1.0  0.24779  0.77181  0.26748  1.0000
  C   C41       1.0  0.27573  0.74387  0.26748  1.0000
  H   H19       1.0  0.28551  0.73409  0.20668  1.0000
  C   C42       1.0  0.24779  0.97990  0.26748  1.0000
  C   C43       1.0  0.27573  0.53578  0.26748  1.0000
  H   H20       1.0  0.28551  0.55533  0.20668  1.0000
  C   C44       1.0  0.48382  0.74387  0.26748  1.0000
  H   H21       1.0  0.46427  0.73409  0.20668  1.0000
  C   C45       1.0  0.31800  0.62033  0.34755  1.0000
  N   N19       1.0  0.37194  0.64766  0.34799  1.0000
  C   C46       1.0  0.39927  0.70160  0.34755  1.0000
  N   N20       1.0  0.37194  0.72820  0.34800  1.0000
  C   C47       1.0  0.31800  0.70160  0.34755  1.0000
  N   N21       1.0  0.29140  0.64766  0.34800  1.0000
  C   C48       1.0  0.29014  0.72947  0.34954  1.0000
  C   C49       1.0  0.27589  0.74371  0.43218  1.0000
  C   C50       1.0  0.24763  0.77197  0.43218  1.0000
  C   C51       1.0  0.24784  0.77176  0.59414  1.0000
  C   C52       1.0  0.27568  0.74393  0.59414  1.0000
  N   N22       1.0  0.28860  0.73101  0.51361  1.0000
  H   H22       1.0  0.28611  0.73350  0.65342  1.0000
  C   C53       1.0  0.29013  0.56459  0.34954  1.0000
  C   C54       1.0  0.27589  0.53611  0.43218  1.0000
  C   C55       1.0  0.24763  0.97958  0.43218  1.0000
  C   C56       1.0  0.24784  0.98000  0.59414  1.0000
  C   C57       1.0  0.27568  0.53568  0.59414  1.0000
  N   N23       1.0  0.28860  0.56151  0.51361  1.0000
  H   H23       1.0  0.28611  0.55653  0.65342  1.0000
  C   C58       1.0  0.45502  0.72947  0.34954  1.0000
  C   C59       1.0  0.48349  0.74371  0.43218  1.0000
  C   C60       1.0  0.48393  0.74392  0.59414  1.0000
  N   N24       1.0  0.45809  0.73100  0.51361  1.0000
  H   H24       1.0  0.46307  0.73349  0.65342  1.0000
  C   C61       1.0  0.74779  0.27181  0.26748  1.0000
  C   C62       1.0  0.77573  0.24387  0.26748  1.0000
  H   H25       1.0  0.78551  0.23409  0.20668  1.0000
  H   H26       1.0  0.73802  0.28158  0.20668  1.0000
  C   C63       1.0  0.74779  0.47990  0.26748  1.0000
  C   C64       1.0  0.77573  0.03578  0.26748  1.0000
  H   H27       1.0  0.78551  0.05533  0.20668  1.0000
  H   H28       1.0  0.73801  0.46035  0.20668  1.0000
  C   C65       1.0  0.53970  0.27181  0.26748  1.0000
  C   C66       1.0  0.98382  0.24387  0.26748  1.0000
  H   H29       1.0  0.96427  0.23409  0.20668  1.0000
  H   H30       1.0  0.55925  0.28159  0.20668  1.0000
  C   C67       1.0  0.70552  0.39535  0.34755  1.0000
  N   N25       1.0  0.65158  0.36802  0.34799  1.0000
  C   C68       1.0  0.62425  0.31408  0.34754  1.0000
  N   N26       1.0  0.65158  0.28748  0.34799  1.0000
  C   C69       1.0  0.70552  0.31408  0.34754  1.0000
  N   N27       1.0  0.73212  0.36802  0.34799  1.0000
  C   C70       1.0  0.81800  0.12033  0.34755  1.0000
  N   N28       1.0  0.87194  0.14766  0.34799  1.0000
  C   C71       1.0  0.89928  0.20159  0.34755  1.0000
  N   N29       1.0  0.87194  0.22820  0.34800  1.0000
  C   C72       1.0  0.81801  0.20160  0.34755  1.0000
  N   N30       1.0  0.79140  0.14766  0.34800  1.0000
  C   C73       1.0  0.79013  0.22947  0.34954  1.0000
  C   C74       1.0  0.77589  0.24371  0.43218  1.0000
  C   C75       1.0  0.74763  0.27197  0.43218  1.0000
  C   C76       1.0  0.73339  0.28621  0.34953  1.0000
  N   N31       1.0  0.73492  0.28467  0.51360  1.0000
  C   C77       1.0  0.74784  0.27176  0.59414  1.0000
  C   C78       1.0  0.77568  0.24392  0.59414  1.0000
  N   N32       1.0  0.78860  0.23101  0.51361  1.0000
  H   H31       1.0  0.73741  0.28219  0.65342  1.0000
  H   H32       1.0  0.78611  0.23350  0.65342  1.0000
  C   C79       1.0  0.79013  0.06459  0.34954  1.0000
  C   C80       1.0  0.77589  0.03611  0.43218  1.0000
  C   C81       1.0  0.74763  0.47958  0.43218  1.0000
  C   C82       1.0  0.73339  0.45109  0.34954  1.0000
  N   N33       1.0  0.73493  0.45417  0.51361  1.0000
  C   C83       1.0  0.74784  0.48000  0.59414  1.0000
  C   C84       1.0  0.77568  0.03568  0.59414  1.0000
  N   N34       1.0  0.78860  0.06151  0.51361  1.0000
  H   H33       1.0  0.73741  0.45915  0.65342  1.0000
  H   H34       1.0  0.78611  0.05653  0.65342  1.0000
  C   C85       1.0  0.95502  0.22947  0.34954  1.0000
  C   C86       1.0  0.98349  0.24371  0.43218  1.0000
  C   C87       1.0  0.54003  0.27198  0.43218  1.0000
  C   C88       1.0  0.56851  0.28621  0.34953  1.0000
  N   N35       1.0  0.56543  0.28468  0.51360  1.0000
  C   C89       1.0  0.53960  0.27176  0.59414  1.0000
  C   C90       1.0  0.98393  0.24392  0.59414  1.0000
  N   N36       1.0  0.95809  0.23100  0.51361  1.0000
  H   H35       1.0  0.56045  0.28219  0.65342  1.0000
  H   H36       1.0  0.96307  0.23349  0.65342  1.0000
  C   C91       1.0  0.74779  0.77181  0.26748  1.0000
  C   C92       1.0  0.77573  0.74387  0.26748  1.0000
  H   H37       1.0  0.78551  0.73409  0.20668  1.0000
  H   H38       1.0  0.73802  0.78158  0.20668  1.0000
  C   C93       1.0  0.74779  0.97990  0.26748  1.0000
  C   C94       1.0  0.77573  0.53578  0.26748  1.0000
  H   H39       1.0  0.78551  0.55533  0.20668  1.0000
  H   H40       1.0  0.73802  0.96035  0.20668  1.0000
  C   C95       1.0  0.53970  0.77181  0.26748  1.0000
  C   C96       1.0  0.98382  0.74387  0.26748  1.0000
  H   H41       1.0  0.96427  0.73409  0.20668  1.0000
  H   H42       1.0  0.55925  0.78158  0.20668  1.0000
  C   C97       1.0  0.70552  0.89535  0.34755  1.0000
  N   N37       1.0  0.65158  0.86802  0.34799  1.0000
  C   C98       1.0  0.62425  0.81409  0.34754  1.0000
  N   N38       1.0  0.65158  0.78748  0.34799  1.0000
  C   C99       1.0  0.70552  0.81408  0.34754  1.0000
  N   N39       1.0  0.73212  0.86802  0.34799  1.0000
  C   C100      1.0  0.81800  0.62033  0.34755  1.0000
  N   N40       1.0  0.87194  0.64766  0.34799  1.0000
  C   C101      1.0  0.89928  0.70160  0.34755  1.0000
  N   N41       1.0  0.87194  0.72820  0.34800  1.0000
  C   C102      1.0  0.81801  0.70160  0.34755  1.0000
  N   N42       1.0  0.79140  0.64766  0.34800  1.0000
  C   C103      1.0  0.79014  0.72947  0.34954  1.0000
  C   C104      1.0  0.77589  0.74371  0.43218  1.0000
  C   C105      1.0  0.74763  0.77197  0.43218  1.0000
  C   C106      1.0  0.73339  0.78621  0.34953  1.0000
  N   N43       1.0  0.73492  0.78467  0.51360  1.0000
  C   C107      1.0  0.74784  0.77176  0.59414  1.0000
  C   C108      1.0  0.77568  0.74393  0.59414  1.0000
  N   N44       1.0  0.78860  0.73101  0.51361  1.0000
  H   H43       1.0  0.73741  0.78219  0.65342  1.0000
  H   H44       1.0  0.78611  0.73350  0.65342  1.0000
  C   C109      1.0  0.79013  0.56459  0.34954  1.0000
  C   C110      1.0  0.77589  0.53611  0.43218  1.0000
  C   C111      1.0  0.74763  0.97958  0.43218  1.0000
  C   C112      1.0  0.73339  0.95110  0.34954  1.0000
  N   N45       1.0  0.73493  0.95417  0.51361  1.0000
  C   C113      1.0  0.74784  0.98000  0.59414  1.0000
  C   C114      1.0  0.77568  0.53568  0.59414  1.0000
  N   N46       1.0  0.78860  0.56151  0.51361  1.0000
  H   H45       1.0  0.73741  0.95915  0.65342  1.0000
  H   H46       1.0  0.78611  0.55653  0.65342  1.0000
  C   C115      1.0  0.95502  0.72947  0.34954  1.0000
  C   C116      1.0  0.98350  0.74371  0.43218  1.0000
  C   C117      1.0  0.54003  0.77197  0.43218  1.0000
  C   C118      1.0  0.56851  0.78621  0.34953  1.0000
  N   N47       1.0  0.56543  0.78468  0.51361  1.0000
  C   C119      1.0  0.53960  0.77176  0.59414  1.0000
  C   C120      1.0  0.98393  0.74392  0.59414  1.0000
  N   N48       1.0  0.95809  0.73100  0.51361  1.0000
  H   H47       1.0  0.56046  0.78219  0.65342  1.0000
  H   H48       1.0  0.96307  0.73349  0.65342  1.0000
