data_image0
_chemical_formula_structural       CHCHOCOC2O2H2C2O2H2COHC24H15C24H15C4OHOHC4OHOHC2OH
_chemical_formula_sum              "C66 H42 O12"
_cell_length_a       30.0641
_cell_length_b       30.0641
_cell_length_c       14.9138
_cell_angle_alpha    90
_cell_angle_beta     90
_cell_angle_gamma    120

_space_group_name_H-M_alt    "P 1"
_space_group_IT_number       1

loop_
  _space_group_symop_operation_xyz
  'x, y, z'

loop_
  _atom_site_type_symbol
  _atom_site_label
  _atom_site_symmetry_multiplicity
  _atom_site_fract_x
  _atom_site_fract_y
  _atom_site_fract_z
  _atom_site_occupancy
  C   C1        1.0  0.03148  0.51624  0.25761  1.0000
  H   H1        1.0  0.05895  0.49970  0.15737  1.0000
  C   C2        1.0  0.03148  0.51624  0.42150  1.0000
  H   H2        1.0  0.05884  0.49970  0.52188  1.0000
  O   O1        1.0  0.05700  0.52978  0.17783  1.0000
  C   C3        1.0  0.05891  0.53044  0.33956  1.0000
  O   O2        1.0  0.05699  0.52981  0.50128  1.0000
  C   C4        1.0  0.49098  0.51668  0.25763  1.0000
  C   C5        1.0  0.51770  0.48911  0.25763  1.0000
  O   O3        1.0  0.47741  0.52863  0.17785  1.0000
  O   O4        1.0  0.53125  0.47715  0.17784  1.0000
  H   H3        1.0  0.50750  0.56061  0.15728  1.0000
  H   H4        1.0  0.50115  0.44519  0.15726  1.0000
  C   C6        1.0  0.49054  0.97574  0.25761  1.0000
  C   C7        1.0  0.51813  0.03004  0.25761  1.0000
  O   O5        1.0  0.47859  0.95022  0.17784  1.0000
  O   O6        1.0  0.53009  0.05555  0.17783  1.0000
  H   H5        1.0  0.44663  0.94837  0.15724  1.0000
  H   H6        1.0  0.56210  0.05747  0.15732  1.0000
  C   C8        1.0  0.97719  0.48952  0.25759  1.0000
  O   O7        1.0  0.95168  0.47596  0.17782  1.0000
  H   H7        1.0  0.94983  0.50606  0.15720  1.0000
  C   C9        1.0  0.28155  0.64158  0.33931  1.0000
  C   C10       1.0  0.31110  0.61659  0.33862  1.0000
  C   C11       1.0  0.36564  0.64141  0.33906  1.0000
  C   C12       1.0  0.39063  0.69596  0.33930  1.0000
  C   C13       1.0  0.36581  0.72567  0.33955  1.0000
  C   C14       1.0  0.31126  0.69611  0.33997  1.0000
  C   C15       1.0  0.39386  0.61300  0.33916  1.0000
  C   C16       1.0  0.36879  0.55816  0.33956  1.0000
  C   C17       1.0  0.39556  0.53083  0.33966  1.0000
  C   C18       1.0  0.44953  0.55709  0.33955  1.0000
  C   C19       1.0  0.47589  0.61107  0.33932  1.0000
  C   C20       1.0  0.44869  0.63794  0.33911  1.0000
  C   C21       1.0  0.22492  0.61335  0.33937  1.0000
  C   C22       1.0  0.19503  0.55853  0.33992  1.0000
  C   C23       1.0  0.14095  0.53131  0.33989  1.0000
  C   C24       1.0  0.11334  0.55768  0.33954  1.0000
  C   C25       1.0  0.14104  0.61165  0.33910  1.0000
  C   C26       1.0  0.19514  0.63841  0.33890  1.0000
  C   C27       1.0  0.39421  0.78230  0.33958  1.0000
  C   C28       1.0  0.36928  0.81219  0.33928  1.0000
  C   C29       1.0  0.39614  0.86627  0.33935  1.0000
  C   C30       1.0  0.45012  0.89388  0.33956  1.0000
  C   C31       1.0  0.47638  0.86617  0.33969  1.0000
  C   C32       1.0  0.44906  0.81208  0.33971  1.0000
  H   H8        1.0  0.12183  0.49197  0.34024  1.0000
  H   H9        1.0  0.21141  0.53607  0.34054  1.0000
  H   H10       1.0  0.12198  0.63193  0.33879  1.0000
  H   H11       1.0  0.21162  0.67726  0.33824  1.0000
  H   H12       1.0  0.33044  0.79581  0.33885  1.0000
  H   H13       1.0  0.37592  0.88539  0.33917  1.0000
  H   H14       1.0  0.47142  0.79560  0.33987  1.0000
  H   H15       1.0  0.51573  0.88523  0.33978  1.0000
  H   H16       1.0  0.47114  0.67677  0.33887  1.0000
  H   H17       1.0  0.51524  0.63128  0.33925  1.0000
  H   H18       1.0  0.37527  0.49148  0.33987  1.0000
  H   H19       1.0  0.32995  0.53579  0.33991  1.0000
  H   H20       1.0  0.29184  0.57815  0.33745  1.0000
  H   H21       1.0  0.29209  0.71537  0.34112  1.0000
  H   H22       1.0  0.42906  0.71513  0.33930  1.0000
  C   C33       1.0  0.72712  0.36420  0.33942  1.0000
  C   C34       1.0  0.69756  0.38919  0.33877  1.0000
  C   C35       1.0  0.64303  0.36437  0.33906  1.0000
  C   C36       1.0  0.61804  0.30982  0.33912  1.0000
  C   C37       1.0  0.64286  0.28011  0.33954  1.0000
  C   C38       1.0  0.69741  0.30967  0.34011  1.0000
  C   C39       1.0  0.61481  0.39278  0.33914  1.0000
  C   C40       1.0  0.63987  0.44762  0.33948  1.0000
  C   C41       1.0  0.61311  0.47495  0.33960  1.0000
  C   C42       1.0  0.55914  0.44869  0.33953  1.0000
  C   C43       1.0  0.53277  0.39471  0.33936  1.0000
  C   C44       1.0  0.55998  0.36784  0.33918  1.0000
  C   C45       1.0  0.78375  0.39243  0.33946  1.0000
  C   C46       1.0  0.81364  0.44725  0.33992  1.0000
  C   C47       1.0  0.86772  0.47446  0.33985  1.0000
  C   C48       1.0  0.89533  0.44810  0.33953  1.0000
  C   C49       1.0  0.86762  0.39413  0.33914  1.0000
  C   C50       1.0  0.81353  0.36736  0.33898  1.0000
  C   C51       1.0  0.61445  0.22348  0.33956  1.0000
  C   C52       1.0  0.63940  0.19359  0.33913  1.0000
  C   C53       1.0  0.61253  0.13952  0.33922  1.0000
  C   C54       1.0  0.55856  0.11190  0.33955  1.0000
  C   C55       1.0  0.53229  0.13961  0.33979  1.0000
  C   C56       1.0  0.55961  0.19370  0.33985  1.0000
  H   H23       1.0  0.88684  0.51381  0.34015  1.0000
  H   H24       1.0  0.79726  0.46971  0.34048  1.0000
  H   H25       1.0  0.88668  0.37384  0.33883  1.0000
  H   H26       1.0  0.79705  0.32851  0.33833  1.0000
  H   H27       1.0  0.67823  0.20997  0.33855  1.0000
  H   H28       1.0  0.63275  0.12039  0.33895  1.0000
  H   H29       1.0  0.53724  0.21018  0.34021  1.0000
  H   H30       1.0  0.49295  0.12054  0.33999  1.0000
  H   H31       1.0  0.53752  0.32901  0.33909  1.0000
  H   H32       1.0  0.49343  0.37449  0.33935  1.0000
  H   H33       1.0  0.63340  0.51429  0.33978  1.0000
  H   H34       1.0  0.67872  0.46999  0.33974  1.0000
  H   H35       1.0  0.71683  0.42762  0.33779  1.0000
  H   H36       1.0  0.71658  0.29041  0.34144  1.0000
  H   H37       1.0  0.57961  0.29065  0.33874  1.0000
  C   C57       1.0  0.53190  0.47588  0.33957  1.0000
  C   C58       1.0  0.51770  0.48910  0.42152  1.0000
  C   C59       1.0  0.49096  0.51667  0.42153  1.0000
  C   C60       1.0  0.47677  0.52990  0.33958  1.0000
  O   O8        1.0  0.47739  0.52862  0.50129  1.0000
  H   H38       1.0  0.50758  0.56043  0.52214  1.0000
  O   O9        1.0  0.53127  0.47714  0.50129  1.0000
  H   H39       1.0  0.50111  0.44526  0.52201  1.0000
  C   C61       1.0  0.53137  0.05747  0.33955  1.0000
  C   C62       1.0  0.51814  0.03004  0.42150  1.0000
  C   C63       1.0  0.49055  0.97574  0.42151  1.0000
  C   C64       1.0  0.47731  0.94831  0.33956  1.0000
  O   O10       1.0  0.47861  0.95023  0.50129  1.0000
  H   H40       1.0  0.44667  0.94841  0.52193  1.0000
  O   O11       1.0  0.53011  0.05555  0.50129  1.0000
  H   H41       1.0  0.56216  0.05754  0.52170  1.0000
  C   C65       1.0  0.94976  0.47534  0.33954  1.0000
  C   C66       1.0  0.97718  0.48954  0.42150  1.0000
  O   O12       1.0  0.95167  0.47600  0.50127  1.0000
  H   H42       1.0  0.94969  0.50606  0.52171  1.0000
