data_image0
_chemical_formula_structural       C3H2CH2C3H2CH2C3H2CH2C6H3NHNHNHC6H3NHNHNHC4NCONH2CH2C4NCONH2CH2C4NCONH2CH2C3H2CH2C3H2CH2C3H2CH2C6H3NHNHNHC6H3NHNHNHC4NCONH2CH2C4NCONH2CH2C4NCONH2CH2C3H2CH2C3H2CH2C3H2CH2C6H3NHNHNHC6H3NHNHNHC4NCONH2CH2C4NCONH2CH2C4NCONH2CH2C3H2CH2C3H2CH2C3H2CH2C6H3NHNHNHC6H3NHNHNHC4NCONH2CH2C4NCONH2CH2C4NCONH2CH2
_chemical_formula_sum              "C168 H144 N48 O12"
_cell_length_a       43.8174
_cell_length_b       43.8174
_cell_length_c       15.0312
_cell_angle_alpha    90
_cell_angle_beta     90
_cell_angle_gamma    120

_space_group_name_H-M_alt    "P 1"
_space_group_IT_number       1

loop_
  _space_group_symop_operation_xyz
  'x, y, z'

loop_
  _atom_site_type_symbol
  _atom_site_label
  _atom_site_symmetry_multiplicity
  _atom_site_fract_x
  _atom_site_fract_y
  _atom_site_fract_z
  _atom_site_occupancy
  C   C1        1.0  0.23429  0.27146  0.35303  1.0000
  C   C2        1.0  0.24489  0.22597  0.29135  1.0000
  C   C3        1.0  0.22527  0.24313  0.29422  1.0000
  H   H1        1.0  0.20499  0.23548  0.24987  1.0000
  H   H2        1.0  0.23782  0.20641  0.24522  1.0000
  C   C4        1.0  0.21376  0.29022  0.34767  1.0000
  H   H3        1.0  0.23234  0.31744  0.32885  1.0000
  H   H4        1.0  0.19366  0.27941  0.29534  1.0000
  C   C5        1.0  0.22573  0.46222  0.35189  1.0000
  C   C6        1.0  0.27103  0.01828  0.28956  1.0000
  C   C7        1.0  0.25385  0.48149  0.29250  1.0000
  H   H5        1.0  0.26142  0.46883  0.24804  1.0000
  H   H6        1.0  0.29048  0.03072  0.24318  1.0000
  C   C8        1.0  0.20700  0.42292  0.34681  1.0000
  H   H7        1.0  0.17972  0.41423  0.32848  1.0000
  H   H8        1.0  0.21769  0.41360  0.29427  1.0000
  C   C9        1.0  0.03517  0.26311  0.35322  1.0000
  C   C10       1.0  0.47910  0.25247  0.29124  1.0000
  C   C11       1.0  0.01589  0.27209  0.29419  1.0000
  H   H9        1.0  0.02854  0.29235  0.24981  1.0000
  H   H10       1.0  0.46666  0.25953  0.24499  1.0000
  C   C12       1.0  0.07446  0.28362  0.34793  1.0000
  H   H11       1.0  0.08310  0.26502  0.32936  1.0000
  H   H12       1.0  0.08377  0.30367  0.29544  1.0000
  C   C13       1.0  0.18031  0.31023  0.43573  1.0000
  C   C14       1.0  0.14337  0.29560  0.43716  1.0000
  C   C15       1.0  0.12791  0.31718  0.43586  1.0000
  C   C16       1.0  0.15023  0.35413  0.43673  1.0000
  C   C17       1.0  0.18726  0.36958  0.43525  1.0000
  C   C18       1.0  0.20189  0.34727  0.43663  1.0000
  H   H13       1.0  0.13931  0.37000  0.43650  1.0000
  H   H14       1.0  0.22868  0.35818  0.43625  1.0000
  H   H15       1.0  0.12749  0.26881  0.43724  1.0000
  N   N1        1.0  0.19621  0.28881  0.43360  1.0000
  H   H16       1.0  0.17830  0.26295  0.44797  1.0000
  N   N2        1.0  0.20868  0.40690  0.43268  1.0000
  H   H17       1.0  0.23458  0.41488  0.44653  1.0000
  N   N3        1.0  0.09060  0.30128  0.43377  1.0000
  H   H18       1.0  0.08265  0.31920  0.44792  1.0000
  C   C19       1.0  0.31285  0.18402  0.24306  1.0000
  C   C20       1.0  0.35008  0.20274  0.24233  1.0000
  C   C21       1.0  0.36914  0.18470  0.24317  1.0000
  C   C22       1.0  0.35062  0.14746  0.24198  1.0000
  C   C23       1.0  0.31352  0.12840  0.24263  1.0000
  C   C24       1.0  0.29481  0.14693  0.24182  1.0000
  H   H19       1.0  0.36425  0.13414  0.24341  1.0000
  H   H20       1.0  0.26786  0.13330  0.24314  1.0000
  H   H21       1.0  0.36340  0.22968  0.24408  1.0000
  N   N4        1.0  0.29279  0.20110  0.24896  1.0000
  H   H22       1.0  0.29962  0.21856  0.19699  1.0000
  N   N5        1.0  0.29641  0.09125  0.24810  1.0000
  H   H23       1.0  0.27908  0.08073  0.19584  1.0000
  N   N6        1.0  0.40628  0.20474  0.24905  1.0000
  H   H24       1.0  0.41689  0.19799  0.19690  1.0000
  C   C25       1.0  0.26268  0.28114  0.41398  1.0000
  C   C26       1.0  0.28136  0.26201  0.41476  1.0000
  C   C27       1.0  0.27384  0.23565  0.34877  1.0000
  C   C28       1.0  0.30725  0.27139  0.48258  1.0000
  N   N7        1.0  0.31463  0.29805  0.53954  1.0000
  C   C29       1.0  0.29823  0.31704  0.53422  1.0000
  O   O1        1.0  0.32478  0.25397  0.49999  1.0000
  N   N8        1.0  0.27271  0.30861  0.47255  1.0000
  H   H25       1.0  0.30483  0.33724  0.57808  1.0000
  H   H26       1.0  0.26185  0.32321  0.47194  1.0000
  C   C30       1.0  0.29659  0.21953  0.33510  1.0000
  H   H27       1.0  0.29118  0.20100  0.38968  1.0000
  H   H28       1.0  0.32406  0.24066  0.33941  1.0000
  C   C31       1.0  0.21620  0.48097  0.41311  1.0000
  C   C32       1.0  0.23531  0.01879  0.41368  1.0000
  C   C33       1.0  0.26154  0.03759  0.34734  1.0000
  C   C34       1.0  0.22607  0.03533  0.48170  1.0000
  N   N9        1.0  0.19954  0.01608  0.53902  1.0000
  C   C35       1.0  0.18059  0.48069  0.53400  1.0000
  O   O2        1.0  0.24336  0.07031  0.49868  1.0000
  N   N10       1.0  0.18890  0.46357  0.47214  1.0000
  H   H29       1.0  0.16049  0.46711  0.57813  1.0000
  H   H30       1.0  0.17431  0.43810  0.47171  1.0000
  C   C36       1.0  0.27775  0.07647  0.33390  1.0000
  H   H31       1.0  0.29617  0.08951  0.38874  1.0000
  H   H32       1.0  0.25662  0.08283  0.33798  1.0000
  C   C37       1.0  0.01643  0.23475  0.41424  1.0000
  C   C38       1.0  0.47861  0.21605  0.41484  1.0000
  C   C39       1.0  0.45980  0.22355  0.34871  1.0000
  C   C40       1.0  0.46208  0.19017  0.48266  1.0000
  N   N11       1.0  0.48133  0.18281  0.53976  1.0000
  C   C41       1.0  0.01672  0.19926  0.53469  1.0000
  O   O3        1.0  0.42710  0.17250  0.49969  1.0000
  N   N12       1.0  0.03385  0.22477  0.47302  1.0000
  H   H33       1.0  0.03031  0.19268  0.57863  1.0000
  H   H34       1.0  0.05931  0.23566  0.47255  1.0000
  C   C42       1.0  0.42094  0.20082  0.33500  1.0000
  H   H35       1.0  0.40781  0.20616  0.38974  1.0000
  H   H36       1.0  0.41460  0.17334  0.33903  1.0000
  C   C43       1.0  0.23429  0.77146  0.35303  1.0000
  C   C44       1.0  0.24489  0.72597  0.29135  1.0000
  C   C45       1.0  0.22527  0.74313  0.29422  1.0000
  H   H37       1.0  0.20499  0.73548  0.24988  1.0000
  H   H38       1.0  0.23782  0.70641  0.24523  1.0000
  C   C46       1.0  0.21376  0.79022  0.34767  1.0000
  H   H39       1.0  0.23234  0.81744  0.32885  1.0000
  H   H40       1.0  0.19366  0.77941  0.29534  1.0000
  C   C47       1.0  0.22573  0.96222  0.35189  1.0000
  C   C48       1.0  0.27103  0.51828  0.28956  1.0000
  C   C49       1.0  0.25385  0.98149  0.29250  1.0000
  H   H41       1.0  0.26142  0.96883  0.24804  1.0000
  H   H42       1.0  0.29048  0.53072  0.24318  1.0000
  C   C50       1.0  0.20700  0.92292  0.34681  1.0000
  H   H43       1.0  0.17972  0.91423  0.32848  1.0000
  H   H44       1.0  0.21769  0.91360  0.29427  1.0000
  C   C51       1.0  0.03517  0.76311  0.35322  1.0000
  C   C52       1.0  0.47910  0.75247  0.29123  1.0000
  C   C53       1.0  0.01589  0.77209  0.29419  1.0000
  H   H45       1.0  0.02854  0.79235  0.24981  1.0000
  H   H46       1.0  0.46666  0.75953  0.24499  1.0000
  C   C54       1.0  0.07446  0.78362  0.34793  1.0000
  H   H47       1.0  0.08310  0.76502  0.32936  1.0000
  H   H48       1.0  0.08377  0.80367  0.29544  1.0000
  C   C55       1.0  0.18031  0.81023  0.43573  1.0000
  C   C56       1.0  0.14337  0.79560  0.43716  1.0000
  C   C57       1.0  0.12792  0.81718  0.43586  1.0000
  C   C58       1.0  0.15023  0.85413  0.43673  1.0000
  C   C59       1.0  0.18726  0.86958  0.43525  1.0000
  C   C60       1.0  0.20189  0.84727  0.43663  1.0000
  H   H49       1.0  0.13931  0.87000  0.43650  1.0000
  H   H50       1.0  0.22868  0.85818  0.43625  1.0000
  H   H51       1.0  0.12749  0.76881  0.43724  1.0000
  N   N13       1.0  0.19621  0.78881  0.43360  1.0000
  H   H52       1.0  0.17830  0.76296  0.44797  1.0000
  N   N14       1.0  0.20868  0.90690  0.43268  1.0000
  H   H53       1.0  0.23458  0.91488  0.44653  1.0000
  N   N15       1.0  0.09060  0.80128  0.43377  1.0000
  H   H54       1.0  0.08265  0.81920  0.44792  1.0000
  C   C61       1.0  0.31285  0.68402  0.24306  1.0000
  C   C62       1.0  0.35008  0.70274  0.24233  1.0000
  C   C63       1.0  0.36914  0.68470  0.24317  1.0000
  C   C64       1.0  0.35062  0.64746  0.24198  1.0000
  C   C65       1.0  0.31352  0.62840  0.24263  1.0000
  C   C66       1.0  0.29481  0.64693  0.24182  1.0000
  H   H55       1.0  0.36425  0.63414  0.24341  1.0000
  H   H56       1.0  0.26786  0.63330  0.24314  1.0000
  H   H57       1.0  0.36340  0.72968  0.24408  1.0000
  N   N16       1.0  0.29279  0.70110  0.24896  1.0000
  H   H58       1.0  0.29962  0.71856  0.19699  1.0000
  N   N17       1.0  0.29641  0.59125  0.24810  1.0000
  H   H59       1.0  0.27908  0.58073  0.19584  1.0000
  N   N18       1.0  0.40628  0.70474  0.24905  1.0000
  H   H60       1.0  0.41689  0.69799  0.19690  1.0000
  C   C67       1.0  0.26268  0.78114  0.41398  1.0000
  C   C68       1.0  0.28136  0.76201  0.41476  1.0000
  C   C69       1.0  0.27384  0.73565  0.34877  1.0000
  C   C70       1.0  0.30725  0.77139  0.48258  1.0000
  N   N19       1.0  0.31463  0.79805  0.53954  1.0000
  C   C71       1.0  0.29823  0.81704  0.53422  1.0000
  O   O4        1.0  0.32478  0.75397  0.49999  1.0000
  N   N20       1.0  0.27271  0.80861  0.47255  1.0000
  H   H61       1.0  0.30483  0.83724  0.57808  1.0000
  H   H62       1.0  0.26185  0.82321  0.47194  1.0000
  C   C72       1.0  0.29659  0.71953  0.33510  1.0000
  H   H63       1.0  0.29118  0.70100  0.38968  1.0000
  H   H64       1.0  0.32406  0.74066  0.33941  1.0000
  C   C73       1.0  0.21620  0.98097  0.41311  1.0000
  C   C74       1.0  0.23531  0.51879  0.41368  1.0000
  C   C75       1.0  0.26154  0.53759  0.34734  1.0000
  C   C76       1.0  0.22607  0.53533  0.48170  1.0000
  N   N21       1.0  0.19954  0.51608  0.53902  1.0000
  C   C77       1.0  0.18059  0.98069  0.53400  1.0000
  O   O5        1.0  0.24336  0.57031  0.49868  1.0000
  N   N22       1.0  0.18890  0.96357  0.47214  1.0000
  H   H65       1.0  0.16049  0.96711  0.57813  1.0000
  H   H66       1.0  0.17432  0.93810  0.47171  1.0000
  C   C78       1.0  0.27775  0.57647  0.33390  1.0000
  H   H67       1.0  0.29617  0.58950  0.38874  1.0000
  H   H68       1.0  0.25662  0.58283  0.33798  1.0000
  C   C79       1.0  0.01643  0.73475  0.41424  1.0000
  C   C80       1.0  0.47861  0.71605  0.41484  1.0000
  C   C81       1.0  0.45980  0.72355  0.34871  1.0000
  C   C82       1.0  0.46207  0.69017  0.48266  1.0000
  N   N23       1.0  0.48133  0.68281  0.53976  1.0000
  C   C83       1.0  0.01672  0.69926  0.53469  1.0000
  O   O6        1.0  0.42710  0.67250  0.49969  1.0000
  N   N24       1.0  0.03384  0.72477  0.47302  1.0000
  H   H69       1.0  0.03031  0.69267  0.57863  1.0000
  H   H70       1.0  0.05931  0.73566  0.47255  1.0000
  C   C84       1.0  0.42094  0.70082  0.33500  1.0000
  H   H71       1.0  0.40782  0.70616  0.38974  1.0000
  H   H72       1.0  0.41460  0.67334  0.33903  1.0000
  C   C85       1.0  0.73429  0.27146  0.35303  1.0000
  C   C86       1.0  0.74489  0.22597  0.29135  1.0000
  C   C87       1.0  0.72527  0.24313  0.29422  1.0000
  H   H73       1.0  0.70499  0.23548  0.24987  1.0000
  H   H74       1.0  0.73782  0.20641  0.24522  1.0000
  C   C88       1.0  0.71376  0.29022  0.34767  1.0000
  H   H75       1.0  0.73234  0.31744  0.32885  1.0000
  H   H76       1.0  0.69366  0.27941  0.29534  1.0000
  C   C89       1.0  0.72573  0.46222  0.35189  1.0000
  C   C90       1.0  0.77103  0.01828  0.28956  1.0000
  C   C91       1.0  0.75385  0.48149  0.29250  1.0000
  H   H77       1.0  0.76142  0.46883  0.24804  1.0000
  H   H78       1.0  0.79048  0.03072  0.24318  1.0000
  C   C92       1.0  0.70700  0.42292  0.34681  1.0000
  H   H79       1.0  0.67972  0.41423  0.32848  1.0000
  H   H80       1.0  0.71769  0.41360  0.29427  1.0000
  C   C93       1.0  0.53517  0.26311  0.35322  1.0000
  C   C94       1.0  0.97910  0.25247  0.29124  1.0000
  C   C95       1.0  0.51589  0.27209  0.29419  1.0000
  H   H81       1.0  0.52854  0.29235  0.24981  1.0000
  H   H82       1.0  0.96666  0.25953  0.24499  1.0000
  C   C96       1.0  0.57446  0.28362  0.34793  1.0000
  H   H83       1.0  0.58310  0.26502  0.32936  1.0000
  H   H84       1.0  0.58377  0.30367  0.29544  1.0000
  C   C97       1.0  0.68031  0.31023  0.43573  1.0000
  C   C98       1.0  0.64337  0.29560  0.43716  1.0000
  C   C99       1.0  0.62791  0.31718  0.43586  1.0000
  C   C100      1.0  0.65023  0.35413  0.43673  1.0000
  C   C101      1.0  0.68726  0.36958  0.43525  1.0000
  C   C102      1.0  0.70189  0.34727  0.43663  1.0000
  H   H85       1.0  0.63931  0.37000  0.43650  1.0000
  H   H86       1.0  0.72868  0.35818  0.43625  1.0000
  H   H87       1.0  0.62749  0.26881  0.43724  1.0000
  N   N25       1.0  0.69621  0.28881  0.43360  1.0000
  H   H88       1.0  0.67830  0.26295  0.44797  1.0000
  N   N26       1.0  0.70867  0.40690  0.43268  1.0000
  H   H89       1.0  0.73458  0.41488  0.44653  1.0000
  N   N27       1.0  0.59060  0.30128  0.43377  1.0000
  H   H90       1.0  0.58264  0.31920  0.44792  1.0000
  C   C103      1.0  0.81285  0.18402  0.24306  1.0000
  C   C104      1.0  0.85008  0.20274  0.24233  1.0000
  C   C105      1.0  0.86914  0.18470  0.24317  1.0000
  C   C106      1.0  0.85062  0.14746  0.24198  1.0000
  C   C107      1.0  0.81352  0.12840  0.24263  1.0000
  C   C108      1.0  0.79481  0.14693  0.24182  1.0000
  H   H91       1.0  0.86425  0.13414  0.24341  1.0000
  H   H92       1.0  0.76786  0.13330  0.24314  1.0000
  H   H93       1.0  0.86340  0.22968  0.24408  1.0000
  N   N28       1.0  0.79279  0.20110  0.24896  1.0000
  H   H94       1.0  0.79962  0.21856  0.19699  1.0000
  N   N29       1.0  0.79641  0.09125  0.24810  1.0000
  H   H95       1.0  0.77908  0.08073  0.19584  1.0000
  N   N30       1.0  0.90628  0.20474  0.24905  1.0000
  H   H96       1.0  0.91689  0.19799  0.19690  1.0000
  C   C109      1.0  0.76268  0.28114  0.41398  1.0000
  C   C110      1.0  0.78136  0.26201  0.41476  1.0000
  C   C111      1.0  0.77384  0.23565  0.34877  1.0000
  C   C112      1.0  0.80725  0.27139  0.48258  1.0000
  N   N31       1.0  0.81463  0.29805  0.53954  1.0000
  C   C113      1.0  0.79823  0.31704  0.53422  1.0000
  O   O7        1.0  0.82478  0.25397  0.49999  1.0000
  N   N32       1.0  0.77271  0.30861  0.47255  1.0000
  H   H97       1.0  0.80483  0.33724  0.57808  1.0000
  H   H98       1.0  0.76184  0.32321  0.47194  1.0000
  C   C114      1.0  0.79659  0.21953  0.33510  1.0000
  H   H99       1.0  0.79118  0.20100  0.38968  1.0000
  H   H100      1.0  0.82406  0.24066  0.33941  1.0000
  C   C115      1.0  0.71620  0.48097  0.41311  1.0000
  C   C116      1.0  0.73532  0.01879  0.41368  1.0000
  C   C117      1.0  0.76154  0.03759  0.34734  1.0000
  C   C118      1.0  0.72606  0.03533  0.48170  1.0000
  N   N33       1.0  0.69954  0.01608  0.53902  1.0000
  C   C119      1.0  0.68059  0.48069  0.53400  1.0000
  O   O8        1.0  0.74336  0.07031  0.49868  1.0000
  N   N34       1.0  0.68890  0.46357  0.47214  1.0000
  H   H101      1.0  0.66049  0.46711  0.57813  1.0000
  H   H102      1.0  0.67431  0.43810  0.47171  1.0000
  C   C120      1.0  0.77775  0.07647  0.33390  1.0000
  H   H103      1.0  0.79617  0.08951  0.38874  1.0000
  H   H104      1.0  0.75662  0.08283  0.33798  1.0000
  C   C121      1.0  0.51643  0.23475  0.41424  1.0000
  C   C122      1.0  0.97861  0.21605  0.41484  1.0000
  C   C123      1.0  0.95980  0.22355  0.34871  1.0000
  C   C124      1.0  0.96208  0.19017  0.48266  1.0000
  N   N35       1.0  0.98133  0.18281  0.53976  1.0000
  C   C125      1.0  0.51672  0.19926  0.53469  1.0000
  O   O9        1.0  0.92710  0.17250  0.49969  1.0000
  N   N36       1.0  0.53385  0.22477  0.47302  1.0000
  H   H105      1.0  0.53031  0.19268  0.57863  1.0000
  H   H106      1.0  0.55931  0.23566  0.47255  1.0000
  C   C126      1.0  0.92094  0.20082  0.33500  1.0000
  H   H107      1.0  0.90782  0.20616  0.38974  1.0000
  H   H108      1.0  0.91460  0.17334  0.33903  1.0000
  C   C127      1.0  0.73429  0.77146  0.35303  1.0000
  C   C128      1.0  0.74489  0.72597  0.29135  1.0000
  C   C129      1.0  0.72527  0.74313  0.29422  1.0000
  H   H109      1.0  0.70499  0.73548  0.24988  1.0000
  H   H110      1.0  0.73782  0.70641  0.24523  1.0000
  C   C130      1.0  0.71376  0.79022  0.34767  1.0000
  H   H111      1.0  0.73234  0.81744  0.32885  1.0000
  H   H112      1.0  0.69366  0.77941  0.29534  1.0000
  C   C131      1.0  0.72573  0.96222  0.35189  1.0000
  C   C132      1.0  0.77103  0.51828  0.28956  1.0000
  C   C133      1.0  0.75385  0.98149  0.29250  1.0000
  H   H113      1.0  0.76142  0.96883  0.24804  1.0000
  H   H114      1.0  0.79048  0.53072  0.24318  1.0000
  C   C134      1.0  0.70700  0.92292  0.34681  1.0000
  H   H115      1.0  0.67972  0.91423  0.32848  1.0000
  H   H116      1.0  0.71769  0.91360  0.29427  1.0000
  C   C135      1.0  0.53517  0.76311  0.35322  1.0000
  C   C136      1.0  0.97910  0.75247  0.29123  1.0000
  C   C137      1.0  0.51589  0.77209  0.29419  1.0000
  H   H117      1.0  0.52854  0.79235  0.24981  1.0000
  H   H118      1.0  0.96666  0.75953  0.24499  1.0000
  C   C138      1.0  0.57446  0.78362  0.34793  1.0000
  H   H119      1.0  0.58310  0.76502  0.32936  1.0000
  H   H120      1.0  0.58377  0.80367  0.29544  1.0000
  C   C139      1.0  0.68031  0.81023  0.43573  1.0000
  C   C140      1.0  0.64337  0.79560  0.43716  1.0000
  C   C141      1.0  0.62791  0.81718  0.43586  1.0000
  C   C142      1.0  0.65023  0.85413  0.43673  1.0000
  C   C143      1.0  0.68726  0.86958  0.43525  1.0000
  C   C144      1.0  0.70189  0.84727  0.43663  1.0000
  H   H121      1.0  0.63931  0.87000  0.43650  1.0000
  H   H122      1.0  0.72868  0.85818  0.43625  1.0000
  H   H123      1.0  0.62749  0.76881  0.43724  1.0000
  N   N37       1.0  0.69621  0.78881  0.43360  1.0000
  H   H124      1.0  0.67830  0.76296  0.44797  1.0000
  N   N38       1.0  0.70868  0.90690  0.43268  1.0000
  H   H125      1.0  0.73458  0.91488  0.44653  1.0000
  N   N39       1.0  0.59060  0.80128  0.43377  1.0000
  H   H126      1.0  0.58265  0.81920  0.44792  1.0000
  C   C145      1.0  0.81285  0.68402  0.24306  1.0000
  C   C146      1.0  0.85008  0.70274  0.24233  1.0000
  C   C147      1.0  0.86914  0.68470  0.24317  1.0000
  C   C148      1.0  0.85062  0.64746  0.24198  1.0000
  C   C149      1.0  0.81352  0.62840  0.24263  1.0000
  C   C150      1.0  0.79481  0.64693  0.24182  1.0000
  H   H127      1.0  0.86424  0.63414  0.24341  1.0000
  H   H128      1.0  0.76786  0.63330  0.24314  1.0000
  H   H129      1.0  0.86340  0.72968  0.24408  1.0000
  N   N40       1.0  0.79279  0.70110  0.24896  1.0000
  H   H130      1.0  0.79962  0.71856  0.19699  1.0000
  N   N41       1.0  0.79641  0.59125  0.24810  1.0000
  H   H131      1.0  0.77908  0.58073  0.19584  1.0000
  N   N42       1.0  0.90628  0.70474  0.24905  1.0000
  H   H132      1.0  0.91689  0.69799  0.19690  1.0000
  C   C151      1.0  0.76268  0.78114  0.41398  1.0000
  C   C152      1.0  0.78136  0.76201  0.41476  1.0000
  C   C153      1.0  0.77384  0.73565  0.34877  1.0000
  C   C154      1.0  0.80725  0.77139  0.48258  1.0000
  N   N43       1.0  0.81463  0.79805  0.53954  1.0000
  C   C155      1.0  0.79823  0.81704  0.53422  1.0000
  O   O10       1.0  0.82477  0.75397  0.49999  1.0000
  N   N44       1.0  0.77271  0.80861  0.47255  1.0000
  H   H133      1.0  0.80482  0.83724  0.57808  1.0000
  H   H134      1.0  0.76185  0.82321  0.47194  1.0000
  C   C156      1.0  0.79659  0.71953  0.33510  1.0000
  H   H135      1.0  0.79118  0.70100  0.38968  1.0000
  H   H136      1.0  0.82406  0.74066  0.33941  1.0000
  C   C157      1.0  0.71620  0.98097  0.41311  1.0000
  C   C158      1.0  0.73532  0.51879  0.41368  1.0000
  C   C159      1.0  0.76154  0.53759  0.34734  1.0000
  C   C160      1.0  0.72607  0.53533  0.48170  1.0000
  N   N45       1.0  0.69954  0.51608  0.53902  1.0000
  C   C161      1.0  0.68059  0.98069  0.53400  1.0000
  O   O11       1.0  0.74336  0.57031  0.49868  1.0000
  N   N46       1.0  0.68890  0.96357  0.47214  1.0000
  H   H137      1.0  0.66049  0.96711  0.57813  1.0000
  H   H138      1.0  0.67432  0.93810  0.47171  1.0000
  C   C162      1.0  0.77775  0.57647  0.33390  1.0000
  H   H139      1.0  0.79617  0.58950  0.38874  1.0000
  H   H140      1.0  0.75662  0.58283  0.33798  1.0000
  C   C163      1.0  0.51643  0.73475  0.41424  1.0000
  C   C164      1.0  0.97861  0.71605  0.41484  1.0000
  C   C165      1.0  0.95980  0.72355  0.34871  1.0000
  C   C166      1.0  0.96208  0.69017  0.48266  1.0000
  N   N47       1.0  0.98133  0.68281  0.53976  1.0000
  C   C167      1.0  0.51672  0.69926  0.53469  1.0000
  O   O12       1.0  0.92710  0.67250  0.49969  1.0000
  N   N48       1.0  0.53385  0.72477  0.47302  1.0000
  H   H141      1.0  0.53031  0.69267  0.57863  1.0000
  H   H142      1.0  0.55931  0.73566  0.47255  1.0000
  C   C168      1.0  0.92094  0.70082  0.33500  1.0000
  H   H143      1.0  0.90782  0.70616  0.38974  1.0000
  H   H144      1.0  0.91460  0.67334  0.33903  1.0000
