data_image0
_chemical_formula_structural       C4HNO2C3H2C2H2C2H2C2H2C2HCN2CNC7H3OC7H3NO2NO2HCN3CNCNO2C5H2C8H3NO2C8H3C2H2C2H2C2H2C2H2C2H2C2H2C2H2C2H2CNC2NC2NCNCNCNCNCNCNCNCNC2H2C2H2C2H2C2H2C2H2C8H3NOC8H3NO2C8H3NO2C8H3NO2
_chemical_formula_sum              "C126 H63 N27 O18"
_cell_length_a       46.3589
_cell_length_b       46.3588
_cell_length_c       14.7342
_cell_angle_alpha    90
_cell_angle_beta     90
_cell_angle_gamma    120

_space_group_name_H-M_alt    "P 1"
_space_group_IT_number       1

loop_
  _space_group_symop_operation_xyz
  'x, y, z'

loop_
  _atom_site_type_symbol
  _atom_site_label
  _atom_site_symmetry_multiplicity
  _atom_site_fract_x
  _atom_site_fract_y
  _atom_site_fract_z
  _atom_site_occupancy
  C   C1        1.0  0.10380  0.55378  0.34926  1.0000
  C   C2        1.0  0.08489  0.56538  0.30126  1.0000
  C   C3        1.0  0.04951  0.54693  0.30393  1.0000
  C   C4        1.0  0.03155  0.51689  0.35355  1.0000
  H   H1        1.0  0.03672  0.55551  0.26667  1.0000
  N   N1        1.0  0.10144  0.59464  0.24780  1.0000
  O   O1        1.0  0.09412  0.58874  0.16517  1.0000
  O   O2        1.0  0.09485  0.61652  0.27390  1.0000
  C   C5        1.0  0.13956  0.57152  0.35026  1.0000
  C   C6        1.0  0.05082  0.50564  0.40019  1.0000
  C   C7        1.0  0.08595  0.52345  0.39763  1.0000
  H   H2        1.0  0.03939  0.48444  0.43859  1.0000
  H   H3        1.0  0.09848  0.51435  0.43401  1.0000
  C   C8        1.0  0.31019  0.53465  0.28555  1.0000
  C   C9        1.0  0.34294  0.54017  0.28986  1.0000
  H   H4        1.0  0.29768  0.52692  0.22521  1.0000
  H   H5        1.0  0.35342  0.53719  0.23199  1.0000
  C   C10       1.0  0.23534  0.56719  0.27114  1.0000
  C   C11       1.0  0.26146  0.56003  0.27459  1.0000
  H   H6        1.0  0.23495  0.58149  0.21868  1.0000
  H   H7        1.0  0.27923  0.56980  0.22488  1.0000
  C   C12       1.0  0.24569  0.70835  0.26500  1.0000
  C   C13       1.0  0.21837  0.67573  0.27126  1.0000
  H   H8        1.0  0.25175  0.71954  0.20261  1.0000
  H   H9        1.0  0.20605  0.66401  0.21295  1.0000
  C   C14       1.0  0.35350  0.78200  0.26201  1.0000
  C   C15       1.0  0.32017  0.75604  0.26312  1.0000
  H   H10       1.0  0.31327  0.73690  0.21801  1.0000
  C   C16       1.0  0.19090  0.62293  0.35173  1.0000
  N   N2        1.0  0.15704  0.60559  0.35144  1.0000
  N   N3        1.0  0.15730  0.55512  0.34926  1.0000
  C   C17       1.0  0.19128  0.57201  0.34757  1.0000
  N   N4        1.0  0.20734  0.60572  0.34894  1.0000
  C   C18       1.0  0.34786  0.55986  0.44558  1.0000
  C   C19       1.0  0.31466  0.55363  0.44058  1.0000
  C   C20       1.0  0.29568  0.54217  0.35982  1.0000
  C   C21       1.0  0.26543  0.54336  0.34998  1.0000
  C   C22       1.0  0.24099  0.53258  0.41940  1.0000
  C   C23       1.0  0.21440  0.53923  0.41532  1.0000
  C   C24       1.0  0.21163  0.55727  0.34186  1.0000
  H   H11       1.0  0.24324  0.52107  0.47600  1.0000
  H   H12       1.0  0.19871  0.53315  0.46979  1.0000
  H   H13       1.0  0.30552  0.56051  0.49451  1.0000
  O   O3        1.0  0.35476  0.55554  0.59234  1.0000
  C   C25       1.0  0.21068  0.65804  0.35401  1.0000
  C   C26       1.0  0.23011  0.67414  0.43198  1.0000
  C   C27       1.0  0.25712  0.70724  0.42490  1.0000
  C   C28       1.0  0.26616  0.72446  0.34105  1.0000
  C   C29       1.0  0.29781  0.75431  0.33122  1.0000
  C   C30       1.0  0.30975  0.78070  0.39506  1.0000
  C   C31       1.0  0.34304  0.80722  0.39278  1.0000
  H   H14       1.0  0.29464  0.78003  0.44660  1.0000
  H   H15       1.0  0.35134  0.82449  0.44387  1.0000
  H   H16       1.0  0.27209  0.71760  0.48041  1.0000
  N   N5        1.0  0.22308  0.65621  0.51461  1.0000
  O   O4        1.0  0.24719  0.65298  0.54011  1.0000
  O   O5        1.0  0.21604  0.67027  0.57662  1.0000
  N   N6        1.0  0.42318  0.91994  0.26422  1.0000
  O   O6        1.0  0.42625  0.92752  0.18148  1.0000
  O   O7        1.0  0.40215  0.92618  0.29913  1.0000
  H   H17       1.0  0.36936  0.78095  0.21547  1.0000
  C   C32       1.0  0.39749  0.56915  0.36112  1.0000
  N   N7        1.0  0.41570  0.55347  0.36063  1.0000
  N   N8        1.0  0.41377  0.60268  0.35252  1.0000
  N   N9        1.0  0.41653  0.86268  0.34198  1.0000
  C   C33       1.0  0.40051  0.82881  0.33750  1.0000
  N   N10       1.0  0.41910  0.81385  0.34340  1.0000
  C   C34       1.0  0.36238  0.55341  0.36900  1.0000
  N   N11       1.0  0.36748  0.57401  0.52439  1.0000
  O   O8        1.0  0.37122  0.60223  0.54164  1.0000
  O   O9        1.0  0.42373  0.77501  0.53996  1.0000
  C   C35       1.0  0.36565  0.80771  0.32762  1.0000
  C   C36       1.0  0.99552  0.49862  0.35543  1.0000
  C   C37       1.0  0.97662  0.51502  0.35751  1.0000
  C   C38       1.0  0.94144  0.49720  0.35782  1.0000
  C   C39       1.0  0.92310  0.46190  0.35642  1.0000
  H   H18       1.0  0.98837  0.54045  0.36031  1.0000
  H   H19       1.0  0.92933  0.51055  0.35959  1.0000
  C   C40       1.0  0.46862  0.55370  0.35235  1.0000
  C   C41       1.0  0.50054  0.56700  0.31069  1.0000
  C   C42       1.0  0.51771  0.54875  0.31221  1.0000
  C   C43       1.0  0.50450  0.51714  0.35419  1.0000
  C   C44       1.0  0.52255  0.49916  0.35522  1.0000
  C   C45       1.0  0.55759  0.51580  0.36680  1.0000
  C   C46       1.0  0.57542  0.49847  0.36627  1.0000
  C   C47       1.0  0.55927  0.46345  0.35427  1.0000
  H   H20       1.0  0.57068  0.54098  0.37719  1.0000
  H   H21       1.0  0.60068  0.51204  0.37497  1.0000
  H   H22       1.0  0.54018  0.55870  0.27968  1.0000
  N   N12       1.0  0.51487  0.59801  0.26491  1.0000
  O   O10       1.0  0.51910  0.59513  0.18186  1.0000
  O   O11       1.0  0.54226  0.61893  0.29945  1.0000
  C   C48       1.0  0.46731  0.91755  0.35134  1.0000
  C   C49       1.0  0.45406  0.93638  0.31064  1.0000
  C   C50       1.0  0.47229  0.97178  0.31362  1.0000
  C   C51       1.0  0.50382  0.98993  0.35616  1.0000
  C   C52       1.0  0.52193  0.02594  0.35806  1.0000
  C   C53       1.0  0.50548  0.04450  0.37018  1.0000
  C   C54       1.0  0.52303  0.07966  0.37068  1.0000
  C   C55       1.0  0.55808  0.09833  0.35930  1.0000
  H   H23       1.0  0.48029  0.03252  0.38025  1.0000
  H   H24       1.0  0.50964  0.09151  0.37991  1.0000
  H   H25       1.0  0.46244  0.98448  0.28158  1.0000
  C   C56       1.0  0.48420  0.77667  0.27290  1.0000
  C   C57       1.0  0.47928  0.80426  0.27761  1.0000
  H   H26       1.0  0.48995  0.77063  0.21132  1.0000
  H   H27       1.0  0.48075  0.81677  0.21891  1.0000
  C   C58       1.0  0.44852  0.66849  0.26923  1.0000
  C   C59       1.0  0.45614  0.70191  0.27060  1.0000
  H   H28       1.0  0.43208  0.65289  0.22141  1.0000
  H   H29       1.0  0.44465  0.70921  0.22412  1.0000
  C   C60       1.0  0.71510  0.47663  0.26329  1.0000
  C   C61       1.0  0.68255  0.47155  0.26835  1.0000
  H   H30       1.0  0.72620  0.48090  0.20089  1.0000
  H   H31       1.0  0.67082  0.47139  0.20926  1.0000
  C   C62       1.0  0.78887  0.44285  0.26498  1.0000
  C   C63       1.0  0.76293  0.45026  0.26510  1.0000
  H   H32       1.0  0.78785  0.42579  0.21900  1.0000
  H   H33       1.0  0.74394  0.43797  0.21961  1.0000
  C   C64       1.0  0.54374  0.23968  0.27578  1.0000
  C   C65       1.0  0.54901  0.21234  0.28206  1.0000
  H   H34       1.0  0.53736  0.24496  0.21402  1.0000
  H   H35       1.0  0.54712  0.19920  0.22430  1.0000
  C   C66       1.0  0.57726  0.34732  0.26435  1.0000
  C   C67       1.0  0.57003  0.31403  0.26762  1.0000
  H   H36       1.0  0.59296  0.36247  0.21460  1.0000
  H   H37       1.0  0.58116  0.30648  0.22070  1.0000
  C   C68       1.0  0.78340  0.30429  0.28736  1.0000
  C   C69       1.0  0.81063  0.33703  0.29137  1.0000
  H   H38       1.0  0.77891  0.29144  0.22767  1.0000
  H   H39       1.0  0.82447  0.34719  0.23387  1.0000
  C   C70       1.0  0.67571  0.22997  0.27245  1.0000
  C   C71       1.0  0.70899  0.25603  0.27575  1.0000
  H   H40       1.0  0.66098  0.22956  0.22008  1.0000
  H   H41       1.0  0.71709  0.27372  0.22580  1.0000
  C   C72       1.0  0.44975  0.57076  0.35335  1.0000
  N   N13       1.0  0.46491  0.60473  0.34658  1.0000
  C   C73       1.0  0.44730  0.62104  0.34505  1.0000
  C   C74       1.0  0.45256  0.83125  0.35309  1.0000
  N   N14       1.0  0.46799  0.86510  0.35560  1.0000
  C   C75       1.0  0.45046  0.88166  0.35001  1.0000
  C   C76       1.0  0.83608  0.39190  0.36096  1.0000
  N   N15       1.0  0.86995  0.40963  0.36232  1.0000
  C   C77       1.0  0.88723  0.44367  0.35549  1.0000
  N   N16       1.0  0.86900  0.45942  0.34640  1.0000
  C   C78       1.0  0.83506  0.44220  0.34267  1.0000
  N   N17       1.0  0.81940  0.40865  0.35047  1.0000
  C   C79       1.0  0.62979  0.44724  0.34824  1.0000
  N   N18       1.0  0.61182  0.46308  0.35290  1.0000
  C   C80       1.0  0.57770  0.44602  0.35136  1.0000
  N   N19       1.0  0.56210  0.41197  0.34504  1.0000
  C   C81       1.0  0.57950  0.39547  0.33891  1.0000
  N   N20       1.0  0.61317  0.41369  0.34102  1.0000
  C   C82       1.0  0.57568  0.18561  0.35957  1.0000
  N   N21       1.0  0.55927  0.15172  0.36125  1.0000
  C   C83       1.0  0.57586  0.13419  0.35836  1.0000
  N   N22       1.0  0.60993  0.15218  0.35324  1.0000
  C   C84       1.0  0.62692  0.18610  0.34990  1.0000
  N   N23       1.0  0.60927  0.20211  0.35338  1.0000
  C   C85       1.0  0.94198  0.44549  0.35496  1.0000
  C   C86       1.0  0.97715  0.46332  0.35434  1.0000
  H   H42       1.0  0.93029  0.42005  0.35301  1.0000
  H   H43       1.0  0.98926  0.45000  0.35085  1.0000
  C   C87       1.0  0.47272  0.50420  0.39469  1.0000
  C   C88       1.0  0.45529  0.52190  0.39355  1.0000
  H   H44       1.0  0.46207  0.48177  0.42760  1.0000
  H   H45       1.0  0.43265  0.51131  0.42541  1.0000
  C   C89       1.0  0.52417  0.44675  0.34356  1.0000
  C   C90       1.0  0.50633  0.46411  0.34406  1.0000
  H   H46       1.0  0.51106  0.42153  0.33382  1.0000
  H   H47       1.0  0.48116  0.45075  0.33361  1.0000
  C   C91       1.0  0.51663  0.97089  0.39607  1.0000
  C   C92       1.0  0.49896  0.93578  0.39346  1.0000
  H   H48       1.0  0.53899  0.98248  0.42936  1.0000
  H   H49       1.0  0.50950  0.92356  0.42469  1.0000
  C   C93       1.0  0.57458  0.07976  0.34781  1.0000
  C   C94       1.0  0.55700  0.04458  0.34719  1.0000
  H   H50       1.0  0.59981  0.09172  0.33845  1.0000
  H   H51       1.0  0.57022  0.03265  0.33630  1.0000
  C   C95       1.0  0.46850  0.81205  0.35889  1.0000
  C   C96       1.0  0.46379  0.79221  0.43701  1.0000
  C   C97       1.0  0.46944  0.76487  0.43157  1.0000
  C   C98       1.0  0.47849  0.75586  0.34904  1.0000
  C   C99       1.0  0.47623  0.72397  0.33999  1.0000
  C   C100      1.0  0.48968  0.71152  0.40544  1.0000
  C   C101      1.0  0.48264  0.67814  0.40305  1.0000
  C   C102      1.0  0.46127  0.65594  0.33600  1.0000
  H   H52       1.0  0.50366  0.72638  0.45796  1.0000
  H   H53       1.0  0.49099  0.66954  0.45492  1.0000
  H   H54       1.0  0.46382  0.74966  0.48698  1.0000
  N   N24       1.0  0.45166  0.79900  0.51780  1.0000
  O   O12       1.0  0.47158  0.80536  0.58259  1.0000
  C   C103      1.0  0.66494  0.46296  0.35134  1.0000
  C   C104      1.0  0.68108  0.46056  0.43048  1.0000
  C   C105      1.0  0.71408  0.46625  0.42450  1.0000
  C   C106      1.0  0.73122  0.47312  0.34065  1.0000
  C   C107      1.0  0.76101  0.47103  0.33248  1.0000
  C   C108      1.0  0.78721  0.48541  0.39696  1.0000
  C   C109      1.0  0.81367  0.47853  0.39592  1.0000
  C   C110      1.0  0.81434  0.45637  0.33127  1.0000
  H   H55       1.0  0.78650  0.50003  0.44793  1.0000
  H   H56       1.0  0.83074  0.48745  0.44751  1.0000
  H   H57       1.0  0.72437  0.46223  0.48114  1.0000
  N   N25       1.0  0.66315  0.45076  0.51329  1.0000
  O   O13       1.0  0.65971  0.42366  0.54180  1.0000
  O   O14       1.0  0.67737  0.47257  0.57355  1.0000
  C   C111      1.0  0.56043  0.20549  0.36367  1.0000
  C   C112      1.0  0.56541  0.22597  0.44048  1.0000
  C   C113      1.0  0.55941  0.25305  0.43344  1.0000
  C   C114      1.0  0.54971  0.26116  0.35054  1.0000
  C   C115      1.0  0.55122  0.29268  0.33974  1.0000
  C   C116      1.0  0.53843  0.30563  0.40570  1.0000
  C   C117      1.0  0.54508  0.33886  0.40149  1.0000
  C   C118      1.0  0.56532  0.36044  0.33182  1.0000
  H   H58       1.0  0.52530  0.29130  0.45997  1.0000
  H   H59       1.0  0.53735  0.34790  0.45376  1.0000
  H   H60       1.0  0.56517  0.26870  0.48789  1.0000
  N   N26       1.0  0.57783  0.21986  0.52175  1.0000
  O   O15       1.0  0.60570  0.24413  0.54293  1.0000
  O   O16       1.0  0.55800  0.21374  0.58664  1.0000
  C   C119      1.0  0.81634  0.35688  0.36937  1.0000
  C   C120      1.0  0.79490  0.34282  0.44533  1.0000
  C   C121      1.0  0.76797  0.30961  0.44077  1.0000
  C   C122      1.0  0.76099  0.29019  0.36103  1.0000
  C   C123      1.0  0.72963  0.25999  0.35112  1.0000
  C   C124      1.0  0.71601  0.23567  0.42079  1.0000
  C   C125      1.0  0.68277  0.20911  0.41681  1.0000
  C   C126      1.0  0.66195  0.20635  0.34335  1.0000
  H   H61       1.0  0.72974  0.23803  0.47752  1.0000
  H   H62       1.0  0.67315  0.19358  0.47159  1.0000
  H   H63       1.0  0.75165  0.30075  0.49409  1.0000
  N   N27       1.0  0.79988  0.36286  0.52296  1.0000
  O   O17       1.0  0.77532  0.36673  0.53763  1.0000
  O   O18       1.0  0.80516  0.35050  0.59252  1.0000
