data_image0
_chemical_formula_structural       CH4CH4C3H2C2H2NHC3H2C2H2NHC3H2C2H2NHC29H17C3O3C29H17C3O3C7H3NH2NHC7H3NH2NHC7H3NH2NH
_chemical_formula_sum              "C102 H75 N9 O6"
_cell_length_a       52.4867
_cell_length_b       52.4867
_cell_length_c       14.9802
_cell_angle_alpha    90
_cell_angle_beta     90
_cell_angle_gamma    120

_space_group_name_H-M_alt    "P 1"
_space_group_IT_number       1

loop_
  _space_group_symop_operation_xyz
  'x, y, z'

loop_
  _atom_site_type_symbol
  _atom_site_label
  _atom_site_symmetry_multiplicity
  _atom_site_fract_x
  _atom_site_fract_y
  _atom_site_fract_z
  _atom_site_occupancy
  C   C1        1.0  0.39783  0.82810  0.32068  1.0000
  H   H1        1.0  0.38995  0.84095  0.29570  1.0000
  H   H2        1.0  0.35722  0.78927  0.30248  1.0000
  H   H3        1.0  0.45231  0.61170  0.29553  1.0000
  H   H4        1.0  0.16070  0.54933  0.29561  1.0000
  C   C2        1.0  0.60375  0.17300  0.31849  1.0000
  H   H5        1.0  0.61320  0.16007  0.31414  1.0000
  H   H6        1.0  0.64380  0.21189  0.29541  1.0000
  H   H7        1.0  0.54819  0.38844  0.31419  1.0000
  H   H8        1.0  0.84158  0.45348  0.31404  1.0000
  C   C3        1.0  0.53906  0.46010  0.31514  1.0000
  C   C4        1.0  0.51831  0.48846  0.24998  1.0000
  C   C5        1.0  0.53270  0.47216  0.24016  1.0000
  H   H9        1.0  0.51492  0.49761  0.19403  1.0000
  H   H10       1.0  0.53917  0.46970  0.17782  1.0000
  C   C6        1.0  0.45609  0.51977  0.29089  1.0000
  C   C7        1.0  0.46954  0.50236  0.28778  1.0000
  H   H11       1.0  0.43855  0.51433  0.24984  1.0000
  H   H12       1.0  0.46078  0.48433  0.24681  1.0000
  N   N1        1.0  0.55229  0.44345  0.30392  1.0000
  H   H13       1.0  0.54617  0.43046  0.25203  1.0000
  C   C8        1.0  0.54155  0.07929  0.31510  1.0000
  C   C9        1.0  0.51319  0.03017  0.24995  1.0000
  C   C10       1.0  0.52948  0.06086  0.24013  1.0000
  H   H14       1.0  0.50406  0.01764  0.19400  1.0000
  H   H15       1.0  0.53197  0.06980  0.17778  1.0000
  C   C11       1.0  0.48187  0.93665  0.29090  1.0000
  C   C12       1.0  0.49927  0.96750  0.28775  1.0000
  H   H16       1.0  0.48730  0.92454  0.24986  1.0000
  H   H17       1.0  0.51730  0.97676  0.24677  1.0000
  N   N2        1.0  0.55820  0.10918  0.30386  1.0000
  H   H18       1.0  0.57119  0.11603  0.25199  1.0000
  C   C13       1.0  0.92236  0.46262  0.31520  1.0000
  C   C14       1.0  0.97147  0.48331  0.25004  1.0000
  C   C15       1.0  0.94078  0.46893  0.24023  1.0000
  H   H19       1.0  0.98400  0.48668  0.19410  1.0000
  H   H20       1.0  0.93184  0.46247  0.17789  1.0000
  C   C16       1.0  0.06500  0.54554  0.29093  1.0000
  C   C17       1.0  0.03415  0.53210  0.28783  1.0000
  H   H21       1.0  0.07710  0.56309  0.24992  1.0000
  H   H22       1.0  0.02488  0.54086  0.24689  1.0000
  N   N3        1.0  0.89248  0.44943  0.30399  1.0000
  H   H23       1.0  0.88565  0.45554  0.25200  1.0000
  C   C18       1.0  0.42748  0.84073  0.34919  1.0000
  C   C19       1.0  0.43706  0.82123  0.37888  1.0000
  C   C20       1.0  0.41785  0.79062  0.38139  1.0000
  C   C21       1.0  0.38833  0.77841  0.35354  1.0000
  C   C22       1.0  0.37848  0.79750  0.32360  1.0000
  C   C23       1.0  0.36901  0.74838  0.35765  1.0000
  C   C24       1.0  0.37206  0.72878  0.30763  1.0000
  C   C25       1.0  0.35316  0.69846  0.31098  1.0000
  C   C26       1.0  0.32220  0.68586  0.31023  1.0000
  C   C27       1.0  0.30319  0.65502  0.31087  1.0000
  C   C28       1.0  0.31579  0.63667  0.31018  1.0000
  C   C29       1.0  0.34663  0.64850  0.31090  1.0000
  C   C30       1.0  0.36499  0.67946  0.31027  1.0000
  C   C31       1.0  0.35805  0.62960  0.30754  1.0000
  C   C32       1.0  0.38068  0.63264  0.35761  1.0000
  C   C33       1.0  0.39140  0.61332  0.35347  1.0000
  C   C34       1.0  0.42034  0.62317  0.32347  1.0000
  C   C35       1.0  0.37409  0.58380  0.38133  1.0000
  C   C36       1.0  0.38550  0.56459  0.37874  1.0000
  C   C37       1.0  0.41457  0.57417  0.34904  1.0000
  C   C38       1.0  0.43159  0.60382  0.32056  1.0000
  C   C39       1.0  0.27287  0.64361  0.30749  1.0000
  C   C40       1.0  0.25328  0.62096  0.35752  1.0000
  C   C41       1.0  0.22324  0.61025  0.35341  1.0000
  C   C42       1.0  0.21104  0.62755  0.38131  1.0000
  C   C43       1.0  0.20415  0.58131  0.32344  1.0000
  C   C44       1.0  0.17355  0.57006  0.32059  1.0000
  C   C45       1.0  0.16092  0.58707  0.34915  1.0000
  C   C46       1.0  0.18042  0.61615  0.37882  1.0000
  H   H24       1.0  0.45819  0.82912  0.40044  1.0000
  H   H25       1.0  0.42556  0.77734  0.40432  1.0000
  H   H26       1.0  0.38738  0.68833  0.30832  1.0000
  H   H27       1.0  0.31333  0.69938  0.30827  1.0000
  H   H28       1.0  0.30227  0.61427  0.30819  1.0000
  H   H29       1.0  0.22431  0.64854  0.40425  1.0000
  H   H30       1.0  0.43336  0.64443  0.30238  1.0000
  H   H31       1.0  0.37226  0.54346  0.40032  1.0000
  H   H32       1.0  0.35311  0.57609  0.40428  1.0000
  H   H33       1.0  0.17253  0.62939  0.40043  1.0000
  H   H34       1.0  0.21238  0.56828  0.30233  1.0000
  H   H35       1.0  0.39072  0.64961  0.39918  1.0000
  H   H36       1.0  0.34820  0.61233  0.26675  1.0000
  H   H37       1.0  0.35202  0.74144  0.39916  1.0000
  H   H38       1.0  0.38934  0.73619  0.26690  1.0000
  H   H39       1.0  0.26021  0.61091  0.39905  1.0000
  H   H40       1.0  0.26547  0.65348  0.26676  1.0000
  C   C47       1.0  0.12982  0.57598  0.34615  1.0000
  C   C48       1.0  0.42567  0.55417  0.34590  1.0000
  C   C49       1.0  0.44749  0.87183  0.34617  1.0000
  O   O1        1.0  0.40572  0.52501  0.34769  1.0000
  O   O2        1.0  0.47665  0.88103  0.34757  1.0000
  O   O3        1.0  0.12061  0.59594  0.34759  1.0000
  C   C50       1.0  0.57344  0.16044  0.33809  1.0000
  C   C51       1.0  0.56186  0.17956  0.34657  1.0000
  C   C52       1.0  0.57987  0.21012  0.33509  1.0000
  C   C53       1.0  0.61027  0.22266  0.31701  1.0000
  C   C54       1.0  0.62187  0.20361  0.30808  1.0000
  C   C55       1.0  0.62871  0.25285  0.30703  1.0000
  C   C56       1.0  0.62920  0.27299  0.36368  1.0000
  C   C57       1.0  0.64831  0.30304  0.35570  1.0000
  C   C58       1.0  0.67914  0.31487  0.35633  1.0000
  C   C59       1.0  0.69862  0.34560  0.35571  1.0000
  C   C60       1.0  0.68680  0.36461  0.35630  1.0000
  C   C61       1.0  0.65607  0.35335  0.35572  1.0000
  C   C62       1.0  0.63706  0.32252  0.35631  1.0000
  C   C63       1.0  0.64511  0.37246  0.36369  1.0000
  C   C64       1.0  0.62548  0.37296  0.30703  1.0000
  C   C65       1.0  0.61372  0.39139  0.31702  1.0000
  C   C66       1.0  0.58306  0.37978  0.30808  1.0000
  C   C67       1.0  0.63157  0.42179  0.33514  1.0000
  C   C68       1.0  0.61901  0.43979  0.34663  1.0000
  C   C69       1.0  0.58831  0.42820  0.33817  1.0000
  C   C70       1.0  0.57057  0.39789  0.31850  1.0000
  C   C71       1.0  0.72867  0.35655  0.36367  1.0000
  C   C72       1.0  0.74881  0.37618  0.30699  1.0000
  C   C73       1.0  0.77900  0.38795  0.31697  1.0000
  C   C74       1.0  0.79155  0.37010  0.33510  1.0000
  C   C75       1.0  0.79805  0.41861  0.30803  1.0000
  C   C76       1.0  0.82865  0.43110  0.31844  1.0000
  C   C77       1.0  0.84122  0.41336  0.33808  1.0000
  C   C78       1.0  0.82211  0.38266  0.34657  1.0000
  H   H41       1.0  0.53999  0.17136  0.35986  1.0000
  H   H42       1.0  0.57056  0.22316  0.34056  1.0000
  H   H43       1.0  0.61474  0.31416  0.35950  1.0000
  H   H44       1.0  0.68751  0.30092  0.35948  1.0000
  H   H45       1.0  0.70074  0.38692  0.35949  1.0000
  H   H46       1.0  0.77851  0.34775  0.34060  1.0000
  H   H47       1.0  0.56941  0.35785  0.29540  1.0000
  H   H48       1.0  0.63267  0.46165  0.35997  1.0000
  H   H49       1.0  0.65392  0.43110  0.34061  1.0000
  H   H50       1.0  0.83032  0.36901  0.35994  1.0000
  H   H51       1.0  0.78976  0.43225  0.29527  1.0000
  H   H52       1.0  0.61794  0.35861  0.25680  1.0000
  H   H53       1.0  0.65245  0.38647  0.41476  1.0000
  H   H54       1.0  0.64306  0.25966  0.25681  1.0000
  H   H55       1.0  0.61519  0.26632  0.41473  1.0000
  H   H56       1.0  0.74200  0.38371  0.25675  1.0000
  H   H57       1.0  0.73535  0.34922  0.41475  1.0000
  C   C79       1.0  0.87206  0.42605  0.35211  1.0000
  C   C80       1.0  0.57563  0.44636  0.35221  1.0000
  C   C81       1.0  0.55527  0.12960  0.35210  1.0000
  O   O4        1.0  0.58889  0.46865  0.41185  1.0000
  O   O5        1.0  0.53299  0.12057  0.41175  1.0000
  O   O6        1.0  0.88110  0.41280  0.41179  1.0000
  C   C82       1.0  0.52944  0.46376  0.39978  1.0000
  C   C83       1.0  0.51409  0.47938  0.41114  1.0000
  C   C84       1.0  0.50887  0.49242  0.33479  1.0000
  C   C85       1.0  0.49477  0.50962  0.33970  1.0000
  C   C86       1.0  0.50652  0.53523  0.39311  1.0000
  C   C87       1.0  0.49286  0.55244  0.39667  1.0000
  C   C88       1.0  0.46706  0.54478  0.34699  1.0000
  H   H58       1.0  0.52526  0.54166  0.42962  1.0000
  H   H59       1.0  0.50190  0.57074  0.43648  1.0000
  H   H60       1.0  0.53268  0.45376  0.45379  1.0000
  N   N4        1.0  0.50408  0.48030  0.49427  1.0000
  H   H61       1.0  0.50735  0.47060  0.54478  1.0000
  H   H62       1.0  0.49157  0.48871  0.50501  1.0000
  N   N5        1.0  0.45490  0.56277  0.35000  1.0000
  H   H63       1.0  0.46848  0.58339  0.36356  1.0000
  C   C89       1.0  0.53788  0.06602  0.39975  1.0000
  C   C90       1.0  0.52225  0.03504  0.41112  1.0000
  C   C91       1.0  0.50923  0.01678  0.33477  1.0000
  C   C92       1.0  0.49203  0.98548  0.33972  1.0000
  C   C93       1.0  0.46643  0.97162  0.39315  1.0000
  C   C94       1.0  0.44922  0.94075  0.39675  1.0000
  C   C95       1.0  0.45687  0.92261  0.34707  1.0000
  H   H64       1.0  0.46001  0.98394  0.42968  1.0000
  H   H65       1.0  0.43093  0.93150  0.43661  1.0000
  H   H66       1.0  0.54787  0.07926  0.45377  1.0000
  N   N6        1.0  0.52134  0.02412  0.49427  1.0000
  H   H67       1.0  0.53110  0.03709  0.54472  1.0000
  H   H68       1.0  0.51301  0.00321  0.50491  1.0000
  N   N7        1.0  0.43889  0.89246  0.35019  1.0000
  H   H69       1.0  0.41827  0.88542  0.36375  1.0000
  C   C96       1.0  0.93565  0.47225  0.39984  1.0000
  C   C97       1.0  0.96662  0.48758  0.41118  1.0000
  C   C98       1.0  0.98487  0.49276  0.33484  1.0000
  C   C99       1.0  0.01617  0.50686  0.33976  1.0000
  C   C100      1.0  0.03003  0.49511  0.39313  1.0000
  C   C101      1.0  0.06090  0.50877  0.39671  1.0000
  C   C102      1.0  0.07904  0.53456  0.34701  1.0000
  H   H70       1.0  0.01772  0.47637  0.42966  1.0000
  H   H71       1.0  0.07016  0.49974  0.43654  1.0000
  H   H72       1.0  0.92241  0.46906  0.45382  1.0000
  N   N8        1.0  0.97755  0.49762  0.49429  1.0000
  H   H73       1.0  0.96459  0.49430  0.54488  1.0000
  H   H74       1.0  0.99848  0.51004  0.50510  1.0000
  N   N9        1.0  0.10919  0.54675  0.35017  1.0000
  H   H75       1.0  0.11623  0.53317  0.36368  1.0000
