data_image0
_chemical_formula_structural       C13H9C13H9C13H9C13H9C4NC2NHCHC4NC2NHCHC4NC2NHCHC2H4C2H4C2H4C17H12C17H12C17H12C17H12C2H4C2H4C2H4C4NC2NHCHC4NC2NHCHC4NC2NHCH
_chemical_formula_sum              "C174 H120 N12"
_cell_length_a       57.1202
_cell_length_b       57.1034
_cell_length_c       14.9831
_cell_angle_alpha    90
_cell_angle_beta     90
_cell_angle_gamma    120.005

_space_group_name_H-M_alt    "P 1"
_space_group_IT_number       1

loop_
  _space_group_symop_operation_xyz
  'x, y, z'

loop_
  _atom_site_type_symbol
  _atom_site_label
  _atom_site_symmetry_multiplicity
  _atom_site_fract_x
  _atom_site_fract_y
  _atom_site_fract_z
  _atom_site_occupancy
  C   C1        1.0  0.90883  0.83719  0.33127  1.0000
  C   C2        1.0  0.93431  0.89471  0.33196  1.0000
  C   C3        1.0  0.90653  0.87860  0.35222  1.0000
  C   C4        1.0  0.89402  0.85021  0.35267  1.0000
  C   C5        1.0  0.94613  0.92261  0.32864  1.0000
  C   C6        1.0  0.06597  0.02396  0.32924  1.0000
  C   C7        1.0  0.10996  0.02838  0.35307  1.0000
  C   C8        1.0  0.15137  0.07208  0.33195  1.0000
  C   C9        1.0  0.13835  0.04426  0.35356  1.0000
  C   C10       1.0  0.96465  0.04251  0.32905  1.0000
  C   C11       1.0  0.92073  0.03939  0.31088  1.0000
  C   C12       1.0  0.91646  0.07972  0.33153  1.0000
  C   C13       1.0  0.90492  0.05196  0.31052  1.0000
  H   H1        1.0  0.87380  0.83908  0.36669  1.0000
  H   H2        1.0  0.89514  0.88740  0.36668  1.0000
  H   H3        1.0  0.91185  0.01935  0.29426  1.0000
  H   H4        1.0  0.10116  0.00819  0.36759  1.0000
  H   H5        1.0  0.14947  0.03515  0.36756  1.0000
  H   H6        1.0  0.88483  0.04064  0.29481  1.0000
  H   H7        1.0  0.05844  0.00850  0.28677  1.0000
  H   H8        1.0  0.93822  0.93016  0.28616  1.0000
  H   H9        1.0  0.98016  0.05049  0.28674  1.0000
  C   C14       1.0  0.52393  0.36659  0.31859  1.0000
  C   C15       1.0  0.48271  0.31094  0.31590  1.0000
  C   C16       1.0  0.50826  0.31949  0.27685  1.0000
  C   C17       1.0  0.52855  0.34685  0.27837  1.0000
  C   C18       1.0  0.46374  0.28350  0.31616  1.0000
  C   C19       1.0  0.35251  0.18169  0.33434  1.0000
  C   C20       1.0  0.30880  0.17813  0.31163  1.0000
  C   C21       1.0  0.26674  0.13495  0.33195  1.0000
  C   C22       1.0  0.28039  0.16275  0.30996  1.0000
  C   C23       1.0  0.45658  0.17070  0.34647  1.0000
  C   C24       1.0  0.50163  0.18307  0.29902  1.0000
  C   C25       1.0  0.52072  0.15392  0.33206  1.0000
  C   C26       1.0  0.52315  0.17782  0.29489  1.0000
  H   H10       1.0  0.54707  0.35209  0.25190  1.0000
  H   H11       1.0  0.51264  0.30575  0.24883  1.0000
  H   H12       1.0  0.50424  0.20076  0.27252  1.0000
  H   H13       1.0  0.31798  0.19822  0.29520  1.0000
  H   H14       1.0  0.26971  0.17212  0.29305  1.0000
  H   H15       1.0  0.54090  0.19201  0.26616  1.0000
  H   H16       1.0  0.36091  0.19400  0.28241  1.0000
  H   H17       1.0  0.46191  0.27319  0.26037  1.0000
  H   H18       1.0  0.44300  0.16419  0.29754  1.0000
  C   C27       1.0  0.62187  0.15771  0.31842  1.0000
  C   C28       1.0  0.67751  0.17220  0.31585  1.0000
  C   C29       1.0  0.66894  0.18916  0.27658  1.0000
  C   C30       1.0  0.64158  0.18207  0.27809  1.0000
  C   C31       1.0  0.70496  0.18073  0.31625  1.0000
  C   C32       1.0  0.80670  0.17110  0.33435  1.0000
  C   C33       1.0  0.81030  0.13097  0.31139  1.0000
  C   C34       1.0  0.85348  0.13211  0.33183  1.0000
  C   C35       1.0  0.82569  0.11795  0.30970  1.0000
  C   C36       1.0  0.81792  0.28624  0.34656  1.0000
  C   C37       1.0  0.80559  0.31893  0.29851  1.0000
  C   C38       1.0  0.83461  0.36715  0.33205  1.0000
  C   C39       1.0  0.81080  0.34568  0.29442  1.0000
  H   H19       1.0  0.63632  0.19532  0.25154  1.0000
  H   H20       1.0  0.68266  0.20728  0.24855  1.0000
  H   H21       1.0  0.78796  0.30384  0.27174  1.0000
  H   H22       1.0  0.79024  0.12007  0.29484  1.0000
  H   H23       1.0  0.81635  0.09792  0.29262  1.0000
  H   H24       1.0  0.79665  0.34924  0.26538  1.0000
  H   H25       1.0  0.79443  0.16723  0.28236  1.0000
  H   H26       1.0  0.71529  0.18920  0.26051  1.0000
  H   H27       1.0  0.82426  0.27912  0.29729  1.0000
  C   C40       1.0  0.83071  0.46448  0.31832  1.0000
  C   C41       1.0  0.81607  0.50554  0.31574  1.0000
  C   C42       1.0  0.79915  0.47997  0.27661  1.0000
  C   C43       1.0  0.80632  0.45976  0.27809  1.0000
  C   C44       1.0  0.80743  0.52439  0.31620  1.0000
  C   C45       1.0  0.81734  0.63600  0.33448  1.0000
  C   C46       1.0  0.85748  0.67972  0.31166  1.0000
  C   C47       1.0  0.85635  0.72179  0.33176  1.0000
  C   C48       1.0  0.87051  0.70814  0.30988  1.0000
  C   C49       1.0  0.70219  0.53198  0.34621  1.0000
  C   C50       1.0  0.66951  0.48696  0.29844  1.0000
  C   C51       1.0  0.62129  0.46779  0.33188  1.0000
  C   C52       1.0  0.64275  0.46542  0.29440  1.0000
  H   H28       1.0  0.79309  0.44122  0.25167  1.0000
  H   H29       1.0  0.78100  0.47550  0.24870  1.0000
  H   H30       1.0  0.68458  0.48439  0.27177  1.0000
  H   H31       1.0  0.86839  0.67054  0.29531  1.0000
  H   H32       1.0  0.89055  0.71882  0.29296  1.0000
  H   H33       1.0  0.63919  0.44768  0.26553  1.0000
  H   H34       1.0  0.82122  0.62759  0.28252  1.0000
  H   H35       1.0  0.79876  0.52605  0.26063  1.0000
  H   H36       1.0  0.70930  0.54552  0.29713  1.0000
  C   C53       1.0  0.18011  0.08791  0.32970  1.0000
  C   C54       1.0  0.19430  0.10165  0.25146  1.0000
  C   C55       1.0  0.22303  0.11724  0.25138  1.0000
  C   C56       1.0  0.23797  0.11932  0.32950  1.0000
  N   N1        1.0  0.23552  0.12927  0.17342  1.0000
  C   C57       1.0  0.22230  0.12751  0.09613  1.0000
  C   C58       1.0  0.19387  0.11209  0.09686  1.0000
  N   N2        1.0  0.18113  0.09980  0.17370  1.0000
  H   H37       1.0  0.18277  0.10987  0.04076  1.0000
  C   C59       1.0  0.23750  0.14117  0.01472  1.0000
  H   H38       1.0  0.25925  0.15202  0.02725  1.0000
  C   C60       1.0  0.90060  0.09260  0.32934  1.0000
  C   C61       1.0  0.88690  0.09310  0.25108  1.0000
  C   C62       1.0  0.87128  0.10621  0.25109  1.0000
  C   C63       1.0  0.86913  0.11899  0.32932  1.0000
  N   N3        1.0  0.85929  0.10673  0.17311  1.0000
  C   C64       1.0  0.86112  0.09535  0.09571  1.0000
  C   C65       1.0  0.87657  0.08236  0.09636  1.0000
  N   N4        1.0  0.88882  0.08187  0.17321  1.0000
  H   H39       1.0  0.87885  0.07356  0.04017  1.0000
  C   C66       1.0  0.84749  0.09694  0.01429  1.0000
  H   H40       1.0  0.83661  0.10780  0.02692  1.0000
  C   C67       1.0  0.89592  0.80844  0.32914  1.0000
  C   C68       1.0  0.89549  0.79422  0.25098  1.0000
  C   C69       1.0  0.88235  0.76548  0.25102  1.0000
  C   C70       1.0  0.86949  0.75056  0.32919  1.0000
  N   N5        1.0  0.88189  0.75296  0.17313  1.0000
  C   C71       1.0  0.89337  0.76617  0.09581  1.0000
  C   C72       1.0  0.90638  0.79461  0.09643  1.0000
  N   N6        1.0  0.90682  0.80737  0.17319  1.0000
  H   H41       1.0  0.91526  0.80569  0.04030  1.0000
  C   C73       1.0  0.89184  0.75093  0.01449  1.0000
  H   H42       1.0  0.88094  0.72919  0.02711  1.0000
  C   C74       1.0  0.55620  0.15149  0.24815  1.0000
  C   C75       1.0  0.58124  0.15245  0.24462  1.0000
  H   H43       1.0  0.59026  0.15479  0.18367  1.0000
  H   H44       1.0  0.54788  0.15319  0.18986  1.0000
  H   H45       1.0  0.55654  0.16371  0.02716  1.0000
  H   H46       1.0  0.53995  0.12776  0.02638  1.0000
  C   C76       1.0  0.83704  0.40508  0.24815  1.0000
  C   C77       1.0  0.83606  0.42915  0.24459  1.0000
  H   H47       1.0  0.83375  0.43585  0.18361  1.0000
  H   H48       1.0  0.83538  0.39507  0.18985  1.0000
  H   H49       1.0  0.82466  0.39317  0.02717  1.0000
  H   H50       1.0  0.86061  0.41254  0.02644  1.0000
  C   C78       1.0  0.58336  0.43225  0.24813  1.0000
  C   C79       1.0  0.55929  0.40721  0.24468  1.0000
  H   H51       1.0  0.55257  0.39817  0.18375  1.0000
  H   H52       1.0  0.59336  0.44058  0.18979  1.0000
  H   H53       1.0  0.59534  0.43200  0.02713  1.0000
  H   H54       1.0  0.57599  0.44859  0.02636  1.0000
  C   C80       1.0  0.93662  0.85337  0.31084  1.0000
  C   C81       1.0  0.94923  0.88177  0.31115  1.0000
  C   C82       1.0  0.96701  0.93950  0.38067  1.0000
  C   C83       1.0  0.97922  0.96757  0.37779  1.0000
  C   C84       1.0  0.96388  0.98083  0.37849  1.0000
  C   C85       1.0  0.97647  0.00936  0.37792  1.0000
  C   C86       1.0  0.00506  0.02470  0.37873  1.0000
  C   C87       1.0  0.02099  0.01211  0.37806  1.0000
  C   C88       1.0  0.00774  0.98351  0.37863  1.0000
  C   C89       1.0  0.04906  0.02797  0.38109  1.0000
  C   C90       1.0  0.09386  0.04005  0.33268  1.0000
  C   C91       1.0  0.10681  0.06791  0.31172  1.0000
  C   C92       1.0  0.13520  0.08370  0.31140  1.0000
  C   C93       1.0  0.96061  0.02156  0.38084  1.0000
  C   C94       1.0  0.94854  0.05429  0.33236  1.0000
  C   C95       1.0  0.96015  0.08204  0.35319  1.0000
  C   C96       1.0  0.94424  0.09452  0.35359  1.0000
  H   H55       1.0  0.94795  0.84457  0.29559  1.0000
  H   H56       1.0  0.96930  0.89290  0.29495  1.0000
  H   H57       1.0  0.01905  0.97413  0.38042  1.0000
  H   H58       1.0  0.94319  0.96950  0.38016  1.0000
  H   H59       1.0  0.01444  0.04540  0.38056  1.0000
  H   H60       1.0  0.14399  0.10382  0.29601  1.0000
  H   H61       1.0  0.09568  0.07685  0.29541  1.0000
  H   H62       1.0  0.95330  0.11472  0.36801  1.0000
  H   H63       1.0  0.98030  0.09342  0.36812  1.0000
  H   H64       1.0  0.05688  0.04362  0.42298  1.0000
  H   H65       1.0  0.97480  0.93166  0.42259  1.0000
  H   H66       1.0  0.94492  0.01371  0.42254  1.0000
  C   C97       1.0  0.49825  0.35812  0.35663  1.0000
  C   C98       1.0  0.47786  0.33068  0.35507  1.0000
  C   C99       1.0  0.45140  0.26960  0.39055  1.0000
  C   C100      1.0  0.43821  0.24163  0.39293  1.0000
  C   C101      1.0  0.45363  0.22859  0.39820  1.0000
  C   C102      1.0  0.44109  0.20011  0.40213  1.0000
  C   C103      1.0  0.41254  0.18464  0.40203  1.0000
  C   C104      1.0  0.39667  0.19729  0.39691  1.0000
  C   C105      1.0  0.40973  0.22587  0.39312  1.0000
  C   C106      1.0  0.36871  0.18165  0.39946  1.0000
  C   C107      1.0  0.32443  0.16621  0.33589  1.0000
  C   C108      1.0  0.31077  0.13834  0.35744  1.0000
  C   C109      1.0  0.28235  0.12300  0.35619  1.0000
  C   C110      1.0  0.45733  0.18846  0.40690  1.0000
  C   C111      1.0  0.47709  0.16455  0.34088  1.0000
  C   C112      1.0  0.47434  0.14049  0.37730  1.0000
  C   C113      1.0  0.49600  0.13531  0.37325  1.0000
  H   H67       1.0  0.49423  0.37190  0.38608  1.0000
  H   H68       1.0  0.45955  0.32517  0.38364  1.0000
  H   H69       1.0  0.39845  0.23528  0.39090  1.0000
  H   H70       1.0  0.47435  0.24004  0.39861  1.0000
  H   H71       1.0  0.40325  0.16397  0.40587  1.0000
  H   H72       1.0  0.27313  0.10283  0.37121  1.0000
  H   H73       1.0  0.32140  0.12885  0.37330  1.0000
  H   H74       1.0  0.49362  0.11783  0.40069  1.0000
  H   H75       1.0  0.45676  0.12681  0.40819  1.0000
  H   H76       1.0  0.36057  0.16952  0.45186  1.0000
  H   H77       1.0  0.45472  0.27920  0.44863  1.0000
  H   H78       1.0  0.47239  0.19628  0.45115  1.0000
  C   C114      1.0  0.63036  0.14053  0.35662  1.0000
  C   C115      1.0  0.65780  0.14763  0.35515  1.0000
  C   C116      1.0  0.71885  0.18219  0.39055  1.0000
  C   C117      1.0  0.74681  0.19694  0.39296  1.0000
  C   C118      1.0  0.75989  0.22541  0.39816  1.0000
  C   C119      1.0  0.78836  0.24131  0.40206  1.0000
  C   C120      1.0  0.80379  0.22819  0.40201  1.0000
  C   C121      1.0  0.79111  0.19967  0.39698  1.0000
  C   C122      1.0  0.76254  0.18418  0.39318  1.0000
  C   C123      1.0  0.80672  0.18731  0.39955  1.0000
  C   C124      1.0  0.82220  0.15851  0.33584  1.0000
  C   C125      1.0  0.85004  0.17272  0.35758  1.0000
  C   C126      1.0  0.86540  0.15965  0.35624  1.0000
  C   C127      1.0  0.80005  0.26922  0.40674  1.0000
  C   C128      1.0  0.82403  0.31289  0.34093  1.0000
  C   C129      1.0  0.84800  0.33420  0.37784  1.0000
  C   C130      1.0  0.85315  0.36105  0.37372  1.0000
  H   H79       1.0  0.61660  0.12274  0.38617  1.0000
  H   H80       1.0  0.66333  0.13484  0.38384  1.0000
  H   H81       1.0  0.75311  0.16348  0.39100  1.0000
  H   H82       1.0  0.74847  0.23472  0.39854  1.0000
  H   H83       1.0  0.82446  0.23955  0.40583  1.0000
  H   H84       1.0  0.88555  0.17061  0.37143  1.0000
  H   H85       1.0  0.85951  0.19283  0.37358  1.0000
  H   H86       1.0  0.87056  0.37613  0.40150  1.0000
  H   H87       1.0  0.86163  0.33031  0.40907  1.0000
  H   H88       1.0  0.81882  0.19127  0.45200  1.0000
  H   H89       1.0  0.70926  0.17585  0.44859  1.0000
  H   H90       1.0  0.79234  0.27652  0.45118  1.0000
  C   C131      1.0  0.84785  0.49018  0.35642  1.0000
  C   C132      1.0  0.84068  0.51049  0.35491  1.0000
  C   C133      1.0  0.80612  0.53697  0.39032  1.0000
  C   C134      1.0  0.79142  0.55024  0.39288  1.0000
  C   C135      1.0  0.76295  0.53485  0.39807  1.0000
  C   C136      1.0  0.74707  0.54745  0.40209  1.0000
  C   C137      1.0  0.76021  0.57601  0.40209  1.0000
  C   C138      1.0  0.78872  0.59183  0.39705  1.0000
  C   C139      1.0  0.80419  0.57873  0.39322  1.0000
  C   C140      1.0  0.80111  0.61981  0.39964  1.0000
  C   C141      1.0  0.82994  0.66409  0.33595  1.0000
  C   C142      1.0  0.81572  0.67775  0.35739  1.0000
  C   C143      1.0  0.82880  0.70618  0.35603  1.0000
  C   C144      1.0  0.71917  0.53124  0.40675  1.0000
  C   C145      1.0  0.67554  0.51147  0.34059  1.0000
  C   C146      1.0  0.65424  0.51416  0.37737  1.0000
  C   C147      1.0  0.62740  0.49248  0.37332  1.0000
  H   H91       1.0  0.86565  0.49427  0.38593  1.0000
  H   H92       1.0  0.85343  0.52882  0.38357  1.0000
  H   H93       1.0  0.82488  0.58998  0.39101  1.0000
  H   H94       1.0  0.75363  0.51412  0.39838  1.0000
  H   H95       1.0  0.74886  0.58533  0.40595  1.0000
  H   H96       1.0  0.81784  0.71539  0.37095  1.0000
  H   H97       1.0  0.79561  0.66711  0.37325  1.0000
  H   H98       1.0  0.61232  0.49483  0.40100  1.0000
  H   H99       1.0  0.65814  0.53172  0.40843  1.0000
  H   H100      1.0  0.79712  0.62796  0.45202  1.0000
  H   H101      1.0  0.81281  0.53404  0.44818  1.0000
  H   H102      1.0  0.71190  0.51623  0.45119  1.0000
  C   C148      1.0  0.22361  0.10518  0.40665  1.0000
  C   C149      1.0  0.19522  0.08976  0.40676  1.0000
  H   H103      1.0  0.18561  0.08017  0.46449  1.0000
  H   H104      1.0  0.23374  0.10631  0.46431  1.0000
  H   H105      1.0  0.23164  0.15564  0.65839  1.0000
  H   H106      1.0  0.23314  0.12627  0.62898  1.0000
  C   C150      1.0  0.88322  0.11871  0.40650  1.0000
  C   C151      1.0  0.89867  0.10578  0.40652  1.0000
  H   H107      1.0  0.90823  0.10572  0.46428  1.0000
  H   H108      1.0  0.88205  0.12767  0.46422  1.0000
  H   H109      1.0  0.83307  0.07661  0.65774  1.0000
  H   H110      1.0  0.86242  0.10755  0.62869  1.0000
  C   C152      1.0  0.86970  0.76496  0.40626  1.0000
  C   C153      1.0  0.88266  0.79335  0.40624  1.0000
  H   H111      1.0  0.88267  0.80298  0.46391  1.0000
  H   H112      1.0  0.86070  0.75484  0.46394  1.0000
  H   H113      1.0  0.91218  0.75680  0.65823  1.0000
  H   H114      1.0  0.88131  0.75527  0.62867  1.0000
  C   C154      1.0  0.59454  0.15191  0.32350  1.0000
  C   C155      1.0  0.58140  0.14916  0.40638  1.0000
  C   C156      1.0  0.55598  0.14814  0.40971  1.0000
  C   C157      1.0  0.54341  0.14990  0.33044  1.0000
  N   N7        1.0  0.54512  0.14712  0.49143  1.0000
  C   C158      1.0  0.55675  0.14655  0.56980  1.0000
  C   C159      1.0  0.58189  0.14759  0.56609  1.0000
  N   N8        1.0  0.59321  0.14908  0.48527  1.0000
  H   H115      1.0  0.59183  0.14761  0.62282  1.0000
  C   C160      1.0  0.54353  0.14558  0.65519  1.0000
  H   H116      1.0  0.52417  0.14464  0.64444  1.0000
  C   C161      1.0  0.83658  0.44301  0.32344  1.0000
  C   C162      1.0  0.83929  0.43260  0.40634  1.0000
  C   C163      1.0  0.84031  0.40819  0.40971  1.0000
  C   C164      1.0  0.83859  0.39387  0.33046  1.0000
  N   N9        1.0  0.84130  0.39834  0.49147  1.0000
  C   C165      1.0  0.84185  0.41054  0.56982  1.0000
  C   C166      1.0  0.84079  0.43464  0.56606  1.0000
  N   N10       1.0  0.83933  0.44448  0.48520  1.0000
  H   H117      1.0  0.84076  0.44456  0.62277  1.0000
  C   C167      1.0  0.84280  0.39829  0.65523  1.0000
  H   H118      1.0  0.84374  0.37987  0.64452  1.0000
  C   C168      1.0  0.54544  0.39392  0.32360  1.0000
  C   C169      1.0  0.55587  0.40708  0.40644  1.0000
  C   C170      1.0  0.58028  0.43250  0.40970  1.0000
  C   C171      1.0  0.59458  0.44505  0.33038  1.0000
  N   N11       1.0  0.59015  0.44339  0.49140  1.0000
  C   C172      1.0  0.57795  0.43176  0.56980  1.0000
  C   C173      1.0  0.55385  0.40662  0.56616  1.0000
  N   N12       1.0  0.54400  0.39528  0.48536  1.0000
  H   H119      1.0  0.54394  0.39669  0.62291  1.0000
  C   C174      1.0  0.59022  0.44500  0.65515  1.0000
  H   H120      1.0  0.60864  0.46437  0.64435  1.0000
