data_image0
_chemical_formula_structural       CHCH2C3HCH3NC3HCH3NC3HCH3NC6H3C3H3C6H3C3H2C6H2C3H2C2HNCNCH3NC3HCH3NCNC3HCH3NH3C3H2NC3HCH3NC3HCH3NH2C6H3C2H2C6H3C2H2C2HCH3C3HC2HCH3C3HCHNC3H3NC3HCH3NC3HCH3NC6H3C3H3CHCHC2H3C3HCH3NC3HCH3N
_chemical_formula_sum              "C126 H108 N18"
_cell_length_a       47.6675
_cell_length_b       47.6676
_cell_length_c       14.6079
_cell_angle_alpha    90
_cell_angle_beta     90
_cell_angle_gamma    120

_space_group_name_H-M_alt    "P 1"
_space_group_IT_number       1

loop_
  _space_group_symop_operation_xyz
  'x, y, z'

loop_
  _atom_site_type_symbol
  _atom_site_label
  _atom_site_symmetry_multiplicity
  _atom_site_fract_x
  _atom_site_fract_y
  _atom_site_fract_z
  _atom_site_occupancy
  C   C1        1.0  0.03627  0.53761  0.30130  1.0000
  H   H1        1.0  0.04793  0.55482  0.25173  1.0000
  C   C2        1.0  0.49592  0.50535  0.30133  1.0000
  H   H2        1.0  0.47869  0.49980  0.25180  1.0000
  H   H3        1.0  0.48471  0.44692  0.22558  1.0000
  C   C3        1.0  0.31653  0.54743  0.35798  1.0000
  C   C4        1.0  0.31657  0.57402  0.31660  1.0000
  C   C5        1.0  0.28794  0.57578  0.30679  1.0000
  H   H4        1.0  0.33778  0.59181  0.28851  1.0000
  C   C6        1.0  0.29015  0.60073  0.24088  1.0000
  H   H5        1.0  0.30454  0.60210  0.18104  1.0000
  H   H6        1.0  0.30172  0.62447  0.27377  1.0000
  H   H7        1.0  0.26652  0.59512  0.21449  1.0000
  N   N1        1.0  0.34543  0.54846  0.36434  1.0000
  C   C7        1.0  0.48614  0.77582  0.35803  1.0000
  C   C8        1.0  0.45952  0.74925  0.31675  1.0000
  C   C9        1.0  0.45779  0.71889  0.30681  1.0000
  H   H8        1.0  0.44176  0.75270  0.28854  1.0000
  C   C10       1.0  0.43284  0.69616  0.24084  1.0000
  H   H9        1.0  0.43150  0.70919  0.18101  1.0000
  H   H10       1.0  0.40909  0.68398  0.27368  1.0000
  H   H11       1.0  0.43846  0.67814  0.21446  1.0000
  N   N2        1.0  0.48512  0.80370  0.36436  1.0000
  C   C11       1.0  0.25775  0.71702  0.35816  1.0000
  C   C12       1.0  0.28432  0.71695  0.31699  1.0000
  C   C13       1.0  0.31471  0.74558  0.30722  1.0000
  H   H12       1.0  0.28087  0.69575  0.28880  1.0000
  C   C14       1.0  0.33740  0.74338  0.24108  1.0000
  H   H13       1.0  0.32434  0.72901  0.18126  1.0000
  H   H14       1.0  0.34960  0.73181  0.27380  1.0000
  H   H15       1.0  0.35541  0.76702  0.21469  1.0000
  N   N3        1.0  0.22986  0.68813  0.36446  1.0000
  C   C15       1.0  0.14522  0.57336  0.37974  1.0000
  C   C16       1.0  0.16998  0.56484  0.37323  1.0000
  C   C17       1.0  0.20337  0.58855  0.36730  1.0000
  C   C18       1.0  0.21122  0.62142  0.36610  1.0000
  C   C19       1.0  0.18810  0.63155  0.37464  1.0000
  C   C20       1.0  0.15512  0.60693  0.38204  1.0000
  H   H16       1.0  0.23513  0.63895  0.36174  1.0000
  H   H17       1.0  0.13795  0.61368  0.38945  1.0000
  H   H18       1.0  0.16370  0.54092  0.37361  1.0000
  C   C21       1.0  0.23000  0.58296  0.36217  1.0000
  C   C22       1.0  0.19852  0.66515  0.37954  1.0000
  C   C23       1.0  0.11230  0.54921  0.38930  1.0000
  H   H19       1.0  0.10749  0.52809  0.41610  1.0000
  H   H20       1.0  0.18237  0.67258  0.39531  1.0000
  H   H21       1.0  0.25225  0.60340  0.36497  1.0000
  C   C24       1.0  0.46020  0.57857  0.37974  1.0000
  C   C25       1.0  0.46871  0.61186  0.37319  1.0000
  C   C26       1.0  0.44501  0.62153  0.36725  1.0000
  C   C27       1.0  0.41214  0.59651  0.36605  1.0000
  C   C28       1.0  0.40200  0.56327  0.37463  1.0000
  C   C29       1.0  0.42662  0.55491  0.38207  1.0000
  H   H22       1.0  0.39462  0.60290  0.36167  1.0000
  H   H23       1.0  0.41986  0.53099  0.38951  1.0000
  H   H24       1.0  0.49264  0.62948  0.37358  1.0000
  C   C30       1.0  0.45060  0.65376  0.36210  1.0000
  C   C31       1.0  0.36840  0.54010  0.37956  1.0000
  C   C32       1.0  0.48434  0.56980  0.38932  1.0000
  H   H25       1.0  0.36096  0.51652  0.39538  1.0000
  H   H26       1.0  0.43016  0.65557  0.36491  1.0000
  C   C33       1.0  0.45499  0.88834  0.37975  1.0000
  C   C34       1.0  0.42171  0.86357  0.37326  1.0000
  C   C35       1.0  0.41204  0.83019  0.36737  1.0000
  C   C36       1.0  0.43706  0.82234  0.36613  1.0000
  C   C37       1.0  0.47030  0.84545  0.37462  1.0000
  C   C38       1.0  0.47866  0.87843  0.38203  1.0000
  H   H27       1.0  0.43067  0.79843  0.36179  1.0000
  H   H28       1.0  0.40408  0.86986  0.37370  1.0000
  C   C39       1.0  0.37981  0.80355  0.36235  1.0000
  C   C40       1.0  0.49348  0.83503  0.37950  1.0000
  C   C41       1.0  0.46376  0.92125  0.38932  1.0000
  H   H29       1.0  0.44744  0.92606  0.41608  1.0000
  H   H30       1.0  0.37800  0.78130  0.36515  1.0000
  C   C42       1.0  0.05534  0.53297  0.36686  1.0000
  C   C43       1.0  0.03852  0.50886  0.43375  1.0000
  H   H31       1.0  0.05173  0.50539  0.48302  1.0000
  N   N4        1.0  0.08797  0.55235  0.36385  1.0000
  C   C44       1.0  0.50057  0.52907  0.36687  1.0000
  N   N5        1.0  0.48120  0.54233  0.36387  1.0000
  C   C45       1.0  0.49718  0.99503  0.43376  1.0000
  H   H32       1.0  0.48050  0.98182  0.48301  1.0000
  H   H33       1.0  0.48525  0.02817  0.55482  1.0000
  H   H34       1.0  0.49382  0.05962  0.47646  1.0000
  N   N6        1.0  0.49123  0.94559  0.36387  1.0000
  C   C46       1.0  0.25846  0.55179  0.34924  1.0000
  C   C47       1.0  0.25788  0.52369  0.38609  1.0000
  C   C48       1.0  0.28675  0.52178  0.38908  1.0000
  H   H35       1.0  0.28655  0.50222  0.41872  1.0000
  C   C49       1.0  0.22847  0.49625  0.42797  1.0000
  H   H36       1.0  0.20701  0.49874  0.42248  1.0000
  H   H37       1.0  0.23282  0.49437  0.50051  1.0000
  H   H38       1.0  0.22301  0.47367  0.39406  1.0000
  N   N7        1.0  0.23165  0.55526  0.36183  1.0000
  C   C50       1.0  0.48177  0.71338  0.34922  1.0000
  N   N8        1.0  0.47830  0.68311  0.36178  1.0000
  C   C51       1.0  0.32019  0.77508  0.34948  1.0000
  C   C52       1.0  0.29265  0.77568  0.38613  1.0000
  C   C53       1.0  0.26188  0.74681  0.38915  1.0000
  H   H39       1.0  0.24249  0.74702  0.41857  1.0000
  C   C54       1.0  0.29461  0.80512  0.42778  1.0000
  H   H40       1.0  0.31856  0.82657  0.42230  1.0000
  H   H41       1.0  0.28834  0.80080  0.50031  1.0000
  H   H42       1.0  0.27750  0.81055  0.39369  1.0000
  N   N9        1.0  0.35046  0.80190  0.36196  1.0000
  H   H43       1.0  0.49815  0.27981  0.49067  1.0000
  H   H44       1.0  0.48003  0.26989  0.38055  1.0000
  H   H45       1.0  0.50258  0.89560  0.38942  1.0000
  C   C55       1.0  0.53891  0.49722  0.36810  1.0000
  C   C56       1.0  0.51499  0.49001  0.29917  1.0000
  C   C57       1.0  0.50926  0.46761  0.22137  1.0000
  H   H46       1.0  0.52607  0.45844  0.21953  1.0000
  H   H47       1.0  0.51185  0.48018  0.15670  1.0000
  N   N10       1.0  0.55906  0.48477  0.36779  1.0000
  C   C58       1.0  0.53632  0.04840  0.36811  1.0000
  C   C59       1.0  0.54352  0.03169  0.29916  1.0000
  C   C60       1.0  0.52819  0.99729  0.30131  1.0000
  H   H48       1.0  0.53374  0.98562  0.25176  1.0000
  C   C61       1.0  0.56591  0.04836  0.22134  1.0000
  H   H49       1.0  0.57508  0.07435  0.21950  1.0000
  H   H50       1.0  0.55334  0.03839  0.15668  1.0000
  H   H51       1.0  0.58660  0.04451  0.22552  1.0000
  N   N11       1.0  0.54878  0.08101  0.36780  1.0000
  C   C62       1.0  0.55439  0.25036  0.35986  1.0000
  C   C63       1.0  0.58188  0.27724  0.32300  1.0000
  C   C64       1.0  0.58391  0.30773  0.31280  1.0000
  H   H52       1.0  0.60020  0.27399  0.29833  1.0000
  C   C65       1.0  0.61032  0.33101  0.25124  1.0000
  H   H53       1.0  0.61330  0.31849  0.19266  1.0000
  H   H54       1.0  0.63320  0.34314  0.28865  1.0000
  H   H55       1.0  0.60516  0.34905  0.22251  1.0000
  N   N12       1.0  0.55493  0.22223  0.36631  1.0000
  H   H56       1.0  0.50546  0.58611  0.41610  1.0000
  H   H57       1.0  0.51706  0.85118  0.39528  1.0000
  C   C66       1.0  0.57888  0.44722  0.37483  1.0000
  C   C67       1.0  0.57079  0.41401  0.37005  1.0000
  C   C68       1.0  0.59476  0.40460  0.36903  1.0000
  C   C69       1.0  0.62754  0.42982  0.37014  1.0000
  C   C70       1.0  0.63727  0.46303  0.37527  1.0000
  C   C71       1.0  0.61238  0.47110  0.37877  1.0000
  H   H58       1.0  0.64526  0.42366  0.36903  1.0000
  H   H59       1.0  0.61894  0.49505  0.38328  1.0000
  H   H60       1.0  0.54695  0.39619  0.36831  1.0000
  C   C72       1.0  0.58953  0.37248  0.36582  1.0000
  C   C73       1.0  0.55431  0.45568  0.37748  1.0000
  H   H61       1.0  0.53159  0.43804  0.38731  1.0000
  H   H62       1.0  0.60999  0.37087  0.37270  1.0000
  C   C74       1.0  0.58633  0.13837  0.37485  1.0000
  C   C75       1.0  0.61954  0.16349  0.37011  1.0000
  C   C76       1.0  0.62895  0.19687  0.36912  1.0000
  C   C77       1.0  0.60374  0.20443  0.37017  1.0000
  C   C78       1.0  0.57052  0.18096  0.37522  1.0000
  C   C79       1.0  0.56245  0.14799  0.37874  1.0000
  H   H63       1.0  0.60990  0.22832  0.36907  1.0000
  H   H64       1.0  0.53850  0.13060  0.38322  1.0000
  H   H65       1.0  0.63736  0.15747  0.36841  1.0000
  C   C80       1.0  0.54698  0.19091  0.37938  1.0000
  C   C81       1.0  0.57787  0.10534  0.37750  1.0000
  H   H66       1.0  0.59551  0.10026  0.38733  1.0000
  H   H67       1.0  0.52324  0.17428  0.39171  1.0000
  C   C82       1.0  0.52470  0.53638  0.43371  1.0000
  C   C83       1.0  0.54380  0.52106  0.43510  1.0000
  H   H68       1.0  0.52819  0.55307  0.48294  1.0000
  C   C84       1.0  0.56880  0.53006  0.50767  1.0000
  H   H69       1.0  0.56979  0.54833  0.55470  1.0000
  H   H70       1.0  0.59266  0.53974  0.47633  1.0000
  H   H71       1.0  0.56355  0.50865  0.54779  1.0000
  C   C85       1.0  0.50448  0.97822  0.36686  1.0000
  C   C86       1.0  0.51250  0.02945  0.43516  1.0000
  C   C87       1.0  0.50352  0.04545  0.50776  1.0000
  H   H72       1.0  0.52493  0.06161  0.54785  1.0000
  C   C88       1.0  0.50987  0.74091  0.38609  1.0000
  C   C89       1.0  0.51179  0.77168  0.38906  1.0000
  H   H73       1.0  0.53136  0.79105  0.41864  1.0000
  C   C90       1.0  0.53732  0.73893  0.42786  1.0000
  H   H74       1.0  0.53483  0.71498  0.42237  1.0000
  H   H75       1.0  0.53924  0.74517  0.50039  1.0000
  H   H76       1.0  0.55989  0.75605  0.39388  1.0000
  C   C91       1.0  0.55900  0.31290  0.35019  1.0000
  C   C92       1.0  0.53013  0.28509  0.38240  1.0000
  C   C93       1.0  0.52815  0.25429  0.38598  1.0000
  H   H77       1.0  0.50791  0.23467  0.41205  1.0000
  C   C94       1.0  0.50176  0.28670  0.41850  1.0000
  H   H78       1.0  0.50436  0.31069  0.41283  1.0000
  N   N13       1.0  0.56203  0.34303  0.36174  1.0000
  C   C95       1.0  0.98515  0.49462  0.36810  1.0000
  C   C96       1.0  0.00186  0.51853  0.29913  1.0000
  C   C97       1.0  0.98519  0.52424  0.22131  1.0000
  H   H79       1.0  0.95920  0.50742  0.21948  1.0000
  H   H80       1.0  0.99517  0.52165  0.15665  1.0000
  H   H81       1.0  0.98904  0.54878  0.22549  1.0000
  N   N14       1.0  0.95255  0.47447  0.36778  1.0000
  C   C98       1.0  0.72281  0.47916  0.35996  1.0000
  C   C99       1.0  0.72218  0.45166  0.32312  1.0000
  C   C100      1.0  0.75066  0.44965  0.31287  1.0000
  H   H82       1.0  0.70062  0.43337  0.29833  1.0000
  C   C101      1.0  0.74754  0.42327  0.25117  1.0000
  H   H83       1.0  0.73203  0.42032  0.19259  1.0000
  H   H84       1.0  0.73680  0.40038  0.28847  1.0000
  H   H85       1.0  0.77075  0.42846  0.22241  1.0000
  N   N15       1.0  0.69414  0.47863  0.36640  1.0000
  C   C102      1.0  0.78319  0.31074  0.36000  1.0000
  C   C103      1.0  0.75630  0.31136  0.32323  1.0000
  C   C104      1.0  0.72582  0.28287  0.31291  1.0000
  H   H86       1.0  0.75957  0.33292  0.29839  1.0000
  C   C105      1.0  0.70255  0.28600  0.25128  1.0000
  H   H87       1.0  0.71509  0.30148  0.19266  1.0000
  H   H88       1.0  0.69043  0.29677  0.28861  1.0000
  H   H89       1.0  0.68450  0.26279  0.22261  1.0000
  N   N16       1.0  0.81132  0.33940  0.36640  1.0000
  C   C106      1.0  0.89518  0.45466  0.37481  1.0000
  C   C107      1.0  0.87006  0.46276  0.37002  1.0000
  C   C108      1.0  0.83669  0.43879  0.36895  1.0000
  C   C109      1.0  0.82912  0.40601  0.37007  1.0000
  C   C110      1.0  0.85260  0.39627  0.37521  1.0000
  C   C111      1.0  0.88556  0.42116  0.37875  1.0000
  H   H90       1.0  0.80524  0.38829  0.36891  1.0000
  H   H91       1.0  0.90295  0.41460  0.38327  1.0000
  H   H92       1.0  0.87609  0.48659  0.36827  1.0000
  C   C112      1.0  0.80980  0.44402  0.36568  1.0000
  C   C113      1.0  0.84264  0.36277  0.37942  1.0000
  C   C114      1.0  0.92821  0.47923  0.37749  1.0000
  H   H93       1.0  0.93329  0.50195  0.38734  1.0000
  H   H94       1.0  0.85928  0.35567  0.39177  1.0000
  H   H95       1.0  0.78772  0.42356  0.37258  1.0000
  C   C115      1.0  0.67077  0.48658  0.37947  1.0000
  H   H96       1.0  0.67787  0.51031  0.39182  1.0000
  C   C116      1.0  0.66107  0.22376  0.36596  1.0000
  H   H97       1.0  0.66269  0.24584  0.37278  1.0000
  C   C117      1.0  0.00411  0.48976  0.43516  1.0000
  C   C118      1.0  0.98811  0.46478  0.50777  1.0000
  H   H98       1.0  0.00538  0.46380  0.55484  1.0000
  H   H99       1.0  0.97393  0.44091  0.47648  1.0000
  H   H100      1.0  0.97194  0.47004  0.54785  1.0000
  C   C119      1.0  0.78074  0.47456  0.35023  1.0000
  C   C120      1.0  0.78180  0.50341  0.38251  1.0000
  C   C121      1.0  0.75298  0.50539  0.38615  1.0000
  H   H101      1.0  0.75360  0.52564  0.41217  1.0000
  C   C122      1.0  0.81179  0.53178  0.41860  1.0000
  H   H102      1.0  0.83317  0.52918  0.41289  1.0000
  H   H103      1.0  0.80850  0.53538  0.49078  1.0000
  H   H104      1.0  0.81670  0.55351  0.38068  1.0000
  N   N17       1.0  0.80785  0.47153  0.36172  1.0000
  C   C123      1.0  0.72065  0.25280  0.35030  1.0000
  C   C124      1.0  0.74846  0.25175  0.38255  1.0000
  C   C125      1.0  0.77926  0.28057  0.38609  1.0000
  H   H105      1.0  0.79889  0.27994  0.41212  1.0000
  C   C126      1.0  0.74686  0.22175  0.41856  1.0000
  H   H106      1.0  0.72286  0.20037  0.41289  1.0000
  H   H107      1.0  0.75375  0.22503  0.49072  1.0000
  H   H108      1.0  0.76366  0.21685  0.38055  1.0000
  N   N18       1.0  0.69052  0.22570  0.36186  1.0000
