data_image0
_chemical_formula_structural       C4HC4HO2H2N2C4HC4HO2H2N2C4HC4HO2H2N2C2NC2HNHCHC2NC2HNHCHC2NC2HNHCHC2NC2HNHCHC2NC2HNHCHC2NC2HNHCHC2HC2HN2C2HC2HN2C2HC2HN2C2HC6H3CHC2HC6H3CHC2HC6H3CHC2HC6H3CHC2HC6H3CHC2HC6H3CH
_chemical_formula_sum              "C120 H66 O6 N24"
_cell_length_a       38.5185
_cell_length_b       38.5185
_cell_length_c       14.9928
_cell_angle_alpha    90
_cell_angle_beta     90
_cell_angle_gamma    120

_space_group_name_H-M_alt    "P 1"
_space_group_IT_number       1

loop_
  _space_group_symop_operation_xyz
  'x, y, z'

loop_
  _atom_site_type_symbol
  _atom_site_label
  _atom_site_symmetry_multiplicity
  _atom_site_fract_x
  _atom_site_fract_y
  _atom_site_fract_z
  _atom_site_occupancy
  C   C1        1.0  0.97915  0.48535  0.33143  1.0000
  C   C2        1.0  0.89531  0.42925  0.33001  1.0000
  C   C3        1.0  0.92266  0.41687  0.30520  1.0000
  C   C4        1.0  0.96429  0.44500  0.30296  1.0000
  H   H1        1.0  0.86511  0.40938  0.32632  1.0000
  C   C5        1.0  0.02131  0.51482  0.33134  1.0000
  C   C6        1.0  0.03616  0.55519  0.30296  1.0000
  C   C7        1.0  0.07779  0.58330  0.30509  1.0000
  C   C8        1.0  0.10515  0.57089  0.32952  1.0000
  H   H2        1.0  0.13535  0.59078  0.32593  1.0000
  O   O1        1.0  0.98922  0.43361  0.26473  1.0000
  O   O2        1.0  0.01120  0.56662  0.26505  1.0000
  H   H3        1.0  0.99072  0.41436  0.30543  1.0000
  H   H4        1.0  0.00979  0.58589  0.30587  1.0000
  N   N1        1.0  0.09234  0.62123  0.28117  1.0000
  N   N2        1.0  0.90807  0.37897  0.28101  1.0000
  C   C9        1.0  0.51524  0.49392  0.33143  1.0000
  C   C10       1.0  0.57134  0.46618  0.33001  1.0000
  C   C11       1.0  0.58372  0.50591  0.30520  1.0000
  C   C12       1.0  0.55559  0.51940  0.30296  1.0000
  H   H5        1.0  0.59122  0.45585  0.32632  1.0000
  C   C13       1.0  0.48577  0.50660  0.33134  1.0000
  C   C14       1.0  0.44541  0.48109  0.30296  1.0000
  C   C15       1.0  0.41729  0.49460  0.30509  1.0000
  C   C16       1.0  0.42971  0.53438  0.32952  1.0000
  H   H6        1.0  0.40982  0.54469  0.32593  1.0000
  O   O3        1.0  0.56699  0.55573  0.26473  1.0000
  O   O4        1.0  0.43397  0.44469  0.26505  1.0000
  H   H7        1.0  0.58624  0.57648  0.30543  1.0000
  H   H8        1.0  0.41471  0.42402  0.30587  1.0000
  N   N3        1.0  0.37937  0.47123  0.28117  1.0000
  N   N4        1.0  0.62162  0.52921  0.28101  1.0000
  C   C17       1.0  0.50668  0.02144  0.33143  1.0000
  C   C18       1.0  0.53442  0.10529  0.33001  1.0000
  C   C19       1.0  0.49469  0.07794  0.30520  1.0000
  C   C20       1.0  0.48119  0.03631  0.30296  1.0000
  H   H9        1.0  0.54475  0.13549  0.32632  1.0000
  C   C21       1.0  0.49399  0.97929  0.33134  1.0000
  C   C22       1.0  0.51950  0.96444  0.30296  1.0000
  C   C23       1.0  0.50599  0.92281  0.30509  1.0000
  C   C24       1.0  0.46621  0.89544  0.32952  1.0000
  H   H10       1.0  0.45590  0.86524  0.32593  1.0000
  O   O5        1.0  0.44486  0.01138  0.26473  1.0000
  O   O6        1.0  0.55590  0.98940  0.26505  1.0000
  H   H11       1.0  0.42411  0.00988  0.30543  1.0000
  H   H12       1.0  0.57658  0.99081  0.30587  1.0000
  N   N5        1.0  0.52937  0.90826  0.28117  1.0000
  N   N6        1.0  0.47138  0.09253  0.28101  1.0000
  C   C25       1.0  0.15160  0.48429  0.33071  1.0000
  C   C26       1.0  0.16532  0.47319  0.25435  1.0000
  N   N7        1.0  0.19734  0.46768  0.25962  1.0000
  C   C27       1.0  0.21779  0.47201  0.33645  1.0000
  C   C28       1.0  0.29506  0.44980  0.25881  1.0000
  H   H13       1.0  0.15176  0.46955  0.19367  1.0000
  N   N8        1.0  0.26328  0.45581  0.26182  1.0000
  H   H14       1.0  0.30242  0.44234  0.19910  1.0000
  C   C29       1.0  0.11925  0.49044  0.32347  1.0000
  H   H15       1.0  0.09822  0.47463  0.27818  1.0000
  C   C30       1.0  0.51630  0.66743  0.33071  1.0000
  C   C31       1.0  0.52741  0.69224  0.25435  1.0000
  N   N9        1.0  0.53292  0.72977  0.25962  1.0000
  C   C32       1.0  0.52858  0.74589  0.33645  1.0000
  C   C33       1.0  0.55079  0.84537  0.25881  1.0000
  H   H16       1.0  0.53104  0.68232  0.19367  1.0000
  N   N10       1.0  0.54478  0.80758  0.26182  1.0000
  H   H17       1.0  0.55826  0.86020  0.19910  1.0000
  C   C34       1.0  0.51015  0.62892  0.32347  1.0000
  H   H18       1.0  0.52597  0.62372  0.27818  1.0000
  C   C35       1.0  0.33317  0.84899  0.33071  1.0000
  C   C36       1.0  0.30835  0.83528  0.25435  1.0000
  N   N11       1.0  0.27082  0.80326  0.25962  1.0000
  C   C37       1.0  0.25470  0.78281  0.33645  1.0000
  C   C38       1.0  0.15522  0.70554  0.25881  1.0000
  H   H19       1.0  0.31827  0.84884  0.19367  1.0000
  N   N12       1.0  0.19301  0.73732  0.26182  1.0000
  H   H20       1.0  0.14039  0.69817  0.19910  1.0000
  C   C39       1.0  0.37167  0.88135  0.32347  1.0000
  H   H21       1.0  0.37688  0.90237  0.27818  1.0000
  C   C40       1.0  0.84886  0.51583  0.33043  1.0000
  C   C41       1.0  0.83536  0.52720  0.25413  1.0000
  N   N13       1.0  0.80344  0.53287  0.25932  1.0000
  C   C42       1.0  0.78288  0.52845  0.33603  1.0000
  C   C43       1.0  0.70604  0.55125  0.25824  1.0000
  H   H22       1.0  0.84899  0.53091  0.19352  1.0000
  N   N14       1.0  0.73772  0.54508  0.26135  1.0000
  H   H23       1.0  0.69885  0.55892  0.19858  1.0000
  C   C44       1.0  0.88108  0.50945  0.32316  1.0000
  H   H24       1.0  0.90204  0.52511  0.27763  1.0000
  C   C45       1.0  0.48477  0.33315  0.33043  1.0000
  C   C46       1.0  0.47339  0.30827  0.25413  1.0000
  N   N15       1.0  0.46773  0.27069  0.25932  1.0000
  C   C47       1.0  0.47215  0.25455  0.33603  1.0000
  C   C48       1.0  0.44935  0.15491  0.25824  1.0000
  H   H25       1.0  0.46968  0.31820  0.19352  1.0000
  N   N16       1.0  0.45552  0.19276  0.26135  1.0000
  H   H26       1.0  0.44167  0.14005  0.19858  1.0000
  C   C49       1.0  0.49114  0.37174  0.32316  1.0000
  H   H27       1.0  0.47548  0.37705  0.27763  1.0000
  C   C50       1.0  0.66745  0.15174  0.33043  1.0000
  C   C51       1.0  0.69232  0.16524  0.25413  1.0000
  N   N17       1.0  0.72991  0.19716  0.25932  1.0000
  C   C52       1.0  0.74605  0.21772  0.33603  1.0000
  C   C53       1.0  0.84568  0.29456  0.25824  1.0000
  H   H28       1.0  0.68240  0.15160  0.19352  1.0000
  N   N18       1.0  0.80784  0.26288  0.26135  1.0000
  H   H29       1.0  0.86055  0.30175  0.19858  1.0000
  C   C54       1.0  0.62886  0.11952  0.32316  1.0000
  H   H30       1.0  0.62355  0.09856  0.27763  1.0000
  C   C55       1.0  0.95064  0.49614  0.35986  1.0000
  C   C56       1.0  0.90898  0.46919  0.35484  1.0000
  H   H31       1.0  0.95992  0.52449  0.38243  1.0000
  C   C57       1.0  0.09149  0.53095  0.35422  1.0000
  C   C58       1.0  0.04983  0.50402  0.35959  1.0000
  H   H32       1.0  0.04056  0.47566  0.38212  1.0000
  N   N19       1.0  0.11871  0.51965  0.36387  1.0000
  N   N20       1.0  0.88176  0.48049  0.36435  1.0000
  C   C59       1.0  0.50446  0.45463  0.35986  1.0000
  C   C60       1.0  0.53141  0.43992  0.35484  1.0000
  H   H33       1.0  0.47610  0.43554  0.38243  1.0000
  C   C61       1.0  0.46965  0.56067  0.35422  1.0000
  C   C62       1.0  0.49657  0.54592  0.35959  1.0000
  H   H34       1.0  0.52493  0.56501  0.38212  1.0000
  N   N21       1.0  0.48095  0.59918  0.36387  1.0000
  N   N22       1.0  0.52011  0.40140  0.36435  1.0000
  C   C63       1.0  0.54597  0.04995  0.35986  1.0000
  C   C64       1.0  0.56068  0.09161  0.35484  1.0000
  H   H35       1.0  0.56505  0.04068  0.38243  1.0000
  C   C65       1.0  0.43993  0.90911  0.35422  1.0000
  C   C66       1.0  0.45467  0.95077  0.35959  1.0000
  H   H36       1.0  0.43558  0.96004  0.38212  1.0000
  N   N23       1.0  0.40142  0.88189  0.36387  1.0000
  N   N24       1.0  0.59920  0.11883  0.36435  1.0000
  C   C67       1.0  0.20543  0.48287  0.41591  1.0000
  C   C68       1.0  0.17224  0.48904  0.41192  1.0000
  H   H37       1.0  0.16293  0.49687  0.46864  1.0000
  C   C69       1.0  0.25098  0.46588  0.33756  1.0000
  C   C70       1.0  0.31740  0.45394  0.33680  1.0000
  C   C71       1.0  0.30519  0.46412  0.41697  1.0000
  C   C72       1.0  0.27204  0.47036  0.41841  1.0000
  C   C73       1.0  0.25952  0.48099  0.49723  1.0000
  C   C74       1.0  0.22653  0.48724  0.49597  1.0000
  H   H38       1.0  0.27439  0.48438  0.55608  1.0000
  H   H39       1.0  0.21808  0.49503  0.55391  1.0000
  H   H40       1.0  0.32088  0.46753  0.47467  1.0000
  C   C75       1.0  0.35026  0.44844  0.33460  1.0000
  H   H41       1.0  0.35768  0.44043  0.39165  1.0000
  C   C76       1.0  0.51772  0.72268  0.41591  1.0000
  C   C77       1.0  0.51156  0.68332  0.41192  1.0000
  H   H42       1.0  0.50373  0.66619  0.46864  1.0000
  C   C78       1.0  0.53471  0.78521  0.33756  1.0000
  C   C79       1.0  0.54665  0.86358  0.33680  1.0000
  C   C80       1.0  0.53648  0.84119  0.41697  1.0000
  C   C81       1.0  0.53023  0.80180  0.41841  1.0000
  C   C82       1.0  0.51961  0.77865  0.49723  1.0000
  C   C83       1.0  0.51336  0.73941  0.49597  1.0000
  H   H43       1.0  0.51621  0.79012  0.55608  1.0000
  H   H44       1.0  0.50557  0.72317  0.55391  1.0000
  H   H45       1.0  0.53306  0.85346  0.47467  1.0000
  C   C84       1.0  0.55215  0.90194  0.33460  1.0000
  H   H46       1.0  0.56017  0.91737  0.39165  1.0000
  C   C85       1.0  0.27792  0.79516  0.41591  1.0000
  C   C86       1.0  0.31728  0.82836  0.41192  1.0000
  H   H47       1.0  0.33441  0.83766  0.46864  1.0000
  C   C87       1.0  0.21538  0.74962  0.33756  1.0000
  C   C88       1.0  0.13702  0.68320  0.33680  1.0000
  C   C89       1.0  0.15941  0.69541  0.41697  1.0000
  C   C90       1.0  0.19880  0.72855  0.41841  1.0000
  C   C91       1.0  0.22194  0.74107  0.49723  1.0000
  C   C92       1.0  0.26118  0.77406  0.49597  1.0000
  H   H48       1.0  0.21047  0.72621  0.55608  1.0000
  H   H49       1.0  0.27742  0.78252  0.55391  1.0000
  H   H50       1.0  0.14713  0.67972  0.47467  1.0000
  C   C93       1.0  0.09866  0.65033  0.33460  1.0000
  H   H51       1.0  0.08323  0.64292  0.39165  1.0000
  C   C94       1.0  0.79501  0.51731  0.41543  1.0000
  C   C95       1.0  0.82810  0.51099  0.41151  1.0000
  H   H52       1.0  0.83723  0.50294  0.46818  1.0000
  C   C96       1.0  0.74978  0.53473  0.33705  1.0000
  C   C97       1.0  0.68354  0.54695  0.33605  1.0000
  C   C98       1.0  0.69552  0.53650  0.41618  1.0000
  C   C99       1.0  0.72857  0.53011  0.41774  1.0000
  C   C100      1.0  0.74087  0.51921  0.49652  1.0000
  C   C101      1.0  0.77377  0.51282  0.49535  1.0000
  H   H53       1.0  0.72590  0.51572  0.55525  1.0000
  H   H54       1.0  0.78206  0.50484  0.55325  1.0000
  H   H55       1.0  0.67972  0.53298  0.47376  1.0000
  C   C102      1.0  0.65080  0.55264  0.33370  1.0000
  H   H56       1.0  0.64324  0.56051  0.39071  1.0000
  C   C103      1.0  0.48329  0.27781  0.41543  1.0000
  C   C104      1.0  0.48961  0.31724  0.41151  1.0000
  H   H57       1.0  0.49765  0.33440  0.46818  1.0000
  C   C105      1.0  0.46587  0.21518  0.33705  1.0000
  C   C106      1.0  0.45365  0.13671  0.33605  1.0000
  C   C107      1.0  0.46410  0.15914  0.41618  1.0000
  C   C108      1.0  0.47049  0.19858  0.41774  1.0000
  C   C109      1.0  0.48138  0.22178  0.49652  1.0000
  C   C110      1.0  0.48777  0.26107  0.49535  1.0000
  H   H58       1.0  0.48487  0.21030  0.55525  1.0000
  H   H59       1.0  0.49576  0.27734  0.55325  1.0000
  H   H60       1.0  0.46761  0.14686  0.47376  1.0000
  C   C111      1.0  0.44796  0.09828  0.33370  1.0000
  H   H61       1.0  0.44009  0.08286  0.39071  1.0000
  C   C112      1.0  0.72278  0.20559  0.41543  1.0000
  C   C113      1.0  0.68336  0.17250  0.41151  1.0000
  H   H62       1.0  0.66619  0.16337  0.46818  1.0000
  C   C114      1.0  0.78542  0.25081  0.33705  1.0000
  C   C115      1.0  0.86388  0.31705  0.33605  1.0000
  C   C116      1.0  0.84145  0.30508  0.41618  1.0000
  C   C117      1.0  0.80201  0.27202  0.41774  1.0000
  C   C118      1.0  0.77882  0.25973  0.49652  1.0000
  C   C119      1.0  0.73953  0.22682  0.49535  1.0000
  H   H63       1.0  0.79030  0.27469  0.55525  1.0000
  H   H64       1.0  0.72325  0.21854  0.55325  1.0000
  H   H65       1.0  0.85374  0.32087  0.47376  1.0000
  C   C120      1.0  0.90231  0.34979  0.33370  1.0000
  H   H66       1.0  0.91774  0.35735  0.39071  1.0000
