data_image0
_chemical_formula_structural       C6H6N2C8H5CN2HNC8H5CN2HNC8H5CN2HNC3OHOHCHC3OHOHCHC3OHOHCHC3O2H2CHC3O2H2CHC3O2H2CHC12H5CNC2NHN2C10H6CNCN2C10H6CNCN2C10H6CNCN2C3O2H2CHC3O2H2CHC3O2H2CHC3OHOHCHC3OHOHCHC3OHOHCH
_chemical_formula_sum              "C132 H84 N24 O24"
_cell_length_a       57.0583
_cell_length_b       57.068
_cell_length_c       14.8627
_cell_angle_alpha    90
_cell_angle_beta     90
_cell_angle_gamma    119.978

_space_group_name_H-M_alt    "P 1"
_space_group_IT_number       1

loop_
  _space_group_symop_operation_xyz
  'x, y, z'

loop_
  _atom_site_type_symbol
  _atom_site_label
  _atom_site_symmetry_multiplicity
  _atom_site_fract_x
  _atom_site_fract_y
  _atom_site_fract_z
  _atom_site_occupancy
  C   C1        1.0  0.96973  0.02779  0.34417  1.0000
  C   C2        1.0  0.93076  0.89970  0.33330  1.0000
  C   C3        1.0  0.94435  0.92819  0.33201  1.0000
  C   C4        1.0  0.94134  0.01367  0.35814  1.0000
  C   C5        1.0  0.92644  0.02730  0.36044  1.0000
  C   C6        1.0  0.93923  0.05549  0.34687  1.0000
  H   H1        1.0  0.91019  0.88926  0.32590  1.0000
  H   H2        1.0  0.93306  0.93736  0.32216  1.0000
  H   H3        1.0  0.93111  0.99321  0.36836  1.0000
  H   H4        1.0  0.90603  0.01640  0.37182  1.0000
  H   H5        1.0  0.11135  0.02289  0.32580  1.0000
  H   H6        1.0  0.06324  0.99764  0.32209  1.0000
  N   N1        1.0  0.97264  0.98655  0.34357  1.0000
  N   N2        1.0  0.92432  0.06753  0.35286  1.0000
  C   C7        1.0  0.46416  0.27705  0.32798  1.0000
  C   C8        1.0  0.36184  0.20614  0.33015  1.0000
  C   C9        1.0  0.33332  0.19204  0.32806  1.0000
  C   C10       1.0  0.50861  0.19764  0.34825  1.0000
  C   C11       1.0  0.49218  0.20943  0.34574  1.0000
  C   C12       1.0  0.49053  0.28846  0.29098  1.0000
  C   C13       1.0  0.50830  0.31650  0.29033  1.0000
  C   C14       1.0  0.50047  0.33424  0.32747  1.0000
  H   H7        1.0  0.32347  0.20249  0.31430  1.0000
  H   H8        1.0  0.50178  0.23006  0.34103  1.0000
  H   H9        1.0  0.52917  0.21002  0.34643  1.0000
  H   H10       1.0  0.49740  0.27641  0.26470  1.0000
  H   H11       1.0  0.52736  0.32380  0.26464  1.0000
  C   C15       1.0  0.44767  0.24842  0.33534  1.0000
  N   N3        1.0  0.46018  0.23364  0.33966  1.0000
  N   N4        1.0  0.42017  0.23449  0.33943  1.0000
  H   H12       1.0  0.37168  0.22647  0.31729  1.0000
  N   N5        1.0  0.51941  0.36016  0.32791  1.0000
  C   C16       1.0  0.72365  0.18925  0.32774  1.0000
  C   C17       1.0  0.79458  0.15786  0.33005  1.0000
  C   C18       1.0  0.80868  0.14344  0.32797  1.0000
  C   C19       1.0  0.80301  0.31307  0.34818  1.0000
  C   C20       1.0  0.79123  0.28486  0.34562  1.0000
  C   C21       1.0  0.71223  0.20419  0.29053  1.0000
  C   C22       1.0  0.68418  0.19390  0.28982  1.0000
  C   C23       1.0  0.66645  0.16839  0.32717  1.0000
  H   H13       1.0  0.79822  0.12315  0.31417  1.0000
  H   H14       1.0  0.77060  0.27384  0.34083  1.0000
  H   H15       1.0  0.79062  0.32125  0.34631  1.0000
  H   H16       1.0  0.72427  0.22308  0.26413  1.0000
  H   H17       1.0  0.67687  0.20564  0.26396  1.0000
  C   C24       1.0  0.75229  0.20141  0.33519  1.0000
  N   N6        1.0  0.76705  0.22868  0.33951  1.0000
  N   N7        1.0  0.76623  0.18784  0.33932  1.0000
  H   H18       1.0  0.77425  0.14740  0.31714  1.0000
  N   N8        1.0  0.64051  0.16138  0.32747  1.0000
  C   C25       1.0  0.81132  0.53642  0.32795  1.0000
  C   C26       1.0  0.84273  0.63872  0.33018  1.0000
  C   C27       1.0  0.85716  0.66724  0.32812  1.0000
  C   C28       1.0  0.68748  0.49204  0.34756  1.0000
  C   C29       1.0  0.71570  0.50847  0.34501  1.0000
  C   C30       1.0  0.79635  0.51004  0.29097  1.0000
  C   C31       1.0  0.80664  0.49228  0.29032  1.0000
  C   C32       1.0  0.83219  0.50009  0.32748  1.0000
  H   H19       1.0  0.87745  0.67705  0.31438  1.0000
  H   H20       1.0  0.72673  0.49887  0.33994  1.0000
  H   H21       1.0  0.67931  0.47149  0.34542  1.0000
  H   H22       1.0  0.77744  0.50318  0.26466  1.0000
  H   H23       1.0  0.79488  0.47321  0.26463  1.0000
  C   C33       1.0  0.79917  0.55292  0.33528  1.0000
  N   N9        1.0  0.77188  0.54043  0.33951  1.0000
  N   N10       1.0  0.81274  0.58041  0.33941  1.0000
  H   H24       1.0  0.85319  0.62885  0.31728  1.0000
  N   N11       1.0  0.83919  0.48115  0.32791  1.0000
  C   C34       1.0  0.18801  0.09081  0.32948  1.0000
  C   C35       1.0  0.20664  0.10018  0.25684  1.0000
  C   C36       1.0  0.23489  0.11494  0.27249  1.0000
  O   O1        1.0  0.25183  0.12226  0.20022  1.0000
  H   H25       1.0  0.25422  0.13968  0.17931  1.0000
  O   O2        1.0  0.19762  0.09537  0.17008  1.0000
  H   H26       1.0  0.19818  0.07919  0.15051  1.0000
  C   C37       1.0  0.16051  0.07377  0.31288  1.0000
  H   H27       1.0  0.15528  0.05899  0.26817  1.0000
  C   C38       1.0  0.90982  0.09920  0.32948  1.0000
  C   C39       1.0  0.90045  0.10846  0.25682  1.0000
  C   C40       1.0  0.88573  0.12201  0.27246  1.0000
  O   O3        1.0  0.87838  0.13160  0.20019  1.0000
  H   H28       1.0  0.86097  0.11658  0.17932  1.0000
  O   O4        1.0  0.90524  0.10422  0.17006  1.0000
  H   H29       1.0  0.92143  0.12093  0.15045  1.0000
  C   C41       1.0  0.92683  0.08870  0.31291  1.0000
  H   H30       1.0  0.94161  0.09821  0.26819  1.0000
  C   C42       1.0  0.90137  0.81257  0.32943  1.0000
  C   C43       1.0  0.89211  0.79394  0.25678  1.0000
  C   C44       1.0  0.87858  0.76570  0.27245  1.0000
  O   O5        1.0  0.86898  0.74876  0.20021  1.0000
  H   H31       1.0  0.88400  0.74635  0.17934  1.0000
  O   O6        1.0  0.89634  0.80296  0.17002  1.0000
  H   H32       1.0  0.87961  0.80244  0.15044  1.0000
  C   C45       1.0  0.91187  0.84008  0.31284  1.0000
  H   H33       1.0  0.90236  0.84534  0.26810  1.0000
  C   C46       1.0  0.55139  0.15431  0.32640  1.0000
  C   C47       1.0  0.56273  0.14769  0.25246  1.0000
  C   C48       1.0  0.58437  0.14264  0.26513  1.0000
  O   O7        1.0  0.55321  0.14640  0.16730  1.0000
  O   O8        1.0  0.59485  0.13657  0.19212  1.0000
  H   H34       1.0  0.56510  0.16410  0.13938  1.0000
  H   H35       1.0  0.60773  0.15392  0.16401  1.0000
  C   C49       1.0  0.53386  0.16413  0.31031  1.0000
  H   H36       1.0  0.53901  0.17783  0.26153  1.0000
  C   C50       1.0  0.84632  0.39917  0.32643  1.0000
  C   C51       1.0  0.85296  0.41712  0.25250  1.0000
  C   C52       1.0  0.85802  0.44381  0.26519  1.0000
  O   O9        1.0  0.85422  0.40887  0.16734  1.0000
  O   O10       1.0  0.86407  0.46035  0.19219  1.0000
  H   H37       1.0  0.83651  0.40309  0.13946  1.0000
  H   H38       1.0  0.84671  0.45590  0.16417  1.0000
  C   C53       1.0  0.83648  0.37182  0.31046  1.0000
  H   H39       1.0  0.82283  0.36328  0.26154  1.0000
  C   C54       1.0  0.60136  0.44927  0.32634  1.0000
  C   C55       1.0  0.58340  0.43795  0.25243  1.0000
  C   C56       1.0  0.55671  0.41632  0.26519  1.0000
  O   O11       1.0  0.59161  0.44747  0.16726  1.0000
  O   O12       1.0  0.54016  0.40583  0.19223  1.0000
  H   H40       1.0  0.59740  0.43556  0.13929  1.0000
  H   H41       1.0  0.54462  0.39293  0.16416  1.0000
  C   C57       1.0  0.62870  0.46681  0.31018  1.0000
  H   H42       1.0  0.63723  0.46171  0.26119  1.0000
  C   C58       1.0  0.97276  0.94385  0.34414  1.0000
  C   C59       1.0  0.05669  0.03080  0.34417  1.0000
  C   C60       1.0  0.98689  0.92958  0.35810  1.0000
  C   C61       1.0  0.97327  0.90107  0.36038  1.0000
  C   C62       1.0  0.94507  0.88567  0.34674  1.0000
  C   C63       1.0  0.96756  0.06979  0.33335  1.0000
  C   C64       1.0  0.98247  0.05620  0.33206  1.0000
  C   C65       1.0  0.07094  0.05919  0.35817  1.0000
  C   C66       1.0  0.09946  0.07409  0.36045  1.0000
  C   C67       1.0  0.11488  0.06132  0.34673  1.0000
  C   C68       1.0  0.10089  0.03300  0.33326  1.0000
  C   C69       1.0  0.07239  0.01808  0.33198  1.0000
  H   H43       1.0  0.98418  0.89156  0.37177  1.0000
  H   H44       1.0  0.00292  0.06747  0.32220  1.0000
  H   H45       1.0  0.97768  0.09036  0.32600  1.0000
  H   H46       1.0  0.06069  0.06940  0.36853  1.0000
  H   H47       1.0  0.10894  0.09450  0.37188  1.0000
  C   C70       1.0  0.02772  0.01554  0.34354  1.0000
  N   N12       1.0  0.01255  0.02789  0.34358  1.0000
  C   C71       1.0  0.98498  0.01406  0.34353  1.0000
  C   C72       1.0  0.98649  0.97282  0.34352  1.0000
  N   N13       1.0  0.01400  0.98798  0.34358  1.0000
  H   H48       1.0  0.00736  0.93981  0.36838  1.0000
  N   N14       1.0  0.14182  0.07625  0.35276  1.0000
  N   N15       1.0  0.93304  0.85873  0.35277  1.0000
  C   C73       1.0  0.46352  0.19359  0.35023  1.0000
  C   C74       1.0  0.37663  0.19268  0.34716  1.0000
  C   C75       1.0  0.31837  0.16398  0.34468  1.0000
  C   C76       1.0  0.33288  0.15031  0.36147  1.0000
  C   C77       1.0  0.36140  0.16439  0.36266  1.0000
  C   C78       1.0  0.45216  0.16520  0.35835  1.0000
  C   C79       1.0  0.46872  0.15328  0.36105  1.0000
  C   C80       1.0  0.49714  0.16932  0.35401  1.0000
  C   C81       1.0  0.47397  0.32328  0.36232  1.0000
  C   C82       1.0  0.45597  0.29505  0.36185  1.0000
  H   H49       1.0  0.32279  0.12983  0.37114  1.0000
  H   H50       1.0  0.37092  0.15354  0.37459  1.0000
  H   H51       1.0  0.43164  0.15288  0.36273  1.0000
  H   H52       1.0  0.45990  0.13273  0.36733  1.0000
  H   H53       1.0  0.46777  0.33572  0.38967  1.0000
  H   H54       1.0  0.43724  0.28768  0.39018  1.0000
  C   C83       1.0  0.44741  0.20638  0.34714  1.0000
  N   N16       1.0  0.41985  0.19340  0.35002  1.0000
  C   C84       1.0  0.40564  0.20689  0.34633  1.0000
  N   N17       1.0  0.51300  0.15834  0.35931  1.0000
  N   N18       1.0  0.29140  0.15154  0.33855  1.0000
  C   C85       1.0  0.80710  0.27206  0.35016  1.0000
  C   C86       1.0  0.80804  0.18610  0.34712  1.0000
  C   C87       1.0  0.83674  0.15653  0.34465  1.0000
  C   C88       1.0  0.85041  0.18469  0.36152  1.0000
  C   C89       1.0  0.83633  0.19914  0.36269  1.0000
  C   C90       1.0  0.83548  0.28908  0.35837  1.0000
  C   C91       1.0  0.84739  0.31755  0.36113  1.0000
  C   C92       1.0  0.83133  0.32992  0.35402  1.0000
  C   C93       1.0  0.67742  0.15287  0.36224  1.0000
  C   C94       1.0  0.70567  0.16310  0.36175  1.0000
  H   H55       1.0  0.87089  0.19506  0.37125  1.0000
  H   H56       1.0  0.84718  0.21950  0.37468  1.0000
  H   H57       1.0  0.84781  0.28089  0.36279  1.0000
  H   H58       1.0  0.86793  0.32927  0.36746  1.0000
  H   H59       1.0  0.66500  0.13426  0.38973  1.0000
  H   H60       1.0  0.71304  0.15178  0.39036  1.0000
  C   C95       1.0  0.79432  0.24316  0.34704  1.0000
  N   N19       1.0  0.80732  0.22860  0.34997  1.0000
  C   C96       1.0  0.79383  0.20091  0.34628  1.0000
  N   N20       1.0  0.84229  0.35675  0.35940  1.0000
  N   N21       1.0  0.84917  0.14198  0.33853  1.0000
  C   C97       1.0  0.72850  0.53711  0.34996  1.0000
  C   C98       1.0  0.81448  0.62397  0.34714  1.0000
  C   C99       1.0  0.84407  0.68221  0.34478  1.0000
  C   C100      1.0  0.81590  0.66774  0.36151  1.0000
  C   C101      1.0  0.80144  0.63922  0.36265  1.0000
  C   C102      1.0  0.71147  0.54847  0.35851  1.0000
  C   C103      1.0  0.68299  0.53191  0.36127  1.0000
  C   C104      1.0  0.67063  0.50351  0.35378  1.0000
  C   C105      1.0  0.84773  0.52659  0.36229  1.0000
  C   C106      1.0  0.83750  0.54460  0.36176  1.0000
  H   H61       1.0  0.80553  0.67785  0.37118  1.0000
  H   H62       1.0  0.78107  0.62973  0.37454  1.0000
  H   H63       1.0  0.71966  0.56898  0.36327  1.0000
  H   H64       1.0  0.67127  0.54073  0.36790  1.0000
  H   H65       1.0  0.86636  0.53278  0.38969  1.0000
  H   H66       1.0  0.84884  0.56331  0.39019  1.0000
  C   C107      1.0  0.75740  0.55322  0.34694  1.0000
  N   N22       1.0  0.77196  0.58077  0.34989  1.0000
  C   C108      1.0  0.79966  0.59496  0.34628  1.0000
  N   N23       1.0  0.64379  0.48765  0.35922  1.0000
  N   N24       1.0  0.85863  0.70918  0.33862  1.0000
  C   C109      1.0  0.24530  0.11957  0.36141  1.0000
  C   C110      1.0  0.22667  0.11024  0.43405  1.0000
  C   C111      1.0  0.19842  0.09661  0.41840  1.0000
  O   O13       1.0  0.23568  0.11449  0.52081  1.0000
  O   O14       1.0  0.18149  0.08693  0.49066  1.0000
  H   H67       1.0  0.23525  0.09781  0.54037  1.0000
  H   H68       1.0  0.17897  0.10188  0.51153  1.0000
  C   C112      1.0  0.27283  0.13022  0.37806  1.0000
  H   H69       1.0  0.27818  0.12080  0.42286  1.0000
  C   C113      1.0  0.88111  0.12780  0.36137  1.0000
  C   C114      1.0  0.89044  0.11849  0.43403  1.0000
  C   C115      1.0  0.90404  0.10383  0.41840  1.0000
  O   O15       1.0  0.88620  0.12327  0.52079  1.0000
  O   O16       1.0  0.91370  0.09657  0.49068  1.0000
  H   H70       1.0  0.90289  0.13950  0.54033  1.0000
  H   H71       1.0  0.89874  0.07913  0.51159  1.0000
  C   C116      1.0  0.87049  0.14471  0.37804  1.0000
  H   H72       1.0  0.87992  0.15947  0.42283  1.0000
  C   C117      1.0  0.87280  0.75529  0.36137  1.0000
  C   C118      1.0  0.88210  0.77392  0.43400  1.0000
  C   C119      1.0  0.89676  0.80217  0.41835  1.0000
  O   O17       1.0  0.87733  0.76491  0.52077  1.0000
  O   O18       1.0  0.90400  0.81909  0.49063  1.0000
  H   H73       1.0  0.86109  0.76538  0.54030  1.0000
  H   H74       1.0  0.92146  0.82159  0.51152  1.0000
  C   C120      1.0  0.85589  0.72777  0.37805  1.0000
  H   H75       1.0  0.84111  0.72246  0.42281  1.0000
  C   C121      1.0  0.59527  0.14427  0.35208  1.0000
  C   C122      1.0  0.58356  0.15019  0.42642  1.0000
  C   C123      1.0  0.56195  0.15531  0.41369  1.0000
  O   O19       1.0  0.55335  0.16374  0.48586  1.0000
  H   H76       1.0  0.53943  0.14723  0.51572  1.0000
  O   O20       1.0  0.59451  0.15357  0.51025  1.0000
  H   H77       1.0  0.58476  0.13578  0.53965  1.0000
  C   C124      1.0  0.61862  0.14280  0.36342  1.0000
  H   H78       1.0  0.61889  0.12960  0.40634  1.0000
  C   C125      1.0  0.85640  0.45307  0.35216  1.0000
  C   C126      1.0  0.85049  0.43546  0.42652  1.0000
  C   C127      1.0  0.84537  0.40873  0.41376  1.0000
  O   O21       1.0  0.83691  0.39171  0.48594  1.0000
  H   H79       1.0  0.85341  0.39427  0.51579  1.0000
  O   O22       1.0  0.84712  0.44303  0.51034  1.0000
  H   H80       1.0  0.86492  0.45109  0.53968  1.0000
  C   C128      1.0  0.85784  0.47787  0.36350  1.0000
  H   H81       1.0  0.87124  0.49146  0.40570  1.0000
  C   C129      1.0  0.54749  0.40543  0.35217  1.0000
  C   C130      1.0  0.56512  0.41715  0.42648  1.0000
  C   C131      1.0  0.59183  0.43875  0.41367  1.0000
  O   O23       1.0  0.60887  0.44736  0.48580  1.0000
  H   H82       1.0  0.60628  0.46127  0.51567  1.0000
  O   O24       1.0  0.55755  0.40621  0.51032  1.0000
  H   H83       1.0  0.54951  0.41597  0.53969  1.0000
  C   C132      1.0  0.52269  0.38208  0.36353  1.0000
  H   H84       1.0  0.50911  0.38190  0.40577  1.0000
