data_image0
_chemical_formula_structural       NC2H3CN5C23H15C24H15C4HC2H3OC4HC2H3OC4HO
_chemical_formula_sum              "N6 C66 H42 O3"
_cell_length_a       29.9125
_cell_length_b       29.9125
_cell_length_c       14.8887
_cell_angle_alpha    90
_cell_angle_beta     90
_cell_angle_gamma    120

_space_group_name_H-M_alt    "P 1"
_space_group_IT_number       1

loop_
  _space_group_symop_operation_xyz
  'x, y, z'

loop_
  _atom_site_type_symbol
  _atom_site_label
  _atom_site_symmetry_multiplicity
  _atom_site_fract_x
  _atom_site_fract_y
  _atom_site_fract_z
  _atom_site_occupancy
  N   N1        1.0  0.02951  0.51569  0.27256  1.0000
  C   C1        1.0  0.05914  0.53050  0.34744  1.0000
  C   C2        1.0  0.03417  0.51802  0.43151  1.0000
  H   H1        1.0  0.05681  0.52934  0.48778  1.0000
  H   H2        1.0  0.00628  0.47432  0.61431  1.0000
  H   H3        1.0  0.00626  0.53384  0.61430  1.0000
  C   C3        1.0  0.11344  0.55766  0.34009  1.0000
  N   N2        1.0  0.51883  0.49051  0.27637  1.0000
  N   N3        1.0  0.49365  0.51568  0.27258  1.0000
  N   N4        1.0  0.51883  0.03020  0.27636  1.0000
  N   N5        1.0  0.49366  0.97985  0.27254  1.0000
  N   N6        1.0  0.97915  0.49051  0.27635  1.0000
  C   C4        1.0  0.28253  0.64220  0.33466  1.0000
  C   C5        1.0  0.31233  0.61718  0.33434  1.0000
  C   C6        1.0  0.36715  0.64220  0.33449  1.0000
  C   C7        1.0  0.39217  0.69702  0.33425  1.0000
  C   C8        1.0  0.36715  0.72682  0.33463  1.0000
  C   C9        1.0  0.31233  0.69702  0.33476  1.0000
  C   C10       1.0  0.39561  0.61373  0.33540  1.0000
  C   C11       1.0  0.37050  0.55862  0.33639  1.0000
  C   C12       1.0  0.39745  0.53121  0.33885  1.0000
  C   C13       1.0  0.45169  0.55766  0.34010  1.0000
  C   C14       1.0  0.47813  0.61190  0.33893  1.0000
  C   C15       1.0  0.45072  0.63884  0.33648  1.0000
  C   C16       1.0  0.22560  0.61373  0.33554  1.0000
  C   C17       1.0  0.19560  0.55862  0.33664  1.0000
  C   C18       1.0  0.14124  0.53121  0.33902  1.0000
  C   C19       1.0  0.14124  0.61189  0.33877  1.0000
  C   C20       1.0  0.19559  0.63884  0.33633  1.0000
  C   C21       1.0  0.39562  0.78375  0.33552  1.0000
  C   C22       1.0  0.37051  0.81376  0.33627  1.0000
  C   C23       1.0  0.39746  0.86811  0.33871  1.0000
  C   C24       1.0  0.45169  0.89591  0.34004  1.0000
  C   C25       1.0  0.47814  0.86811  0.33902  1.0000
  C   C26       1.0  0.45073  0.81375  0.33664  1.0000
  H   H4        1.0  0.12210  0.49169  0.34100  1.0000
  H   H5        1.0  0.21212  0.53609  0.33665  1.0000
  H   H6        1.0  0.12209  0.63228  0.34051  1.0000
  H   H7        1.0  0.21211  0.67789  0.33589  1.0000
  H   H8        1.0  0.33146  0.79724  0.33583  1.0000
  H   H9        1.0  0.37707  0.88726  0.34046  1.0000
  H   H10       1.0  0.47325  0.79722  0.33672  1.0000
  H   H11       1.0  0.51766  0.88725  0.34102  1.0000
  H   H12       1.0  0.47325  0.67790  0.33638  1.0000
  H   H13       1.0  0.51766  0.63228  0.34086  1.0000
  H   H14       1.0  0.37707  0.49168  0.34070  1.0000
  H   H15       1.0  0.33145  0.53609  0.33616  1.0000
  H   H16       1.0  0.29298  0.57849  0.33381  1.0000
  H   H17       1.0  0.29299  0.71636  0.33496  1.0000
  H   H18       1.0  0.43085  0.71636  0.33355  1.0000
  C   C27       1.0  0.72869  0.36528  0.33576  1.0000
  C   C28       1.0  0.69889  0.39030  0.33520  1.0000
  C   C29       1.0  0.64407  0.36528  0.33554  1.0000
  C   C30       1.0  0.61905  0.31046  0.33543  1.0000
  C   C31       1.0  0.64407  0.28066  0.33582  1.0000
  C   C32       1.0  0.69889  0.31046  0.33605  1.0000
  C   C33       1.0  0.61560  0.39375  0.33687  1.0000
  C   C34       1.0  0.64071  0.44886  0.33836  1.0000
  C   C35       1.0  0.61379  0.47626  0.34208  1.0000
  C   C36       1.0  0.55955  0.44980  0.34464  1.0000
  C   C37       1.0  0.53309  0.39556  0.34204  1.0000
  C   C38       1.0  0.56049  0.36864  0.33822  1.0000
  C   C39       1.0  0.78563  0.39375  0.33705  1.0000
  C   C40       1.0  0.81561  0.44886  0.33866  1.0000
  C   C41       1.0  0.86994  0.47626  0.34228  1.0000
  C   C42       1.0  0.89772  0.44980  0.34463  1.0000
  C   C43       1.0  0.86996  0.39557  0.34180  1.0000
  C   C44       1.0  0.81563  0.36864  0.33803  1.0000
  C   C45       1.0  0.61560  0.22372  0.33713  1.0000
  C   C46       1.0  0.64070  0.19372  0.33815  1.0000
  C   C47       1.0  0.61378  0.13939  0.34195  1.0000
  C   C48       1.0  0.55954  0.11163  0.34467  1.0000
  C   C49       1.0  0.53308  0.13940  0.34219  1.0000
  C   C50       1.0  0.56049  0.19373  0.33857  1.0000
  H   H19       1.0  0.88906  0.51577  0.34517  1.0000
  H   H20       1.0  0.79908  0.47138  0.33849  1.0000
  H   H21       1.0  0.88909  0.37519  0.34421  1.0000
  H   H22       1.0  0.79911  0.32960  0.33695  1.0000
  H   H23       1.0  0.67975  0.21024  0.33722  1.0000
  H   H24       1.0  0.63416  0.12026  0.34439  1.0000
  H   H25       1.0  0.53796  0.21025  0.33820  1.0000
  H   H26       1.0  0.49358  0.12028  0.34498  1.0000
  H   H27       1.0  0.53796  0.32959  0.33758  1.0000
  H   H28       1.0  0.49358  0.37518  0.34464  1.0000
  H   H29       1.0  0.63418  0.51577  0.34480  1.0000
  H   H30       1.0  0.67976  0.47138  0.33787  1.0000
  H   H31       1.0  0.71823  0.42899  0.33432  1.0000
  H   H32       1.0  0.71823  0.29112  0.33668  1.0000
  H   H33       1.0  0.58036  0.29112  0.33495  1.0000
  C   C51       1.0  0.47884  0.53051  0.34745  1.0000
  C   C52       1.0  0.49133  0.51802  0.43153  1.0000
  C   C53       1.0  0.51874  0.49062  0.43809  1.0000
  C   C54       1.0  0.53240  0.47696  0.35454  1.0000
  H   H34       1.0  0.48002  0.52935  0.48779  1.0000
  C   C55       1.0  0.53095  0.47841  0.52324  1.0000
  C   C56       1.0  0.51736  0.49197  0.60896  1.0000
  H   H35       1.0  0.53502  0.53382  0.61434  1.0000
  H   H36       1.0  0.53059  0.47874  0.66622  1.0000
  H   H37       1.0  0.47550  0.47428  0.61430  1.0000
  O   O1        1.0  0.55455  0.45487  0.52927  1.0000
  C   C57       1.0  0.47884  0.95021  0.34741  1.0000
  C   C58       1.0  0.49133  0.97517  0.43150  1.0000
  C   C59       1.0  0.51872  0.02997  0.43808  1.0000
  C   C60       1.0  0.53239  0.05731  0.35454  1.0000
  H   H38       1.0  0.48000  0.95252  0.48775  1.0000
  C   C61       1.0  0.53093  0.05439  0.52323  1.0000
  C   C62       1.0  0.51737  0.02723  0.60895  1.0000
  H   H39       1.0  0.47552  0.00303  0.61432  1.0000
  H   H40       1.0  0.53059  0.05368  0.66622  1.0000
  H   H41       1.0  0.53505  0.00306  0.61428  1.0000
  O   O2        1.0  0.55447  0.10153  0.52928  1.0000
  C   C63       1.0  0.97936  0.49062  0.43808  1.0000
  C   C64       1.0  0.95203  0.47695  0.35453  1.0000
  C   C65       1.0  0.95494  0.47840  0.52322  1.0000
  C   C66       1.0  0.98208  0.49198  0.60894  1.0000
  H   H42       1.0  0.95563  0.47875  0.66620  1.0000
  O   O3        1.0  0.90780  0.45480  0.52925  1.0000
