data_image0
_chemical_formula_structural       C5H6C6H6C3NC2HNHNC2NC2HNHNC2NC2HNHNC12H6C6H3C9H3C12H6C6H3C9H3C2HC6H3NC2HC6H3NC2HC6H3N
_chemical_formula_sum              "C102 H54 N12"
_cell_length_a       52.4763
_cell_length_b       52.4821
_cell_length_c       14.8619
_cell_angle_alpha    90
_cell_angle_beta     90
_cell_angle_gamma    119.995

_space_group_name_H-M_alt    "P 1"
_space_group_IT_number       1

loop_
  _space_group_symop_operation_xyz
  'x, y, z'

loop_
  _atom_site_type_symbol
  _atom_site_label
  _atom_site_symmetry_multiplicity
  _atom_site_fract_x
  _atom_site_fract_y
  _atom_site_fract_z
  _atom_site_occupancy
  C   C1        1.0  0.39140  0.58896  0.35998  1.0000
  C   C2        1.0  0.42280  0.80476  0.35825  1.0000
  C   C3        1.0  0.43543  0.83547  0.34930  1.0000
  C   C4        1.0  0.20689  0.62042  0.35821  1.0000
  C   C5        1.0  0.17617  0.60234  0.34926  1.0000
  H   H1        1.0  0.40018  0.55404  0.35891  1.0000
  H   H2        1.0  0.43625  0.79626  0.37144  1.0000
  H   H3        1.0  0.45776  0.84842  0.35573  1.0000
  H   H4        1.0  0.21538  0.64237  0.37135  1.0000
  H   H5        1.0  0.16322  0.61172  0.35557  1.0000
  H   H6        1.0  0.36958  0.57560  0.37501  1.0000
  C   C6        1.0  0.40946  0.57631  0.35088  1.0000
  C   C7        1.0  0.62255  0.42058  0.31859  1.0000
  C   C8        1.0  0.59117  0.20423  0.31746  1.0000
  C   C9        1.0  0.57832  0.17355  0.32838  1.0000
  C   C10       1.0  0.80738  0.38925  0.31739  1.0000
  C   C11       1.0  0.83806  0.40708  0.32836  1.0000
  H   H7        1.0  0.61316  0.45501  0.31178  1.0000
  H   H8        1.0  0.57875  0.21244  0.29064  1.0000
  H   H9        1.0  0.55684  0.16038  0.30964  1.0000
  H   H10       1.0  0.79918  0.36864  0.29043  1.0000
  H   H11       1.0  0.85124  0.39880  0.30943  1.0000
  H   H12       1.0  0.64334  0.43312  0.29301  1.0000
  C   C12       1.0  0.60471  0.43342  0.32940  1.0000
  C   C13       1.0  0.54645  0.46665  0.34786  1.0000
  C   C14       1.0  0.54494  0.48224  0.27268  1.0000
  N   N1        1.0  0.52987  0.49700  0.27750  1.0000
  C   C15       1.0  0.51582  0.49812  0.35306  1.0000
  C   C16       1.0  0.48429  0.54332  0.27798  1.0000
  H   H13       1.0  0.55484  0.48235  0.21334  1.0000
  N   N2        1.0  0.49883  0.52801  0.28013  1.0000
  H   H14       1.0  0.48396  0.55316  0.21909  1.0000
  N   N3        1.0  0.56146  0.45241  0.34019  1.0000
  C   C17       1.0  0.54500  0.08209  0.34827  1.0000
  C   C18       1.0  0.52948  0.06498  0.27305  1.0000
  N   N4        1.0  0.51471  0.03515  0.27791  1.0000
  C   C19       1.0  0.51353  0.01999  0.35356  1.0000
  C   C20       1.0  0.46839  0.94325  0.27856  1.0000
  H   H15       1.0  0.52942  0.07476  0.21362  1.0000
  N   N5        1.0  0.48369  0.97310  0.28065  1.0000
  H   H16       1.0  0.45859  0.93306  0.21964  1.0000
  N   N6        1.0  0.55925  0.11134  0.34054  1.0000
  C   C21       1.0  0.92952  0.46524  0.34829  1.0000
  C   C22       1.0  0.94663  0.46683  0.27304  1.0000
  N   N7        1.0  0.97646  0.48190  0.27788  1.0000
  C   C23       1.0  0.99162  0.49587  0.35354  1.0000
  C   C24       1.0  0.06837  0.52750  0.27845  1.0000
  H   H17       1.0  0.93685  0.45699  0.21362  1.0000
  N   N8        1.0  0.03852  0.51295  0.28058  1.0000
  H   H18       1.0  0.07856  0.52790  0.21953  1.0000
  N   N9        1.0  0.90027  0.45022  0.34059  1.0000
  C   C25       1.0  0.39218  0.78606  0.34745  1.0000
  C   C26       1.0  0.40317  0.61948  0.34697  1.0000
  C   C27       1.0  0.22559  0.60850  0.34741  1.0000
  C   C28       1.0  0.43962  0.59380  0.32830  1.0000
  C   C29       1.0  0.45119  0.62438  0.31585  1.0000
  C   C30       1.0  0.43326  0.63712  0.32528  1.0000
  C   C31       1.0  0.41779  0.84817  0.32922  1.0000
  C   C32       1.0  0.38711  0.82920  0.31901  1.0000
  C   C33       1.0  0.37440  0.79854  0.32822  1.0000
  C   C34       1.0  0.16346  0.57201  0.32911  1.0000
  C   C35       1.0  0.18243  0.56029  0.31892  1.0000
  C   C36       1.0  0.21310  0.57824  0.32820  1.0000
  H   H19       1.0  0.47284  0.63774  0.29900  1.0000
  H   H20       1.0  0.44238  0.65930  0.31487  1.0000
  H   H21       1.0  0.35214  0.78551  0.31949  1.0000
  H   H22       1.0  0.37365  0.83754  0.30398  1.0000
  H   H23       1.0  0.17410  0.53850  0.30388  1.0000
  H   H24       1.0  0.22612  0.56900  0.31947  1.0000
  C   C37       1.0  0.30916  0.65490  0.35642  1.0000
  C   C38       1.0  0.32394  0.68598  0.35637  1.0000
  C   C39       1.0  0.35502  0.70249  0.35642  1.0000
  C   C40       1.0  0.37133  0.68771  0.35629  1.0000
  C   C41       1.0  0.35675  0.65663  0.35635  1.0000
  C   C42       1.0  0.32567  0.64033  0.35628  1.0000
  H   H25       1.0  0.39393  0.69965  0.35579  1.0000
  H   H26       1.0  0.31200  0.69664  0.35591  1.0000
  H   H27       1.0  0.31501  0.61773  0.35578  1.0000
  C   C43       1.0  0.25415  0.62518  0.35262  1.0000
  C   C44       1.0  0.28041  0.63967  0.35521  1.0000
  C   C45       1.0  0.38649  0.63136  0.35236  1.0000
  C   C46       1.0  0.37199  0.64311  0.35506  1.0000
  C   C47       1.0  0.36854  0.73124  0.35522  1.0000
  C   C48       1.0  0.38030  0.75749  0.35264  1.0000
  C   C49       1.0  0.13344  0.55401  0.31507  1.0000
  C   C50       1.0  0.42980  0.87819  0.31530  1.0000
  C   C51       1.0  0.45759  0.58174  0.31413  1.0000
  H   H28       1.0  0.47404  0.59152  0.27025  1.0000
  H   H29       1.0  0.41988  0.88487  0.27195  1.0000
  H   H30       1.0  0.12677  0.53742  0.27172  1.0000
  C   C52       1.0  0.62053  0.22327  0.34444  1.0000
  C   C53       1.0  0.61203  0.39106  0.34415  1.0000
  C   C54       1.0  0.78832  0.39953  0.34455  1.0000
  C   C55       1.0  0.57599  0.41712  0.36599  1.0000
  C   C56       1.0  0.56570  0.38749  0.39085  1.0000
  C   C57       1.0  0.58341  0.37456  0.38004  1.0000
  C   C58       1.0  0.59445  0.16117  0.36657  1.0000
  C   C59       1.0  0.62392  0.18057  0.39292  1.0000
  C   C60       1.0  0.63686  0.21119  0.38195  1.0000
  C   C61       1.0  0.85042  0.43556  0.36668  1.0000
  C   C62       1.0  0.83101  0.44560  0.39321  1.0000
  C   C63       1.0  0.80039  0.42791  0.38225  1.0000
  H   H31       1.0  0.54515  0.37495  0.41795  1.0000
  H   H32       1.0  0.57522  0.35313  0.39961  1.0000
  H   H33       1.0  0.65816  0.22446  0.40266  1.0000
  H   H34       1.0  0.63633  0.17260  0.42125  1.0000
  H   H35       1.0  0.83897  0.46597  0.42162  1.0000
  H   H36       1.0  0.78711  0.43592  0.40304  1.0000
  C   C64       1.0  0.70479  0.35396  0.33123  1.0000
  C   C65       1.0  0.68958  0.32287  0.33135  1.0000
  C   C66       1.0  0.65848  0.30679  0.33123  1.0000
  C   C67       1.0  0.64260  0.32200  0.33131  1.0000
  C   C68       1.0  0.65761  0.35310  0.33120  1.0000
  C   C69       1.0  0.68870  0.36898  0.33131  1.0000
  H   H37       1.0  0.61999  0.31037  0.33204  1.0000
  H   H38       1.0  0.70121  0.31190  0.33211  1.0000
  H   H39       1.0  0.69968  0.39158  0.33206  1.0000
  C   C70       1.0  0.75979  0.38302  0.33711  1.0000
  C   C71       1.0  0.73354  0.36880  0.33319  1.0000
  C   C72       1.0  0.62855  0.37904  0.33690  1.0000
  C   C73       1.0  0.64277  0.36701  0.33309  1.0000
  C   C74       1.0  0.64457  0.27805  0.33316  1.0000
  C   C75       1.0  0.63254  0.25179  0.33704  1.0000
  C   C76       1.0  0.88047  0.45327  0.38246  1.0000
  C   C77       1.0  0.58211  0.13113  0.38238  1.0000
  C   C78       1.0  0.55826  0.42944  0.38166  1.0000
  H   H40       1.0  0.54192  0.41956  0.42589  1.0000
  H   H41       1.0  0.59189  0.12469  0.42702  1.0000
  H   H42       1.0  0.88691  0.46949  0.42711  1.0000
  C   C79       1.0  0.51696  0.48329  0.43165  1.0000
  C   C80       1.0  0.53250  0.46778  0.42808  1.0000
  H   H43       1.0  0.53380  0.45736  0.48460  1.0000
  C   C81       1.0  0.50030  0.51372  0.35450  1.0000
  C   C82       1.0  0.46962  0.54513  0.35546  1.0000
  C   C83       1.0  0.47034  0.53016  0.43342  1.0000
  C   C84       1.0  0.48579  0.51451  0.43435  1.0000
  C   C85       1.0  0.48712  0.49976  0.51207  1.0000
  C   C86       1.0  0.50262  0.48433  0.51078  1.0000
  H   H44       1.0  0.47683  0.50013  0.57013  1.0000
  H   H45       1.0  0.50323  0.47376  0.56791  1.0000
  H   H46       1.0  0.45974  0.53094  0.49037  1.0000
  N   N10       1.0  0.45455  0.55936  0.35869  1.0000
  C   C87       1.0  0.52828  0.03597  0.43221  1.0000
  C   C88       1.0  0.54379  0.06702  0.42860  1.0000
  H   H47       1.0  0.55416  0.07874  0.48516  1.0000
  C   C89       1.0  0.49793  0.98889  0.35506  1.0000
  C   C90       1.0  0.46653  0.92680  0.35614  1.0000
  C   C91       1.0  0.48145  0.94250  0.43413  1.0000
  C   C92       1.0  0.49709  0.97360  0.43501  1.0000
  C   C93       1.0  0.51177  0.98969  0.51277  1.0000
  C   C94       1.0  0.52719  0.02061  0.51144  1.0000
  H   H48       1.0  0.51136  0.97904  0.57091  1.0000
  H   H49       1.0  0.53770  0.03180  0.56861  1.0000
  H   H50       1.0  0.48065  0.93114  0.49114  1.0000
  N   N11       1.0  0.45233  0.89750  0.35936  1.0000
  C   C95       1.0  0.97565  0.49464  0.43221  1.0000
  C   C96       1.0  0.94459  0.47908  0.42862  1.0000
  H   H51       1.0  0.93287  0.47772  0.48520  1.0000
  C   C97       1.0  0.02273  0.51139  0.35500  1.0000
  C   C98       1.0  0.08483  0.54210  0.35603  1.0000
  C   C99       1.0  0.06913  0.54130  0.43406  1.0000
  C   C100      1.0  0.03803  0.52583  0.43496  1.0000
  C   C101      1.0  0.02194  0.52440  0.51275  1.0000
  C   C102      1.0  0.99101  0.50889  0.51144  1.0000
  H   H52       1.0  0.03259  0.53463  0.57088  1.0000
  H   H53       1.0  0.97982  0.50821  0.56862  1.0000
  H   H54       1.0  0.08049  0.55185  0.49106  1.0000
  N   N12       1.0  0.11413  0.55720  0.35923  1.0000
