data_image0
_chemical_formula_structural       C2HC6H3NC2HC6H3NC2HC6H3NCNCNCNC3H3CNCNCNC3H3C2NC2NHCH3NC2NC2NHCH3NC2NC2NHCH3N
_chemical_formula_sum              "C51 H30 N18"
_cell_length_a       29.0317
_cell_length_b       29.0317
_cell_length_c       15.0154
_cell_angle_alpha    90
_cell_angle_beta     90
_cell_angle_gamma    120

_space_group_name_H-M_alt    "P 1"
_space_group_IT_number       1

loop_
  _space_group_symop_operation_xyz
  'x, y, z'

loop_
  _atom_site_type_symbol
  _atom_site_label
  _atom_site_symmetry_multiplicity
  _atom_site_fract_x
  _atom_site_fract_y
  _atom_site_fract_z
  _atom_site_occupancy
  C   C1        1.0  0.45628  0.51356  0.25913  1.0000
  C   C2        1.0  0.42464  0.53771  0.26577  1.0000
  H   H1        1.0  0.40345  0.53822  0.21155  1.0000
  C   C3        1.0  0.51672  0.48912  0.33168  1.0000
  C   C4        1.0  0.57837  0.43937  0.32786  1.0000
  C   C5        1.0  0.55067  0.43967  0.25071  1.0000
  C   C6        1.0  0.51947  0.46449  0.25159  1.0000
  C   C7        1.0  0.49104  0.46517  0.17583  1.0000
  C   C8        1.0  0.45974  0.48961  0.17952  1.0000
  H   H2        1.0  0.49266  0.44766  0.11763  1.0000
  H   H3        1.0  0.43921  0.48938  0.12394  1.0000
  H   H4        1.0  0.55334  0.42168  0.19382  1.0000
  N   N1        1.0  0.60841  0.41694  0.32932  1.0000
  C   C9        1.0  0.48515  0.94247  0.25911  1.0000
  C   C10       1.0  0.46101  0.88668  0.26574  1.0000
  H   H5        1.0  0.46049  0.86498  0.21151  1.0000
  C   C11       1.0  0.50959  0.02734  0.33169  1.0000
  C   C12       1.0  0.55934  0.13875  0.32790  1.0000
  C   C13       1.0  0.55905  0.11076  0.25074  1.0000
  C   C14       1.0  0.53422  0.05474  0.25161  1.0000
  C   C15       1.0  0.53355  0.02563  0.17583  1.0000
  C   C16       1.0  0.50911  0.96989  0.17951  1.0000
  H   H6        1.0  0.55105  0.04476  0.11764  1.0000
  H   H7        1.0  0.50933  0.94960  0.12392  1.0000
  H   H8        1.0  0.57703  0.13142  0.19385  1.0000
  N   N2        1.0  0.58178  0.19122  0.32937  1.0000
  C   C17       1.0  0.05626  0.54243  0.25915  1.0000
  C   C18       1.0  0.11204  0.57408  0.26579  1.0000
  H   H9        1.0  0.13375  0.59527  0.21157  1.0000
  C   C19       1.0  0.97138  0.48199  0.33170  1.0000
  C   C20       1.0  0.85997  0.42036  0.32790  1.0000
  C   C21       1.0  0.88797  0.44804  0.25074  1.0000
  C   C22       1.0  0.94399  0.47923  0.25161  1.0000
  C   C23       1.0  0.97310  0.50766  0.17585  1.0000
  C   C24       1.0  0.02884  0.53897  0.17954  1.0000
  H   H10       1.0  0.95398  0.50604  0.11765  1.0000
  H   H11       1.0  0.04915  0.55949  0.12395  1.0000
  H   H12       1.0  0.86732  0.44537  0.19384  1.0000
  N   N3        1.0  0.80750  0.39031  0.32935  1.0000
  C   C25       1.0  0.34993  0.71953  0.34824  1.0000
  N   N4        1.0  0.29712  0.68331  0.34808  1.0000
  C   C26       1.0  0.27918  0.63014  0.34830  1.0000
  N   N5        1.0  0.31541  0.61356  0.34810  1.0000
  C   C27       1.0  0.36857  0.64879  0.34826  1.0000
  N   N6        1.0  0.38516  0.70159  0.34804  1.0000
  C   C28       1.0  0.40547  0.63223  0.34668  1.0000
  C   C29       1.0  0.36649  0.77299  0.34664  1.0000
  C   C30       1.0  0.22573  0.59325  0.34674  1.0000
  H   H13       1.0  0.21439  0.55473  0.34321  1.0000
  H   H14       1.0  0.33930  0.78431  0.34309  1.0000
  H   H15       1.0  0.44398  0.65941  0.34310  1.0000
  C   C31       1.0  0.64762  0.27930  0.31304  1.0000
  N   N7        1.0  0.70064  0.31476  0.31257  1.0000
  C   C32       1.0  0.71942  0.36807  0.31298  1.0000
  N   N8        1.0  0.68396  0.38563  0.31252  1.0000
  C   C33       1.0  0.63065  0.35109  0.31298  1.0000
  N   N9        1.0  0.61309  0.29807  0.31257  1.0000
  C   C34       1.0  0.59460  0.36863  0.30973  1.0000
  C   C35       1.0  0.63009  0.22571  0.30982  1.0000
  C   C36       1.0  0.77301  0.40412  0.30974  1.0000
  H   H16       1.0  0.78486  0.44156  0.29253  1.0000
  H   H17       1.0  0.65569  0.21386  0.29263  1.0000
  H   H18       1.0  0.55715  0.34303  0.29253  1.0000
  C   C37       1.0  0.42195  0.56139  0.34619  1.0000
  C   C38       1.0  0.45078  0.55954  0.42111  1.0000
  N   N10       1.0  0.48085  0.53596  0.41196  1.0000
  C   C39       1.0  0.48505  0.51336  0.33543  1.0000
  C   C40       1.0  0.57530  0.46568  0.40448  1.0000
  N   N11       1.0  0.54469  0.48881  0.40412  1.0000
  H   H19       1.0  0.59513  0.46681  0.46144  1.0000
  C   C41       1.0  0.45012  0.58073  0.51040  1.0000
  H   H20       1.0  0.42392  0.59748  0.51400  1.0000
  H   H21       1.0  0.49027  0.61180  0.52800  1.0000
  H   H22       1.0  0.43653  0.54881  0.55947  1.0000
  N   N12       1.0  0.39078  0.58250  0.34853  1.0000
  C   C42       1.0  0.43733  0.86031  0.34616  1.0000
  C   C43       1.0  0.43918  0.89098  0.42109  1.0000
  N   N13       1.0  0.46276  0.94463  0.41195  1.0000
  C   C44       1.0  0.48535  0.97143  0.33542  1.0000
  C   C45       1.0  0.53303  0.10936  0.40452  1.0000
  N   N14       1.0  0.50990  0.05561  0.40414  1.0000
  H   H23       1.0  0.53191  0.12805  0.46149  1.0000
  C   C46       1.0  0.41799  0.86913  0.51038  1.0000
  H   H24       1.0  0.40124  0.82618  0.51396  1.0000
  H   H25       1.0  0.38692  0.87820  0.52798  1.0000
  H   H26       1.0  0.44991  0.88744  0.55945  1.0000
  N   N15       1.0  0.41621  0.80802  0.34848  1.0000
  C   C47       1.0  0.13840  0.57679  0.34623  1.0000
  C   C48       1.0  0.10774  0.54794  0.42114  1.0000
  N   N16       1.0  0.05409  0.51785  0.41198  1.0000
  C   C49       1.0  0.02729  0.51366  0.33545  1.0000
  C   C50       1.0  0.88936  0.42341  0.40450  1.0000
  N   N17       1.0  0.94311  0.45402  0.40414  1.0000
  H   H27       1.0  0.87066  0.40358  0.46147  1.0000
  C   C51       1.0  0.12958  0.54859  0.51043  1.0000
  H   H28       1.0  0.17253  0.57481  0.51403  1.0000
  H   H29       1.0  0.12053  0.50844  0.52800  1.0000
  H   H30       1.0  0.11124  0.56215  0.55951  1.0000
  N   N18       1.0  0.19070  0.60795  0.34855  1.0000
