data_image0
_chemical_formula_structural       C4H3NC3HCH3NC3HC2H7C3HCH3C3HCHNH2C3HNC8NH2C3HCH2NHCHC2H2C5HCH3NC3HCH3NCH2CHC3H2CHCHC2HC3HCH3NC3HCH3NCHC4HCH3NC3H2C4H2CHC3HCH3NH
_chemical_formula_sum              "C84 H72 N12"
_cell_length_a       34.8412
_cell_length_b       34.8412
_cell_length_c       14.4196
_cell_angle_alpha    90
_cell_angle_beta     90
_cell_angle_gamma    120

_space_group_name_H-M_alt    "P 1"
_space_group_IT_number       1

loop_
  _space_group_symop_operation_xyz
  'x, y, z'

loop_
  _atom_site_type_symbol
  _atom_site_label
  _atom_site_symmetry_multiplicity
  _atom_site_fract_x
  _atom_site_fract_y
  _atom_site_fract_z
  _atom_site_occupancy
  C   C1        1.0  0.19251  0.10039  0.37070  1.0000
  C   C2        1.0  0.21688  0.12511  0.29190  1.0000
  C   C3        1.0  0.26360  0.15201  0.29854  1.0000
  C   C4        1.0  0.19588  0.12356  0.20114  1.0000
  H   H1        1.0  0.16022  0.10081  0.20065  1.0000
  H   H2        1.0  0.21041  0.11285  0.14709  1.0000
  H   H3        1.0  0.20173  0.15655  0.18372  1.0000
  N   N1        1.0  0.14861  0.07263  0.37037  1.0000
  C   C5        1.0  0.94231  0.10218  0.37070  1.0000
  C   C6        1.0  0.91760  0.10184  0.29187  1.0000
  C   C7        1.0  0.89071  0.12168  0.29852  1.0000
  H   H4        1.0  0.87305  0.12164  0.24164  1.0000
  C   C8        1.0  0.91914  0.08238  0.20114  1.0000
  H   H5        1.0  0.94188  0.06945  0.20064  1.0000
  H   H6        1.0  0.92986  0.10761  0.14706  1.0000
  H   H7        1.0  0.88614  0.05524  0.18372  1.0000
  N   N2        1.0  0.97008  0.08604  0.37035  1.0000
  C   C9        1.0  0.07168  0.04960  0.37195  1.0000
  C   C10       1.0  0.03929  0.06297  0.37191  1.0000
  C   C11       1.0  0.99312  0.03215  0.37195  1.0000
  H   H8        1.0  0.04966  0.09616  0.37215  1.0000
  C   C12       1.0  0.96097  0.04531  0.37268  1.0000
  C   C13       1.0  0.11699  0.08174  0.37268  1.0000
  H   H9        1.0  0.12541  0.11359  0.37514  1.0000
  H   H10       1.0  0.92912  0.02188  0.37516  1.0000
  H   H11       1.0  0.41956  0.14201  0.35229  1.0000
  H   H12       1.0  0.34807  0.13385  0.37074  1.0000
  H   H13       1.0  0.49901  0.16051  0.29686  1.0000
  H   H14       1.0  0.78703  0.16243  0.39505  1.0000
  H   H15       1.0  0.71584  0.16542  0.44193  1.0000
  C   C14       1.0  0.28697  0.15420  0.38029  1.0000
  C   C15       1.0  0.26257  0.12959  0.45918  1.0000
  C   C16       1.0  0.21587  0.10272  0.45254  1.0000
  H   H16       1.0  0.19832  0.08456  0.50905  1.0000
  C   C17       1.0  0.28366  0.13060  0.54949  1.0000
  H   H17       1.0  0.31930  0.15351  0.55009  1.0000
  H   H18       1.0  0.27799  0.09755  0.56566  1.0000
  H   H19       1.0  0.26909  0.14083  0.60434  1.0000
  C   C18       1.0  0.88851  0.14284  0.38028  1.0000
  C   C19       1.0  0.91313  0.14305  0.45917  1.0000
  C   C20       1.0  0.93999  0.12321  0.45252  1.0000
  H   H20       1.0  0.95816  0.12383  0.50903  1.0000
  C   C21       1.0  0.91213  0.16314  0.54948  1.0000
  H   H21       1.0  0.90189  0.13833  0.60432  1.0000
  N   N3        1.0  0.86306  0.16169  0.37930  1.0000
  H   H22       1.0  0.57135  0.14124  0.57891  1.0000
  H   H23       1.0  0.28123  0.16965  0.24164  1.0000
  C   C22       1.0  0.66041  0.19193  0.36229  1.0000
  C   C23       1.0  0.64135  0.20099  0.28417  1.0000
  C   C24       1.0  0.59994  0.19890  0.29392  1.0000
  H   H24       1.0  0.64217  0.19230  0.13868  1.0000
  N   N4        1.0  0.70295  0.20312  0.35964  1.0000
  C   C25       1.0  0.40609  0.19445  0.37393  1.0000
  C   C26       1.0  0.43370  0.17557  0.36155  1.0000
  C   C27       1.0  0.48047  0.20154  0.36252  1.0000
  C   C28       1.0  0.50730  0.18307  0.34663  1.0000
  C   C29       1.0  0.35986  0.16644  0.37438  1.0000
  C   C30       1.0  0.80154  0.19599  0.38588  1.0000
  C   C31       1.0  0.72840  0.19070  0.39777  1.0000
  C   C32       1.0  0.87626  0.20348  0.37432  1.0000
  N   N5        1.0  0.33128  0.17965  0.37929  1.0000
  H   H25       1.0  0.88922  0.17587  0.55007  1.0000
  H   H26       1.0  0.94519  0.19052  0.56563  1.0000
  C   C33       1.0  0.57754  0.18933  0.37987  1.0000
  C   C34       1.0  0.59684  0.18088  0.45832  1.0000
  C   C35       1.0  0.63760  0.18155  0.44791  1.0000
  H   H27       1.0  0.65266  0.17785  0.50551  1.0000
  C   C36       1.0  0.57711  0.17309  0.55274  1.0000
  H   H28       1.0  0.54552  0.17251  0.55421  1.0000
  H   H29       1.0  0.59988  0.19922  0.59956  1.0000
  N   N6        1.0  0.54446  0.19780  0.38958  1.0000
  H   H30       1.0  0.58737  0.20770  0.23884  1.0000
  C   C37       1.0  0.66378  0.21480  0.19240  1.0000
  H   H31       1.0  0.69497  0.21458  0.18971  1.0000
  C   C38       1.0  0.84826  0.22171  0.37392  1.0000
  C   C39       1.0  0.77421  0.21547  0.38448  1.0000
  H   H32       1.0  0.90886  0.22429  0.37061  1.0000
  H   H33       1.0  0.67080  0.24831  0.17619  1.0000
  C   C40       1.0  0.49973  0.24780  0.37362  1.0000
  C   C41       1.0  0.42709  0.24117  0.38585  1.0000
  C   C42       1.0  0.85069  0.47848  0.36213  1.0000
  C   C43       1.0  0.84174  0.45040  0.28401  1.0000
  C   C44       1.0  0.84380  0.41107  0.29389  1.0000
  H   H34       1.0  0.83510  0.38972  0.23880  1.0000
  C   C45       1.0  0.82797  0.45901  0.19220  1.0000
  H   H35       1.0  0.82817  0.49040  0.18949  1.0000
  H   H36       1.0  0.79447  0.43250  0.17591  1.0000
  H   H37       1.0  0.85051  0.45992  0.13855  1.0000
  N   N7        1.0  0.83956  0.50988  0.35950  1.0000
  C   C46       1.0  0.56419  0.38229  0.36230  1.0000
  C   C47       1.0  0.59237  0.40132  0.28425  1.0000
  C   C48       1.0  0.63173  0.44270  0.29409  1.0000
  H   H38       1.0  0.65312  0.45528  0.23906  1.0000
  C   C49       1.0  0.58382  0.37886  0.19252  1.0000
  H   H39       1.0  0.55240  0.34770  0.18976  1.0000
  H   H40       1.0  0.61031  0.37181  0.17652  1.0000
  H   H41       1.0  0.58302  0.40048  0.13871  1.0000
  N   N8        1.0  0.53282  0.33975  0.35963  1.0000
  C   C50       1.0  0.47390  0.26850  0.38443  1.0000
  H   H42       1.0  0.53363  0.26695  0.37335  1.0000
  H   H43       1.0  0.40805  0.25568  0.39504  1.0000
  C   C51       1.0  0.49495  0.31431  0.39772  1.0000
  H   H44       1.0  0.48223  0.32687  0.44190  1.0000
  C   C52       1.0  0.86714  0.26820  0.36155  1.0000
  C   C53       1.0  0.84118  0.28900  0.36258  1.0000
  C   C54       1.0  0.79492  0.26201  0.37369  1.0000
  H   H45       1.0  0.77577  0.27675  0.37342  1.0000
  H   H46       1.0  0.90070  0.28761  0.35224  1.0000
  C   C55       1.0  0.85964  0.33428  0.34664  1.0000
  H   H47       1.0  0.88208  0.34852  0.29663  1.0000
  C   C56       1.0  0.78070  0.54297  0.37362  1.0000
  H   H48       1.0  0.76596  0.50908  0.37334  1.0000
  C   C57       1.0  0.70840  0.53544  0.34685  1.0000
  C   C58       1.0  0.85202  0.54776  0.39758  1.0000
  H   H49       1.0  0.69409  0.54374  0.29717  1.0000
  C   C59       1.0  0.85336  0.39826  0.37989  1.0000
  C   C60       1.0  0.86175  0.42601  0.45832  1.0000
  C   C61       1.0  0.86101  0.46607  0.44784  1.0000
  H   H50       1.0  0.86474  0.48485  0.50542  1.0000
  C   C62       1.0  0.86955  0.41412  0.55276  1.0000
  H   H51       1.0  0.87019  0.38314  0.55429  1.0000
  H   H52       1.0  0.84340  0.41072  0.59955  1.0000
  H   H53       1.0  0.90138  0.44024  0.57895  1.0000
  N   N9        1.0  0.84495  0.35673  0.38967  1.0000
  C   C63       1.0  0.64445  0.46515  0.38000  1.0000
  C   C64       1.0  0.61664  0.44589  0.45838  1.0000
  C   C65       1.0  0.57659  0.40509  0.44793  1.0000
  H   H54       1.0  0.55773  0.39011  0.50544  1.0000
  C   C66       1.0  0.62849  0.46570  0.55273  1.0000
  H   H55       1.0  0.65949  0.49731  0.55418  1.0000
  H   H56       1.0  0.63185  0.44298  0.59974  1.0000
  H   H57       1.0  0.60237  0.47145  0.57867  1.0000
  N   N10       1.0  0.68601  0.49824  0.38965  1.0000
  C   C67       1.0  0.75371  0.56224  0.36260  1.0000
  H   H58       1.0  0.87729  0.56044  0.44178  1.0000
  C   C68       1.0  0.82724  0.56880  0.38436  1.0000
  C   C69       1.0  0.94057  0.85020  0.37073  1.0000
  C   C70       1.0  0.94085  0.82583  0.29186  1.0000
  C   C71       1.0  0.92101  0.77910  0.29848  1.0000
  H   H59       1.0  0.92101  0.76147  0.24156  1.0000
  C   C72       1.0  0.96026  0.84683  0.20110  1.0000
  H   H60       1.0  0.97320  0.88250  0.20064  1.0000
  H   H61       1.0  0.93499  0.83234  0.14709  1.0000
  H   H62       1.0  0.98738  0.84096  0.18355  1.0000
  N   N11       1.0  0.95668  0.89410  0.37037  1.0000
  C   C73       1.0  0.97974  0.98639  0.37193  1.0000
  C   C74       1.0  0.01056  0.97104  0.37196  1.0000
  C   C75       1.0  0.05633  0.00342  0.37192  1.0000
  H   H63       1.0  0.94656  0.96357  0.37218  1.0000
  H   H64       1.0  0.07915  0.99306  0.37218  1.0000
  C   C76       1.0  0.99741  0.92573  0.37271  1.0000
  C   C77       1.0  0.82100  0.63662  0.37396  1.0000
  C   C78       1.0  0.77451  0.60901  0.36166  1.0000
  C   C79       1.0  0.84673  0.61561  0.38580  1.0000
  H   H65       1.0  0.88029  0.63466  0.39494  1.0000
  H   H66       1.0  0.75509  0.62316  0.35247  1.0000
  C   C80       1.0  0.83924  0.68285  0.37443  1.0000
  H   H67       1.0  0.81842  0.69464  0.37087  1.0000
  C   C81       1.0  0.89989  0.75574  0.38027  1.0000
  C   C82       1.0  0.89971  0.78014  0.45919  1.0000
  C   C83       1.0  0.91955  0.82684  0.45256  1.0000
  H   H68       1.0  0.91896  0.84439  0.50909  1.0000
  C   C84       1.0  0.87966  0.75905  0.54952  1.0000
  H   H69       1.0  0.86694  0.72341  0.55011  1.0000
  H   H70       1.0  0.85229  0.76472  0.56575  1.0000
  H   H71       1.0  0.90450  0.77362  0.60432  1.0000
  N   N12       1.0  0.88102  0.71143  0.37926  1.0000
  H   H72       1.0  0.02084  0.91732  0.37519  1.0000
