data_image0
_chemical_formula_structural       C3HOHNHC3HOHNHC3HOHNHCNCNCNC18H12C3O3CNCNCNC18H12C3O3C3OH2NHC3OH2NHC3OH2NH
_chemical_formula_sum              "C66 H42 O12 N12"
_cell_length_a       36.8284
_cell_length_b       36.8279
_cell_length_c       15.1108
_cell_angle_alpha    90
_cell_angle_beta     90
_cell_angle_gamma    120

_space_group_name_H-M_alt    "P 1"
_space_group_IT_number       1

loop_
  _space_group_symop_operation_xyz
  'x, y, z'

loop_
  _atom_site_type_symbol
  _atom_site_label
  _atom_site_symmetry_multiplicity
  _atom_site_fract_x
  _atom_site_fract_y
  _atom_site_fract_z
  _atom_site_occupancy
  C   C1        1.0  0.47254  0.51840  0.31517  1.0000
  C   C2        1.0  0.48278  0.50201  0.24104  1.0000
  C   C3        1.0  0.50454  0.47992  0.25141  1.0000
  H   H1        1.0  0.47371  0.50547  0.17905  1.0000
  O   O1        1.0  0.51111  0.46150  0.17971  1.0000
  H   H2        1.0  0.53120  0.48421  0.14115  1.0000
  N   N1        1.0  0.45271  0.54073  0.30249  1.0000
  H   H3        1.0  0.46476  0.56303  0.25833  1.0000
  C   C4        1.0  0.47241  0.95230  0.31526  1.0000
  C   C5        1.0  0.48880  0.97891  0.24110  1.0000
  C   C6        1.0  0.51091  0.02277  0.25143  1.0000
  H   H4        1.0  0.48532  0.96636  0.17912  1.0000
  O   O2        1.0  0.52932  0.04774  0.17969  1.0000
  H   H5        1.0  0.50660  0.04512  0.14115  1.0000
  N   N2        1.0  0.45005  0.91014  0.30265  1.0000
  H   H6        1.0  0.42778  0.89991  0.25842  1.0000
  C   C7        1.0  0.03853  0.51826  0.31527  1.0000
  C   C8        1.0  0.01193  0.50806  0.24111  1.0000
  C   C9        1.0  0.96807  0.48633  0.25142  1.0000
  H   H7        1.0  0.02448  0.51713  0.17913  1.0000
  O   O3        1.0  0.94311  0.47979  0.17968  1.0000
  H   H8        1.0  0.94573  0.45970  0.14113  1.0000
  N   N3        1.0  0.08069  0.53805  0.30267  1.0000
  H   H9        1.0  0.09091  0.52601  0.25844  1.0000
  C   C10       1.0  0.28503  0.64621  0.31705  1.0000
  N   N4        1.0  0.30255  0.62136  0.31729  1.0000
  C   C11       1.0  0.34462  0.63698  0.31709  1.0000
  N   N5        1.0  0.36947  0.67934  0.31732  1.0000
  C   C12       1.0  0.35385  0.70580  0.31707  1.0000
  N   N6        1.0  0.31149  0.68828  0.31729  1.0000
  C   C13       1.0  0.36197  0.61015  0.31994  1.0000
  C   C14       1.0  0.33605  0.56595  0.32047  1.0000
  C   C15       1.0  0.35337  0.53960  0.32621  1.0000
  C   C16       1.0  0.39725  0.55663  0.33032  1.0000
  C   C17       1.0  0.42322  0.60071  0.32994  1.0000
  C   C18       1.0  0.40589  0.62698  0.32470  1.0000
  C   C19       1.0  0.24086  0.62885  0.31989  1.0000
  C   C20       1.0  0.21377  0.58493  0.32463  1.0000
  C   C21       1.0  0.17018  0.56759  0.32987  1.0000
  C   C22       1.0  0.15206  0.59356  0.33033  1.0000
  C   C23       1.0  0.17890  0.63743  0.32623  1.0000
  C   C24       1.0  0.22256  0.65477  0.32045  1.0000
  C   C25       1.0  0.38067  0.74997  0.31995  1.0000
  C   C26       1.0  0.36384  0.77706  0.32471  1.0000
  C   C27       1.0  0.39010  0.82066  0.32992  1.0000
  C   C28       1.0  0.43418  0.83877  0.33037  1.0000
  C   C29       1.0  0.45122  0.81194  0.32628  1.0000
  C   C30       1.0  0.42488  0.76827  0.32050  1.0000
  H   H10       1.0  0.15197  0.53574  0.33597  1.0000
  H   H11       1.0  0.22536  0.56481  0.32572  1.0000
  H   H12       1.0  0.16691  0.65723  0.32654  1.0000
  H   H13       1.0  0.24079  0.68671  0.31748  1.0000
  H   H14       1.0  0.33214  0.76548  0.32574  1.0000
  H   H15       1.0  0.37646  0.83887  0.33597  1.0000
  H   H16       1.0  0.43859  0.75004  0.31754  1.0000
  H   H17       1.0  0.48300  0.82392  0.32658  1.0000
  H   H18       1.0  0.42601  0.65868  0.32578  1.0000
  H   H19       1.0  0.45507  0.61434  0.33599  1.0000
  H   H20       1.0  0.33357  0.50782  0.32648  1.0000
  H   H21       1.0  0.30411  0.55223  0.31748  1.0000
  C   C31       1.0  0.10810  0.57591  0.33863  1.0000
  C   C32       1.0  0.46049  0.88273  0.33863  1.0000
  C   C33       1.0  0.41488  0.53031  0.33855  1.0000
  O   O4        1.0  0.39301  0.49391  0.38401  1.0000
  O   O5        1.0  0.49689  0.89726  0.38409  1.0000
  O   O6        1.0  0.09358  0.59779  0.38409  1.0000
  C   C34       1.0  0.70398  0.34645  0.33459  1.0000
  N   N7        1.0  0.68647  0.37130  0.33439  1.0000
  C   C35       1.0  0.64440  0.35570  0.33465  1.0000
  N   N8        1.0  0.61954  0.31334  0.33440  1.0000
  C   C36       1.0  0.63514  0.28687  0.33460  1.0000
  N   N9        1.0  0.67750  0.30438  0.33435  1.0000
  C   C37       1.0  0.62706  0.38253  0.33186  1.0000
  C   C38       1.0  0.65299  0.42674  0.33141  1.0000
  C   C39       1.0  0.63567  0.45309  0.32576  1.0000
  C   C40       1.0  0.59180  0.43608  0.32168  1.0000
  C   C41       1.0  0.56582  0.39200  0.32202  1.0000
  C   C42       1.0  0.58314  0.36572  0.32709  1.0000
  C   C43       1.0  0.74814  0.36379  0.33176  1.0000
  C   C44       1.0  0.77524  0.40772  0.32697  1.0000
  C   C45       1.0  0.81884  0.42504  0.32183  1.0000
  C   C46       1.0  0.83695  0.39907  0.32156  1.0000
  C   C47       1.0  0.81010  0.35520  0.32566  1.0000
  C   C48       1.0  0.76643  0.33788  0.33131  1.0000
  C   C49       1.0  0.60832  0.24270  0.33178  1.0000
  C   C50       1.0  0.62513  0.21559  0.32702  1.0000
  C   C51       1.0  0.59885  0.17200  0.32190  1.0000
  C   C52       1.0  0.55478  0.15390  0.32160  1.0000
  C   C53       1.0  0.53776  0.18075  0.32568  1.0000
  C   C54       1.0  0.56411  0.22442  0.33133  1.0000
  H   H22       1.0  0.83707  0.45690  0.31581  1.0000
  H   H23       1.0  0.76366  0.42784  0.32587  1.0000
  H   H24       1.0  0.82208  0.33540  0.32548  1.0000
  H   H25       1.0  0.74820  0.30593  0.33433  1.0000
  H   H26       1.0  0.65683  0.22717  0.32585  1.0000
  H   H27       1.0  0.61247  0.15377  0.31579  1.0000
  H   H28       1.0  0.55041  0.24266  0.33435  1.0000
  H   H29       1.0  0.50597  0.16878  0.32548  1.0000
  H   H30       1.0  0.56301  0.33402  0.32593  1.0000
  H   H31       1.0  0.53397  0.37838  0.31587  1.0000
  H   H32       1.0  0.65548  0.48487  0.32553  1.0000
  H   H33       1.0  0.68493  0.44044  0.33441  1.0000
  C   C55       1.0  0.88091  0.41671  0.31348  1.0000
  C   C56       1.0  0.52844  0.10994  0.31347  1.0000
  C   C57       1.0  0.57418  0.46241  0.31353  1.0000
  O   O7        1.0  0.59607  0.49884  0.26819  1.0000
  O   O8        1.0  0.49201  0.09539  0.26817  1.0000
  O   O9        1.0  0.89546  0.39483  0.26815  1.0000
  C   C58       1.0  0.50625  0.49068  0.41120  1.0000
  C   C59       1.0  0.48448  0.51277  0.40083  1.0000
  C   C60       1.0  0.51651  0.47431  0.33707  1.0000
  O   O10       1.0  0.47795  0.53122  0.47252  1.0000
  H   H34       1.0  0.51535  0.48725  0.47319  1.0000
  H   H35       1.0  0.45787  0.50853  0.51111  1.0000
  N   N10       1.0  0.53641  0.45205  0.34978  1.0000
  H   H36       1.0  0.52424  0.42962  0.39365  1.0000
  C   C61       1.0  0.50018  0.01376  0.41123  1.0000
  C   C62       1.0  0.47807  0.96990  0.40091  1.0000
  C   C63       1.0  0.51654  0.04037  0.33707  1.0000
  O   O11       1.0  0.45962  0.94493  0.47264  1.0000
  H   H37       1.0  0.50363  0.02630  0.47321  1.0000
  H   H38       1.0  0.48232  0.94754  0.51120  1.0000
  N   N11       1.0  0.53881  0.08253  0.34973  1.0000
  H   H39       1.0  0.56125  0.09280  0.39358  1.0000
  C   C64       1.0  0.97707  0.48460  0.41122  1.0000
  C   C65       1.0  0.02093  0.50633  0.40092  1.0000
  C   C66       1.0  0.95046  0.47437  0.33706  1.0000
  O   O12       1.0  0.04589  0.51284  0.47265  1.0000
  H   H40       1.0  0.96452  0.47551  0.47320  1.0000
  H   H41       1.0  0.04329  0.53295  0.51121  1.0000
  N   N12       1.0  0.90831  0.45450  0.34969  1.0000
  H   H42       1.0  0.89801  0.46661  0.39361  1.0000
