data_image0
_chemical_formula_structural       C16H16C7H3NH2CHC7H3NH2CHC3NC3NC5NC5NC36H26N4C2H2C3H2CHC2H2C3H2CH
_chemical_formula_sum              "C96 H64 N10"
_cell_length_a       38.4439
_cell_length_b       38.4419
_cell_length_c       14.8921
_cell_angle_alpha    90
_cell_angle_beta     90
_cell_angle_gamma    89.9405

_space_group_name_H-M_alt    "P 1"
_space_group_IT_number       1

loop_
  _space_group_symop_operation_xyz
  'x, y, z'

loop_
  _atom_site_type_symbol
  _atom_site_label
  _atom_site_symmetry_multiplicity
  _atom_site_fract_x
  _atom_site_fract_y
  _atom_site_fract_z
  _atom_site_occupancy
  C   C1        1.0  0.15383  0.00582  0.28490  1.0000
  C   C2        1.0  0.19045  0.00537  0.28384  1.0000
  C   C3        1.0  0.30236  0.02581  0.31636  1.0000
  C   C4        1.0  0.26575  0.02554  0.31712  1.0000
  C   C5        1.0  0.00536  0.14987  0.28412  1.0000
  C   C6        1.0  0.00533  0.18649  0.28268  1.0000
  C   C7        1.0  0.98435  0.26172  0.31008  1.0000
  C   C8        1.0  0.98387  0.29832  0.30775  1.0000
  C   C9        1.0  0.82341  0.00258  0.28320  1.0000
  C   C10       1.0  0.86002  0.00191  0.28436  1.0000
  C   C11       1.0  0.74786  0.98311  0.31128  1.0000
  C   C12       1.0  0.71125  0.98332  0.30928  1.0000
  C   C13       1.0  0.00908  0.85634  0.28448  1.0000
  C   C14       1.0  0.00829  0.81973  0.28306  1.0000
  C   C15       1.0  0.02669  0.70732  0.31397  1.0000
  C   C16       1.0  0.02711  0.74393  0.31510  1.0000
  H   H1        1.0  0.04586  0.69441  0.27993  1.0000
  H   H2        1.0  0.04712  0.75647  0.28344  1.0000
  H   H3        1.0  0.01192  0.80736  0.22295  1.0000
  H   H4        1.0  0.01358  0.86953  0.22593  1.0000
  H   H5        1.0  0.87320  0.99816  0.22542  1.0000
  H   H6        1.0  0.81105  0.99973  0.22279  1.0000
  H   H7        1.0  0.00190  0.13656  0.22525  1.0000
  H   H8        1.0  0.00229  0.19872  0.22217  1.0000
  H   H9        1.0  0.96482  0.31046  0.27151  1.0000
  H   H10       1.0  0.96551  0.24855  0.27549  1.0000
  H   H11       1.0  0.25284  0.04535  0.28547  1.0000
  H   H12       1.0  0.31491  0.04526  0.28257  1.0000
  H   H13       1.0  0.20286  0.00934  0.22395  1.0000
  H   H14       1.0  0.14068  0.01047  0.22634  1.0000
  H   H15       1.0  0.76065  0.96397  0.27672  1.0000
  H   H16       1.0  0.69873  0.96447  0.27329  1.0000
  C   C17       1.0  0.00273  0.41096  0.31019  1.0000
  C   C18       1.0  0.00584  0.43281  0.23416  1.0000
  C   C19       1.0  0.00893  0.46946  0.24152  1.0000
  C   C20       1.0  0.00791  0.48493  0.32857  1.0000
  C   C21       1.0  0.01001  0.52162  0.34218  1.0000
  C   C22       1.0  0.98447  0.54438  0.30706  1.0000
  C   C23       1.0  0.98800  0.58073  0.31532  1.0000
  H   H17       1.0  0.96352  0.53463  0.27292  1.0000
  H   H18       1.0  0.96960  0.59634  0.28621  1.0000
  H   H19       1.0  0.00643  0.42173  0.17157  1.0000
  N   N1        1.0  0.01366  0.48817  0.16481  1.0000
  H   H20       1.0  0.01487  0.47689  0.10635  1.0000
  H   H21       1.0  0.01801  0.51302  0.16587  1.0000
  C   C24       1.0  0.99894  0.37523  0.29850  1.0000
  H   H22       1.0  0.98849  0.36683  0.24138  1.0000
  C   C25       1.0  0.59903  0.00430  0.31159  1.0000
  C   C26       1.0  0.57715  0.00763  0.23567  1.0000
  C   C27       1.0  0.54051  0.01074  0.24314  1.0000
  C   C28       1.0  0.52506  0.00957  0.33020  1.0000
  C   C29       1.0  0.48836  0.01138  0.34381  1.0000
  C   C30       1.0  0.46589  0.98566  0.30851  1.0000
  C   C31       1.0  0.42951  0.98882  0.31691  1.0000
  H   H23       1.0  0.47587  0.96483  0.27427  1.0000
  H   H24       1.0  0.41412  0.97031  0.28762  1.0000
  H   H25       1.0  0.58820  0.00827  0.17304  1.0000
  N   N2        1.0  0.52175  0.01560  0.16653  1.0000
  H   H26       1.0  0.53301  0.01691  0.10806  1.0000
  H   H27       1.0  0.49689  0.01996  0.16771  1.0000
  C   C32       1.0  0.63474  0.00026  0.29970  1.0000
  H   H28       1.0  0.64305  0.99013  0.24208  1.0000
  C   C33       1.0  0.06942  0.91157  0.36668  1.0000
  C   C34       1.0  0.09541  0.93634  0.36626  1.0000
  C   C35       1.0  0.07988  0.96922  0.36718  1.0000
  N   N3        1.0  0.04511  0.96310  0.36753  1.0000
  C   C36       1.0  0.03732  0.92867  0.36691  1.0000
  C   C37       1.0  0.00432  0.91184  0.36679  1.0000
  C   C38       1.0  0.97177  0.92941  0.36701  1.0000
  N   N4        1.0  0.96585  0.96409  0.36744  1.0000
  C   C39       1.0  0.93149  0.97167  0.36695  1.0000
  C   C40       1.0  0.91422  0.93972  0.36644  1.0000
  C   C41       1.0  0.93901  0.91371  0.36601  1.0000
  C   C42       1.0  0.91551  0.00502  0.36706  1.0000
  C   C43       1.0  0.93388  0.03717  0.36745  1.0000
  N   N5        1.0  0.96864  0.04329  0.36784  1.0000
  C   C44       1.0  0.97641  0.07771  0.36729  1.0000
  C   C45       1.0  0.94430  0.09481  0.36708  1.0000
  C   C46       1.0  0.91833  0.07005  0.36677  1.0000
  C   C47       1.0  0.00941  0.09453  0.36722  1.0000
  C   C48       1.0  0.04196  0.07699  0.36754  1.0000
  N   N6        1.0  0.04790  0.04231  0.36746  1.0000
  C   C49       1.0  0.08227  0.03474  0.36725  1.0000
  C   C50       1.0  0.09950  0.06672  0.36760  1.0000
  C   C51       1.0  0.07470  0.09272  0.36728  1.0000
  C   C52       1.0  0.09827  0.00138  0.36701  1.0000
  C   C53       1.0  0.13542  0.00021  0.36568  1.0000
  C   C54       1.0  0.20982  0.99898  0.36311  1.0000
  C   C55       1.0  0.19110  0.99299  0.44360  1.0000
  C   C56       1.0  0.15448  0.99380  0.44508  1.0000
  C   C57       1.0  0.24704  0.99901  0.36204  1.0000
  C   C58       1.0  0.26646  0.97256  0.40546  1.0000
  C   C59       1.0  0.30312  0.97261  0.40389  1.0000
  C   C60       1.0  0.32157  0.99952  0.36066  1.0000
  C   C61       1.0  0.00994  0.13168  0.36564  1.0000
  C   C62       1.0  0.01007  0.20611  0.36233  1.0000
  C   C63       1.0  0.01494  0.18756  0.44363  1.0000
  C   C64       1.0  0.01475  0.15093  0.44545  1.0000
  C   C65       1.0  0.00962  0.24338  0.36065  1.0000
  C   C66       1.0  0.00887  0.31799  0.35546  1.0000
  C   C67       1.0  0.03372  0.29990  0.40728  1.0000
  C   C68       1.0  0.03417  0.26325  0.40965  1.0000
  C   C69       1.0  0.87837  0.00622  0.36572  1.0000
  C   C70       1.0  0.85930  0.01147  0.44563  1.0000
  C   C71       1.0  0.82268  0.01238  0.44409  1.0000
  C   C72       1.0  0.80396  0.00779  0.36297  1.0000
  C   C73       1.0  0.76669  0.00806  0.36156  1.0000
  C   C74       1.0  0.69208  0.00873  0.35702  1.0000
  C   C75       1.0  0.71065  0.03328  0.40855  1.0000
  C   C76       1.0  0.74730  0.03303  0.41059  1.0000
  C   C77       1.0  0.00369  0.87468  0.36547  1.0000
  C   C78       1.0  0.99726  0.85558  0.44477  1.0000
  C   C79       1.0  0.00172  0.80032  0.36215  1.0000
  C   C80       1.0  0.99612  0.81897  0.44293  1.0000
  C   C81       1.0  0.00103  0.76310  0.36057  1.0000
  C   C82       1.0  0.97426  0.74418  0.40397  1.0000
  C   C83       1.0  0.97360  0.70753  0.40199  1.0000
  C   C84       1.0  0.00012  0.68859  0.35838  1.0000
  H   H29       1.0  0.95376  0.69470  0.43364  1.0000
  H   H30       1.0  0.95450  0.75697  0.43609  1.0000
  H   H31       1.0  0.99183  0.80600  0.50189  1.0000
  H   H32       1.0  0.99331  0.86822  0.50440  1.0000
  H   H33       1.0  0.07377  0.88534  0.36638  1.0000
  H   H34       1.0  0.12140  0.93073  0.36543  1.0000
  H   H35       1.0  0.02788  0.98118  0.36793  1.0000
  H   H36       1.0  0.98588  0.02521  0.36816  1.0000
  H   H37       1.0  0.93356  0.88770  0.36503  1.0000
  H   H38       1.0  0.88798  0.93555  0.36609  1.0000
  H   H39       1.0  0.87197  0.01449  0.50558  1.0000
  H   H40       1.0  0.80976  0.01558  0.50358  1.0000
  H   H41       1.0  0.89233  0.07564  0.36604  1.0000
  H   H42       1.0  0.93996  0.12104  0.36687  1.0000
  H   H43       1.0  0.12574  0.07091  0.36785  1.0000
  H   H44       1.0  0.08010  0.11874  0.36707  1.0000
  H   H45       1.0  0.01796  0.13838  0.50551  1.0000
  H   H46       1.0  0.01786  0.20060  0.50304  1.0000
  H   H47       1.0  0.05318  0.25118  0.44633  1.0000
  H   H48       1.0  0.05208  0.31335  0.44292  1.0000
  H   H49       1.0  0.14179  0.98983  0.50464  1.0000
  H   H50       1.0  0.20404  0.98888  0.50270  1.0000
  H   H51       1.0  0.31631  0.95295  0.43539  1.0000
  H   H52       1.0  0.25404  0.95251  0.43725  1.0000
  H   H53       1.0  0.75974  0.05183  0.44709  1.0000
  H   H54       1.0  0.69756  0.05191  0.44423  1.0000
  N   N7        1.0  0.35626  0.99822  0.36012  1.0000
  N   N8        1.0  0.99826  0.65393  0.35783  1.0000
  N   N9        1.0  0.65736  0.01030  0.35798  1.0000
  N   N10       1.0  0.00984  0.35273  0.35613  1.0000
  C   C85       1.0  0.00502  0.46310  0.40476  1.0000
  C   C86       1.0  0.00250  0.42676  0.39582  1.0000
  H   H55       1.0  0.00417  0.47358  0.46795  1.0000
  H   H56       1.0  0.99984  0.41199  0.45260  1.0000
  C   C87       1.0  0.01705  0.59547  0.35969  1.0000
  C   C88       1.0  0.04201  0.57251  0.39699  1.0000
  C   C89       1.0  0.03847  0.53620  0.38886  1.0000
  H   H57       1.0  0.06355  0.58203  0.42909  1.0000
  H   H58       1.0  0.05760  0.52051  0.41440  1.0000
  C   C90       1.0  0.02285  0.63121  0.36265  1.0000
  H   H59       1.0  0.04723  0.63951  0.36963  1.0000
  C   C91       1.0  0.54691  0.00655  0.40631  1.0000
  C   C92       1.0  0.58325  0.00398  0.39727  1.0000
  H   H60       1.0  0.53645  0.00555  0.46950  1.0000
  H   H61       1.0  0.59803  0.00112  0.45397  1.0000
  C   C93       1.0  0.41444  0.01770  0.36142  1.0000
  C   C94       1.0  0.43710  0.04285  0.39883  1.0000
  C   C95       1.0  0.47345  0.03967  0.39062  1.0000
  H   H62       1.0  0.42732  0.06428  0.43099  1.0000
  H   H63       1.0  0.48892  0.05892  0.41630  1.0000
  C   C96       1.0  0.37862  0.02310  0.36442  1.0000
  H   H64       1.0  0.36999  0.04740  0.37100  1.0000
