data_image0
_chemical_formula_structural       C4HC4H2NO2C4HC4H2NO2C4HC4H2NO2C4H4C4H4C4H4CNCNCNC18H12CNCNCNC18H12CNCNCNC18H12CNCNCNC18H12C4H4C4H4C4H4C4HC4H2NO2C4HC4H2NO2C4HC4H2NO2
_chemical_formula_sum              "C156 H90 N18 O12"
_cell_length_a       56.6587
_cell_length_b       56.6587
_cell_length_c       14.9794
_cell_angle_alpha    90
_cell_angle_beta     90
_cell_angle_gamma    120

_space_group_name_H-M_alt    "P 1"
_space_group_IT_number       1

loop_
  _space_group_symop_operation_xyz
  'x, y, z'

loop_
  _atom_site_type_symbol
  _atom_site_label
  _atom_site_symmetry_multiplicity
  _atom_site_fract_x
  _atom_site_fract_y
  _atom_site_fract_z
  _atom_site_occupancy
  C   C1        1.0  0.28515  0.14356  0.32876  1.0000
  C   C2        1.0  0.22693  0.11472  0.32581  1.0000
  C   C3        1.0  0.24185  0.12937  0.24920  1.0000
  C   C4        1.0  0.27072  0.14372  0.25196  1.0000
  H   H1        1.0  0.28127  0.15408  0.19622  1.0000
  C   C5        1.0  0.19792  0.10000  0.32716  1.0000
  C   C6        1.0  0.13965  0.07043  0.33012  1.0000
  C   C7        1.0  0.15438  0.06342  0.26967  1.0000
  C   C8        1.0  0.18305  0.07804  0.26793  1.0000
  H   H2        1.0  0.14433  0.04788  0.22495  1.0000
  H   H3        1.0  0.19301  0.07236  0.22342  1.0000
  N   N1        1.0  0.22772  0.12998  0.17201  1.0000
  O   O1        1.0  0.23331  0.12014  0.10551  1.0000
  O   O2        1.0  0.23323  0.15384  0.15357  1.0000
  C   C9        1.0  0.84863  0.14192  0.32878  1.0000
  C   C10       1.0  0.87747  0.11254  0.32580  1.0000
  C   C11       1.0  0.86282  0.11282  0.24920  1.0000
  C   C12       1.0  0.84846  0.12733  0.25197  1.0000
  H   H4        1.0  0.83810  0.12752  0.19624  1.0000
  C   C13       1.0  0.89219  0.09826  0.32713  1.0000
  C   C14       1.0  0.92176  0.06956  0.33008  1.0000
  C   C15       1.0  0.92876  0.09128  0.26960  1.0000
  C   C16       1.0  0.91415  0.10535  0.26788  1.0000
  H   H5        1.0  0.94432  0.09679  0.22492  1.0000
  H   H6        1.0  0.91983  0.12099  0.22339  1.0000
  N   N2        1.0  0.86220  0.09808  0.17200  1.0000
  O   O3        1.0  0.87204  0.11351  0.10551  1.0000
  O   O4        1.0  0.83835  0.07973  0.15356  1.0000
  C   C17       1.0  0.85025  0.70706  0.32875  1.0000
  C   C18       1.0  0.87964  0.76528  0.32580  1.0000
  C   C19       1.0  0.87936  0.75036  0.24919  1.0000
  C   C20       1.0  0.86484  0.72148  0.25195  1.0000
  H   H7        1.0  0.86465  0.71093  0.19621  1.0000
  C   C21       1.0  0.89392  0.79429  0.32715  1.0000
  C   C22       1.0  0.92263  0.85256  0.33012  1.0000
  C   C23       1.0  0.90091  0.83783  0.26964  1.0000
  C   C24       1.0  0.88683  0.80915  0.26792  1.0000
  H   H8        1.0  0.89540  0.84788  0.22495  1.0000
  H   H9        1.0  0.87120  0.79920  0.22339  1.0000
  N   N3        1.0  0.89410  0.76448  0.17200  1.0000
  O   O5        1.0  0.87868  0.75889  0.10550  1.0000
  O   O6        1.0  0.91245  0.75897  0.15357  1.0000
  C   C25       1.0  0.51212  0.13794  0.28165  1.0000
  C   C26       1.0  0.53388  0.13281  0.27294  1.0000
  C   C27       1.0  0.59531  0.15808  0.25911  1.0000
  C   C28       1.0  0.62266  0.16465  0.25267  1.0000
  H   H10       1.0  0.58888  0.16856  0.21977  1.0000
  H   H11       1.0  0.63496  0.17926  0.20766  1.0000
  H   H12       1.0  0.50045  0.13570  0.22664  1.0000
  H   H13       1.0  0.53706  0.12664  0.21210  1.0000
  C   C29       1.0  0.85422  0.37451  0.28164  1.0000
  C   C30       1.0  0.85934  0.40140  0.27296  1.0000
  C   C31       1.0  0.83402  0.43753  0.25934  1.0000
  C   C32       1.0  0.82746  0.45831  0.25287  1.0000
  H   H14       1.0  0.82362  0.42067  0.21976  1.0000
  H   H15       1.0  0.81292  0.45606  0.20766  1.0000
  H   H16       1.0  0.85647  0.36510  0.22662  1.0000
  H   H17       1.0  0.86550  0.41075  0.21211  1.0000
  C   C33       1.0  0.61765  0.48009  0.28160  1.0000
  C   C34       1.0  0.59077  0.45832  0.27289  1.0000
  C   C35       1.0  0.55467  0.39686  0.25938  1.0000
  C   C36       1.0  0.53390  0.36951  0.25288  1.0000
  H   H18       1.0  0.57156  0.40333  0.21994  1.0000
  H   H19       1.0  0.53621  0.35723  0.20783  1.0000
  H   H20       1.0  0.62709  0.49175  0.22660  1.0000
  H   H21       1.0  0.58141  0.45514  0.21205  1.0000
  C   C37       1.0  0.98069  0.96937  0.33286  1.0000
  N   N4        1.0  0.00840  0.98395  0.33283  1.0000
  C   C38       1.0  0.02284  0.01167  0.33285  1.0000
  N   N5        1.0  0.00825  0.02480  0.33282  1.0000
  C   C39       1.0  0.98054  0.01152  0.33285  1.0000
  N   N6        1.0  0.96741  0.98380  0.33283  1.0000
  C   C40       1.0  0.05195  0.02630  0.33255  1.0000
  C   C41       1.0  0.06705  0.01253  0.33086  1.0000
  C   C42       1.0  0.09573  0.02695  0.32992  1.0000
  C   C43       1.0  0.11054  0.05577  0.33120  1.0000
  C   C44       1.0  0.09557  0.06961  0.33329  1.0000
  C   C45       1.0  0.06689  0.05518  0.33368  1.0000
  C   C46       1.0  0.96621  0.94026  0.33256  1.0000
  C   C47       1.0  0.98015  0.92532  0.33369  1.0000
  C   C48       1.0  0.96590  0.89663  0.33332  1.0000
  C   C49       1.0  0.93708  0.88166  0.33121  1.0000
  C   C50       1.0  0.92307  0.89647  0.32993  1.0000
  C   C51       1.0  0.93734  0.92516  0.33088  1.0000
  C   C52       1.0  0.96590  0.02599  0.33253  1.0000
  C   C53       1.0  0.93702  0.01205  0.33365  1.0000
  C   C54       1.0  0.92259  0.02630  0.33327  1.0000
  C   C55       1.0  0.93642  0.05511  0.33117  1.0000
  C   C56       1.0  0.96525  0.06912  0.32987  1.0000
  C   C57       1.0  0.97967  0.05486  0.33084  1.0000
  H   H22       1.0  0.97687  0.88676  0.33285  1.0000
  H   H23       1.0  0.00098  0.93513  0.33461  1.0000
  H   H24       1.0  0.90222  0.88647  0.32972  1.0000
  H   H25       1.0  0.92621  0.93485  0.33024  1.0000
  H   H26       1.0  0.92600  0.99121  0.33459  1.0000
  H   H27       1.0  0.90174  0.01532  0.33283  1.0000
  H   H28       1.0  0.00050  0.06600  0.33021  1.0000
  H   H29       1.0  0.97609  0.08998  0.32968  1.0000
  H   H30       1.0  0.05707  0.06620  0.33461  1.0000
  H   H31       1.0  0.10544  0.09046  0.33285  1.0000
  H   H32       1.0  0.10573  0.01610  0.32972  1.0000
  H   H33       1.0  0.05735  0.99170  0.33023  1.0000
  C   C58       1.0  0.44334  0.19996  0.34806  1.0000
  N   N7        1.0  0.41570  0.18697  0.34391  1.0000
  C   C59       1.0  0.40174  0.20073  0.33602  1.0000
  N   N8        1.0  0.41654  0.22851  0.33172  1.0000
  C   C60       1.0  0.44425  0.24256  0.33531  1.0000
  N   N9        1.0  0.45669  0.22752  0.34343  1.0000
  C   C61       1.0  0.37267  0.18647  0.33343  1.0000
  C   C62       1.0  0.35727  0.15869  0.35872  1.0000
  C   C63       1.0  0.32860  0.14470  0.35778  1.0000
  C   C64       1.0  0.31420  0.15782  0.33008  1.0000
  C   C65       1.0  0.32944  0.18546  0.30381  1.0000
  C   C66       1.0  0.35812  0.19956  0.30622  1.0000
  C   C67       1.0  0.45858  0.18627  0.35577  1.0000
  C   C68       1.0  0.44737  0.15838  0.33377  1.0000
  C   C69       1.0  0.46347  0.14578  0.33624  1.0000
  C   C70       1.0  0.49108  0.16051  0.36319  1.0000
  C   C71       1.0  0.50213  0.18823  0.38653  1.0000
  C   C72       1.0  0.48624  0.20083  0.38279  1.0000
  C   C73       1.0  0.46044  0.27157  0.33059  1.0000
  C   C74       1.0  0.48928  0.28447  0.33271  1.0000
  C   C75       1.0  0.50571  0.31286  0.32670  1.0000
  C   C76       1.0  0.49407  0.32974  0.31825  1.0000
  C   C77       1.0  0.46532  0.31720  0.31834  1.0000
  C   C78       1.0  0.44880  0.28858  0.32361  1.0000
  H   H34       1.0  0.45488  0.12575  0.31804  1.0000
  H   H35       1.0  0.42760  0.14715  0.31274  1.0000
  H   H36       1.0  0.52224  0.19989  0.40380  1.0000
  H   H37       1.0  0.49542  0.22102  0.39948  1.0000
  H   H38       1.0  0.49896  0.27339  0.33841  1.0000
  H   H39       1.0  0.52642  0.32111  0.32951  1.0000
  H   H40       1.0  0.42810  0.28029  0.32214  1.0000
  H   H41       1.0  0.45620  0.32881  0.31250  1.0000
  H   H42       1.0  0.36824  0.21957  0.28692  1.0000
  H   H43       1.0  0.31975  0.19575  0.28429  1.0000
  H   H44       1.0  0.31831  0.12462  0.37633  1.0000
  H   H45       1.0  0.36673  0.14830  0.37952  1.0000
  C   C79       1.0  0.79221  0.24370  0.34807  1.0000
  N   N10       1.0  0.80520  0.22904  0.34394  1.0000
  C   C80       1.0  0.79144  0.20133  0.33605  1.0000
  N   N11       1.0  0.76366  0.18834  0.33173  1.0000
  C   C81       1.0  0.74961  0.20201  0.33530  1.0000
  N   N12       1.0  0.76465  0.22948  0.34341  1.0000
  C   C82       1.0  0.80570  0.18652  0.33347  1.0000
  C   C83       1.0  0.83348  0.19890  0.35879  1.0000
  C   C84       1.0  0.84748  0.18423  0.35782  1.0000
  C   C85       1.0  0.83436  0.15670  0.33012  1.0000
  C   C86       1.0  0.80672  0.14431  0.30387  1.0000
  C   C87       1.0  0.79261  0.15888  0.30627  1.0000
  C   C88       1.0  0.80589  0.27262  0.35579  1.0000
  C   C89       1.0  0.83380  0.28931  0.33385  1.0000
  C   C90       1.0  0.84638  0.31800  0.33622  1.0000
  C   C91       1.0  0.83166  0.33089  0.36317  1.0000
  C   C92       1.0  0.80394  0.31422  0.38656  1.0000
  C   C93       1.0  0.79134  0.28573  0.38280  1.0000
  C   C94       1.0  0.72060  0.18918  0.33054  1.0000
  C   C95       1.0  0.70770  0.20512  0.33261  1.0000
  C   C96       1.0  0.67931  0.19315  0.32656  1.0000
  C   C97       1.0  0.66244  0.16463  0.31813  1.0000
  C   C98       1.0  0.67498  0.14843  0.31826  1.0000
  C   C99       1.0  0.70360  0.16053  0.32359  1.0000
  H   H46       1.0  0.86641  0.32945  0.31798  1.0000
  H   H47       1.0  0.84501  0.28077  0.31268  1.0000
  H   H48       1.0  0.79227  0.32266  0.40383  1.0000
  H   H49       1.0  0.77115  0.27471  0.39952  1.0000
  H   H50       1.0  0.71877  0.22588  0.33829  1.0000
  H   H51       1.0  0.67106  0.20561  0.32935  1.0000
  H   H52       1.0  0.71189  0.14812  0.32218  1.0000
  H   H53       1.0  0.66337  0.12769  0.31250  1.0000
  H   H54       1.0  0.77261  0.14900  0.28696  1.0000
  H   H55       1.0  0.79643  0.12432  0.28433  1.0000
  H   H56       1.0  0.86756  0.19402  0.37635  1.0000
  H   H57       1.0  0.84387  0.21876  0.37954  1.0000
  C   C100      1.0  0.74846  0.54886  0.34805  1.0000
  N   N13       1.0  0.76312  0.57651  0.34390  1.0000
  C   C101      1.0  0.79083  0.59046  0.33602  1.0000
  N   N14       1.0  0.80382  0.57567  0.33171  1.0000
  C   C102      1.0  0.79016  0.54796  0.33528  1.0000
  N   N15       1.0  0.76269  0.53552  0.34340  1.0000
  C   C103      1.0  0.80564  0.61953  0.33343  1.0000
  C   C104      1.0  0.79326  0.63493  0.35872  1.0000
  C   C105      1.0  0.80793  0.66360  0.35777  1.0000
  C   C106      1.0  0.83546  0.67801  0.33008  1.0000
  C   C107      1.0  0.84786  0.66277  0.30381  1.0000
  C   C108      1.0  0.83329  0.63409  0.30622  1.0000
  C   C109      1.0  0.71954  0.53362  0.35574  1.0000
  C   C110      1.0  0.70284  0.54482  0.33378  1.0000
  C   C111      1.0  0.67416  0.52873  0.33622  1.0000
  C   C112      1.0  0.66127  0.50111  0.36314  1.0000
  C   C113      1.0  0.67794  0.49006  0.38645  1.0000
  C   C114      1.0  0.70643  0.50595  0.38272  1.0000
  C   C115      1.0  0.80299  0.53177  0.33055  1.0000
  C   C116      1.0  0.78705  0.50293  0.33263  1.0000
  C   C117      1.0  0.79901  0.48651  0.32661  1.0000
  C   C118      1.0  0.82753  0.49815  0.31817  1.0000
  C   C119      1.0  0.84374  0.52690  0.31832  1.0000
  C   C120      1.0  0.83163  0.54341  0.32359  1.0000
  H   H58       1.0  0.66272  0.53732  0.31805  1.0000
  H   H59       1.0  0.71139  0.56460  0.31277  1.0000
  H   H60       1.0  0.66950  0.46995  0.40368  1.0000
  H   H61       1.0  0.71745  0.49678  0.39940  1.0000
  H   H62       1.0  0.76629  0.49324  0.33831  1.0000
  H   H63       1.0  0.78655  0.46579  0.32939  1.0000
  H   H64       1.0  0.84405  0.56412  0.32216  1.0000
  H   H65       1.0  0.86447  0.53602  0.31252  1.0000
  H   H66       1.0  0.84316  0.62396  0.28693  1.0000
  H   H67       1.0  0.86784  0.67246  0.28429  1.0000
  H   H68       1.0  0.79814  0.67389  0.37632  1.0000
  H   H69       1.0  0.77341  0.62547  0.37952  1.0000
  C   C121      1.0  0.26997  0.12880  0.40418  1.0000
  C   C122      1.0  0.24133  0.11481  0.40300  1.0000
  C   C123      1.0  0.18334  0.10688  0.38838  1.0000
  C   C124      1.0  0.15466  0.09243  0.38938  1.0000
  H   H70       1.0  0.19351  0.12270  0.43211  1.0000
  H   H71       1.0  0.14482  0.09791  0.43502  1.0000
  H   H72       1.0  0.27966  0.12845  0.46141  1.0000
  H   H73       1.0  0.23105  0.10431  0.45895  1.0000
  C   C125      1.0  0.86340  0.14151  0.40419  1.0000
  C   C126      1.0  0.87739  0.12686  0.40300  1.0000
  C   C127      1.0  0.88532  0.07680  0.38836  1.0000
  C   C128      1.0  0.89976  0.06256  0.38933  1.0000
  H   H74       1.0  0.86950  0.07115  0.43209  1.0000
  H   H75       1.0  0.89429  0.04725  0.43501  1.0000
  H   H76       1.0  0.86374  0.15155  0.46142  1.0000
  H   H77       1.0  0.88788  0.12707  0.45893  1.0000
  C   C129      1.0  0.85065  0.72224  0.40416  1.0000
  C   C130      1.0  0.86531  0.75087  0.40298  1.0000
  C   C131      1.0  0.91538  0.80886  0.38838  1.0000
  C   C132      1.0  0.92963  0.83754  0.38934  1.0000
  H   H78       1.0  0.92103  0.79869  0.43210  1.0000
  H   H79       1.0  0.94493  0.84738  0.43503  1.0000
  H   H80       1.0  0.84062  0.71254  0.46140  1.0000
  H   H81       1.0  0.86510  0.76116  0.45893  1.0000
  C   C133      1.0  0.50852  0.14912  0.36124  1.0000
  C   C134      1.0  0.55266  0.13861  0.34343  1.0000
  C   C135      1.0  0.54832  0.14841  0.42567  1.0000
  C   C136      1.0  0.52612  0.15313  0.43373  1.0000
  H   H82       1.0  0.52415  0.16164  0.49154  1.0000
  C   C137      1.0  0.57802  0.13988  0.32544  1.0000
  C   C138      1.0  0.63367  0.15336  0.31252  1.0000
  C   C139      1.0  0.61592  0.13363  0.37458  1.0000
  C   C140      1.0  0.58847  0.12705  0.38107  1.0000
  H   H83       1.0  0.62337  0.12574  0.42086  1.0000
  H   H84       1.0  0.57666  0.11422  0.43091  1.0000
  N   N16       1.0  0.56738  0.15570  0.49626  1.0000
  O   O7        1.0  0.55628  0.14252  0.56615  1.0000
  O   O8        1.0  0.57898  0.18075  0.51350  1.0000
  C   C141      1.0  0.84306  0.35972  0.36122  1.0000
  C   C142      1.0  0.85355  0.41438  0.34347  1.0000
  C   C143      1.0  0.84376  0.40023  0.42571  1.0000
  C   C144      1.0  0.83899  0.37330  0.43364  1.0000
  H   H85       1.0  0.83055  0.36283  0.49154  1.0000
  C   C145      1.0  0.85226  0.43846  0.32554  1.0000
  C   C146      1.0  0.83881  0.48066  0.31257  1.0000
  C   C147      1.0  0.85851  0.48261  0.37468  1.0000
  C   C148      1.0  0.86509  0.46173  0.38117  1.0000
  H   H86       1.0  0.86642  0.49796  0.42092  1.0000
  H   H87       1.0  0.87794  0.46277  0.43097  1.0000
  N   N17       1.0  0.83649  0.41200  0.49638  1.0000
  O   O9        1.0  0.84967  0.41406  0.56623  1.0000
  O   O10       1.0  0.81144  0.39856  0.51363  1.0000
  C   C149      1.0  0.63244  0.48367  0.36115  1.0000
  C   C150      1.0  0.57780  0.43954  0.34339  1.0000
  C   C151      1.0  0.59194  0.44388  0.42564  1.0000
  C   C152      1.0  0.61887  0.46605  0.43363  1.0000
  H   H88       1.0  0.62935  0.46806  0.49147  1.0000
  C   C153      1.0  0.55371  0.41419  0.32544  1.0000
  C   C154      1.0  0.51156  0.35850  0.31262  1.0000
  C   C155      1.0  0.50962  0.37625  0.37476  1.0000
  C   C156      1.0  0.53043  0.40373  0.38105  1.0000
  H   H89       1.0  0.49421  0.36882  0.42082  1.0000
  H   H90       1.0  0.52938  0.41554  0.43083  1.0000
  N   N18       1.0  0.58015  0.42483  0.49628  1.0000
  O   O11       1.0  0.57810  0.43595  0.56614  1.0000
  O   O12       1.0  0.59360  0.41322  0.51353  1.0000
