data_image0
_chemical_formula_structural       C3HC4HN2H2O2C3HC4HN2H2O2C3HC4HN2H2O2C5H2NH2NO2C5H2NH2NO2C5H2NH2NO2C5H2NH2NO2C5H2NH2NO2C5H2NH2NO2NC18H12NC18H12NC18H12NC18H12NC18H12NC18H12C5H2NH2NO2C5H2NH2NO2C5H2NH2NO2C3HC4HN2H2O2C3HC4HN2H2O2C3HC4HN2H2O2C3HC4HN2H2O2C3HC4HN2H2O2C3HC4HN2H2O2
_chemical_formula_sum              "C216 H144 N42 O36"
_cell_length_a       68.7483
_cell_length_b       68.7483
_cell_length_c       14.8613
_cell_angle_alpha    90
_cell_angle_beta     90
_cell_angle_gamma    120

_space_group_name_H-M_alt    "P 1"
_space_group_IT_number       1

loop_
  _space_group_symop_operation_xyz
  'x, y, z'

loop_
  _atom_site_type_symbol
  _atom_site_label
  _atom_site_symmetry_multiplicity
  _atom_site_fract_x
  _atom_site_fract_y
  _atom_site_fract_z
  _atom_site_occupancy
  C   C1        1.0  0.99486  0.49763  0.34144  1.0000
  C   C2        1.0  0.98212  0.47989  0.27971  1.0000
  C   C3        1.0  0.95830  0.46875  0.28356  1.0000
  H   H1        1.0  0.94933  0.45568  0.24015  1.0000
  C   C4        1.0  0.01894  0.50982  0.34277  1.0000
  C   C5        1.0  0.06734  0.53373  0.34406  1.0000
  C   C6        1.0  0.05518  0.53807  0.27680  1.0000
  C   C7        1.0  0.03134  0.52603  0.27664  1.0000
  H   H2        1.0  0.02293  0.52937  0.22775  1.0000
  N   N1        1.0  0.06697  0.55481  0.21076  1.0000
  N   N2        1.0  0.99195  0.47296  0.21775  1.0000
  H   H3        1.0  0.98301  0.46072  0.17634  1.0000
  H   H4        1.0  0.00816  0.47970  0.21345  1.0000
  O   O1        1.0  0.06274  0.54673  0.13260  1.0000
  O   O2        1.0  0.06243  0.57037  0.21506  1.0000
  C   C8        1.0  0.51403  0.49957  0.34139  1.0000
  C   C9        1.0  0.53177  0.50457  0.27971  1.0000
  C   C10       1.0  0.54293  0.49190  0.28356  1.0000
  H   H5        1.0  0.55599  0.49600  0.24017  1.0000
  C   C11       1.0  0.50184  0.51145  0.34274  1.0000
  C   C12       1.0  0.47793  0.53594  0.34406  1.0000
  C   C13       1.0  0.47357  0.51943  0.27683  1.0000
  C   C14       1.0  0.48561  0.50763  0.27668  1.0000
  H   H6        1.0  0.48225  0.49586  0.22782  1.0000
  N   N3        1.0  0.45682  0.51446  0.21084  1.0000
  N   N4        1.0  0.53871  0.52134  0.21779  1.0000
  H   H7        1.0  0.55094  0.52463  0.17634  1.0000
  H   H8        1.0  0.53194  0.53078  0.21340  1.0000
  O   O3        1.0  0.46488  0.51831  0.13266  1.0000
  O   O4        1.0  0.44126  0.49437  0.21522  1.0000
  C   C15       1.0  0.51208  0.01679  0.34142  1.0000
  C   C16       1.0  0.50710  0.02953  0.27967  1.0000
  C   C17       1.0  0.51977  0.05335  0.28352  1.0000
  H   H9        1.0  0.51568  0.06232  0.24010  1.0000
  C   C18       1.0  0.50019  0.99271  0.34276  1.0000
  C   C19       1.0  0.47571  0.94431  0.34407  1.0000
  C   C20       1.0  0.49222  0.95647  0.27683  1.0000
  C   C21       1.0  0.50401  0.98030  0.27667  1.0000
  H   H10       1.0  0.51578  0.98872  0.22781  1.0000
  N   N5        1.0  0.49718  0.94468  0.21084  1.0000
  N   N6        1.0  0.49034  0.01969  0.21770  1.0000
  H   H11       1.0  0.48704  0.02863  0.17628  1.0000
  H   H12       1.0  0.48087  0.00349  0.21339  1.0000
  O   O5        1.0  0.49334  0.94890  0.13266  1.0000
  O   O6        1.0  0.51728  0.94922  0.21520  1.0000
  C   C22       1.0  0.23251  0.56042  0.36881  1.0000
  C   C23       1.0  0.23776  0.55232  0.28936  1.0000
  C   C24       1.0  0.25766  0.55097  0.28496  1.0000
  C   C25       1.0  0.30497  0.56092  0.25514  1.0000
  C   C26       1.0  0.32442  0.55907  0.24185  1.0000
  H   H13       1.0  0.29799  0.56407  0.20026  1.0000
  H   H14       1.0  0.26004  0.54387  0.22861  1.0000
  N   N7        1.0  0.33086  0.55876  0.15531  1.0000
  H   H15       1.0  0.32229  0.55946  0.10449  1.0000
  H   H16       1.0  0.34228  0.55487  0.14119  1.0000
  N   N8        1.0  0.22407  0.54668  0.21146  1.0000
  O   O7        1.0  0.23431  0.55932  0.14614  1.0000
  O   O8        1.0  0.21663  0.52661  0.18783  1.0000
  C   C27       1.0  0.45129  0.67446  0.36872  1.0000
  C   C28       1.0  0.45938  0.68780  0.28923  1.0000
  C   C29       1.0  0.46075  0.70906  0.28487  1.0000
  C   C30       1.0  0.45083  0.74645  0.25513  1.0000
  C   C31       1.0  0.45269  0.76775  0.24188  1.0000
  H   H17       1.0  0.44769  0.73633  0.20022  1.0000
  H   H18       1.0  0.46781  0.71852  0.22845  1.0000
  N   N9        1.0  0.45299  0.77451  0.15535  1.0000
  H   H19       1.0  0.45240  0.76529  0.10453  1.0000
  H   H20       1.0  0.45699  0.78987  0.14141  1.0000
  N   N10       1.0  0.46495  0.67972  0.21125  1.0000
  O   O9        1.0  0.45228  0.67733  0.14605  1.0000
  O   O10       1.0  0.48501  0.69233  0.18745  1.0000
  C   C32       1.0  0.33721  0.77916  0.36878  1.0000
  C   C33       1.0  0.32386  0.77391  0.28931  1.0000
  C   C34       1.0  0.30261  0.75400  0.28493  1.0000
  C   C35       1.0  0.26527  0.70669  0.25511  1.0000
  C   C36       1.0  0.24398  0.68724  0.24179  1.0000
  H   H21       1.0  0.27541  0.71366  0.20025  1.0000
  H   H22       1.0  0.29315  0.75162  0.22855  1.0000
  N   N11       1.0  0.23725  0.68079  0.15524  1.0000
  H   H23       1.0  0.24652  0.68935  0.10443  1.0000
  H   H24       1.0  0.22194  0.66936  0.14109  1.0000
  N   N12       1.0  0.33193  0.78758  0.21138  1.0000
  O   O11       1.0  0.33432  0.77732  0.14610  1.0000
  O   O12       1.0  0.31930  0.79502  0.18768  1.0000
  C   C37       1.0  0.78191  0.44979  0.36790  1.0000
  C   C38       1.0  0.77668  0.45794  0.28856  1.0000
  C   C39       1.0  0.75687  0.45947  0.28452  1.0000
  C   C40       1.0  0.70958  0.44960  0.25511  1.0000
  C   C41       1.0  0.69006  0.45134  0.24199  1.0000
  H   H25       1.0  0.71655  0.44648  0.20015  1.0000
  H   H26       1.0  0.75449  0.46655  0.22815  1.0000
  N   N13       1.0  0.68357  0.45161  0.15551  1.0000
  H   H27       1.0  0.69222  0.45109  0.10463  1.0000
  H   H28       1.0  0.67215  0.45554  0.14168  1.0000
  N   N14       1.0  0.79026  0.46343  0.21042  1.0000
  O   O13       1.0  0.77987  0.45081  0.14524  1.0000
  O   O14       1.0  0.79784  0.48351  0.18673  1.0000
  C   C42       1.0  0.56188  0.33446  0.36798  1.0000
  C   C43       1.0  0.55372  0.32106  0.28867  1.0000
  C   C44       1.0  0.55222  0.29973  0.28461  1.0000
  C   C45       1.0  0.56211  0.26233  0.25513  1.0000
  C   C46       1.0  0.56038  0.24109  0.24200  1.0000
  H   H29       1.0  0.56523  0.27244  0.20019  1.0000
  H   H30       1.0  0.54510  0.29025  0.22831  1.0000
  N   N15       1.0  0.56010  0.23432  0.15551  1.0000
  H   H31       1.0  0.56072  0.24353  0.10461  1.0000
  H   H32       1.0  0.55629  0.21902  0.14153  1.0000
  N   N16       1.0  0.54817  0.32913  0.21060  1.0000
  O   O15       1.0  0.56077  0.33137  0.14531  1.0000
  O   O16       1.0  0.52808  0.31660  0.18708  1.0000
  C   C47       1.0  0.67719  0.22975  0.36790  1.0000
  C   C48       1.0  0.69058  0.23498  0.28856  1.0000
  C   C49       1.0  0.71191  0.25479  0.28454  1.0000
  C   C50       1.0  0.74934  0.30208  0.25515  1.0000
  C   C51       1.0  0.77060  0.32160  0.24205  1.0000
  H   H33       1.0  0.73924  0.29511  0.20019  1.0000
  H   H34       1.0  0.72138  0.25718  0.22817  1.0000
  N   N17       1.0  0.77736  0.32810  0.15557  1.0000
  H   H35       1.0  0.76820  0.31945  0.10468  1.0000
  H   H36       1.0  0.79271  0.33952  0.14176  1.0000
  N   N18       1.0  0.68249  0.22140  0.21042  1.0000
  O   O17       1.0  0.68025  0.23179  0.14525  1.0000
  O   O18       1.0  0.69500  0.21382  0.18673  1.0000
  N   N19       1.0  0.16394  0.58361  0.34519  1.0000
  C   C52       1.0  0.17632  0.60671  0.31725  1.0000
  C   C53       1.0  0.13994  0.57132  0.34475  1.0000
  C   C54       1.0  0.17691  0.57349  0.37303  1.0000
  C   C55       1.0  0.19582  0.58560  0.42933  1.0000
  C   C56       1.0  0.21377  0.58125  0.42763  1.0000
  C   C57       1.0  0.21286  0.56313  0.37787  1.0000
  C   C58       1.0  0.19206  0.54885  0.33452  1.0000
  C   C59       1.0  0.17499  0.55448  0.32830  1.0000
  C   C60       1.0  0.17415  0.62347  0.36372  1.0000
  C   C61       1.0  0.19073  0.64634  0.35693  1.0000
  C   C62       1.0  0.21111  0.65323  0.30988  1.0000
  C   C63       1.0  0.21264  0.63641  0.26029  1.0000
  C   C64       1.0  0.19511  0.61391  0.25977  1.0000
  C   C65       1.0  0.12750  0.57155  0.41999  1.0000
  C   C66       1.0  0.10378  0.55962  0.41906  1.0000
  C   C67       1.0  0.09159  0.54630  0.34423  1.0000
  C   C68       1.0  0.10421  0.54603  0.26928  1.0000
  C   C69       1.0  0.12791  0.55857  0.26901  1.0000
  H   H37       1.0  0.18854  0.65775  0.39310  1.0000
  H   H38       1.0  0.16112  0.61902  0.40738  1.0000
  H   H39       1.0  0.19781  0.60227  0.22799  1.0000
  H   H40       1.0  0.22718  0.64014  0.22744  1.0000
  H   H41       1.0  0.19836  0.60001  0.45996  1.0000
  H   H42       1.0  0.22828  0.59280  0.45845  1.0000
  H   H43       1.0  0.13572  0.58059  0.47591  1.0000
  H   H44       1.0  0.09540  0.56049  0.47443  1.0000
  H   H45       1.0  0.09618  0.53657  0.21387  1.0000
  H   H46       1.0  0.13644  0.55813  0.21339  1.0000
  H   H47       1.0  0.16163  0.54520  0.28692  1.0000
  H   H48       1.0  0.18946  0.53469  0.30195  1.0000
  N   N20       1.0  0.42805  0.58266  0.34527  1.0000
  C   C70       1.0  0.40494  0.57193  0.31733  1.0000
  C   C71       1.0  0.44033  0.57095  0.34479  1.0000
  C   C72       1.0  0.43819  0.60577  0.37290  1.0000
  C   C73       1.0  0.42606  0.61259  0.42894  1.0000
  C   C74       1.0  0.43047  0.63491  0.42762  1.0000
  C   C75       1.0  0.44858  0.65211  0.37778  1.0000
  C   C76       1.0  0.46282  0.64556  0.33426  1.0000
  C   C77       1.0  0.45720  0.62285  0.32814  1.0000
  C   C78       1.0  0.38820  0.55302  0.36389  1.0000
  C   C79       1.0  0.36532  0.54676  0.35724  1.0000
  C   C80       1.0  0.35842  0.56021  0.30998  1.0000
  C   C81       1.0  0.37524  0.57854  0.26030  1.0000
  C   C82       1.0  0.39775  0.58351  0.25978  1.0000
  C   C83       1.0  0.44012  0.55829  0.42002  1.0000
  C   C84       1.0  0.45205  0.54650  0.41908  1.0000
  C   C85       1.0  0.46536  0.54763  0.34423  1.0000
  C   C86       1.0  0.46563  0.56051  0.26928  1.0000
  C   C87       1.0  0.45309  0.57168  0.26904  1.0000
  H   H49       1.0  0.35391  0.53314  0.39328  1.0000
  H   H50       1.0  0.39264  0.54445  0.40757  1.0000
  H   H51       1.0  0.40938  0.59784  0.22793  1.0000
  H   H52       1.0  0.37151  0.58934  0.22736  1.0000
  H   H53       1.0  0.41172  0.60073  0.46007  1.0000
  H   H54       1.0  0.41895  0.63788  0.45863  1.0000
  H   H55       1.0  0.43108  0.55746  0.47596  1.0000
  H   H56       1.0  0.45118  0.53725  0.47444  1.0000
  H   H57       1.0  0.47507  0.56193  0.21385  1.0000
  H   H58       1.0  0.45352  0.58063  0.21340  1.0000
  H   H59       1.0  0.46646  0.61877  0.28667  1.0000
  H   H60       1.0  0.47697  0.65711  0.30160  1.0000
  N   N21       1.0  0.42901  0.84771  0.34534  1.0000
  C   C88       1.0  0.43975  0.83534  0.31744  1.0000
  C   C89       1.0  0.44071  0.87171  0.34485  1.0000
  C   C90       1.0  0.40589  0.83472  0.37289  1.0000
  C   C91       1.0  0.39910  0.81579  0.42899  1.0000
  C   C92       1.0  0.37678  0.79787  0.42753  1.0000
  C   C93       1.0  0.35957  0.79879  0.37779  1.0000
  C   C94       1.0  0.36611  0.81959  0.33437  1.0000
  C   C95       1.0  0.38883  0.83667  0.32817  1.0000
  C   C96       1.0  0.45866  0.83753  0.36406  1.0000
  C   C97       1.0  0.46494  0.82093  0.35741  1.0000
  C   C98       1.0  0.45149  0.80058  0.31010  1.0000
  C   C99       1.0  0.43319  0.79907  0.26027  1.0000
  C   C100      1.0  0.42819  0.81659  0.25975  1.0000
  C   C101      1.0  0.45336  0.88416  0.42011  1.0000
  C   C102      1.0  0.46514  0.90787  0.41914  1.0000
  C   C103      1.0  0.46403  0.92005  0.34426  1.0000
  C   C104      1.0  0.45115  0.90743  0.26929  1.0000
  C   C105      1.0  0.43999  0.88373  0.26907  1.0000
  H   H61       1.0  0.47855  0.82314  0.39349  1.0000
  H   H62       1.0  0.46722  0.85055  0.40779  1.0000
  H   H63       1.0  0.41387  0.81390  0.22783  1.0000
  H   H64       1.0  0.42241  0.78455  0.22725  1.0000
  H   H65       1.0  0.41096  0.81332  0.46014  1.0000
  H   H66       1.0  0.37380  0.78340  0.45871  1.0000
  H   H67       1.0  0.45418  0.87594  0.47606  1.0000
  H   H68       1.0  0.47438  0.91626  0.47452  1.0000
  H   H69       1.0  0.44974  0.91546  0.21385  1.0000
  H   H70       1.0  0.43105  0.87520  0.21342  1.0000
  H   H71       1.0  0.39291  0.85002  0.28672  1.0000
  H   H72       1.0  0.35457  0.82220  0.30170  1.0000
  N   N22       1.0  0.84973  0.42559  0.34397  1.0000
  C   C106      1.0  0.83741  0.40245  0.31684  1.0000
  C   C107      1.0  0.87369  0.43777  0.34461  1.0000
  C   C108      1.0  0.83684  0.43577  0.37153  1.0000
  C   C109      1.0  0.81789  0.42381  0.42766  1.0000
  C   C110      1.0  0.80019  0.42852  0.42626  1.0000
  C   C111      1.0  0.80138  0.44677  0.37650  1.0000
  C   C112      1.0  0.82219  0.46076  0.33253  1.0000
  C   C113      1.0  0.83905  0.45482  0.32630  1.0000
  C   C114      1.0  0.83991  0.38601  0.36411  1.0000
  C   C115      1.0  0.82354  0.36304  0.35787  1.0000
  C   C116      1.0  0.80313  0.35580  0.31051  1.0000
  C   C117      1.0  0.80129  0.37239  0.26054  1.0000
  C   C118      1.0  0.81858  0.39499  0.25945  1.0000
  C   C119      1.0  0.88577  0.44214  0.42594  1.0000
  C   C120      1.0  0.90948  0.45392  0.42635  1.0000
  C   C121      1.0  0.92210  0.46231  0.34589  1.0000
  C   C122      1.0  0.90972  0.45775  0.26460  1.0000
  C   C123      1.0  0.88600  0.44560  0.26384  1.0000
  H   H73       1.0  0.82596  0.35182  0.39433  1.0000
  H   H74       1.0  0.85302  0.39081  0.40782  1.0000
  H   H75       1.0  0.81570  0.40649  0.22753  1.0000
  H   H76       1.0  0.78669  0.36841  0.22764  1.0000
  H   H77       1.0  0.81525  0.40942  0.45887  1.0000
  H   H78       1.0  0.78567  0.41717  0.45754  1.0000
  H   H79       1.0  0.87727  0.43635  0.48532  1.0000
  H   H80       1.0  0.91749  0.45600  0.48653  1.0000
  H   H81       1.0  0.91792  0.46350  0.20461  1.0000
  H   H82       1.0  0.87767  0.44271  0.20395  1.0000
  H   H83       1.0  0.85244  0.46383  0.28458  1.0000
  H   H84       1.0  0.82494  0.47492  0.29954  1.0000
  N   N23       1.0  0.58608  0.42649  0.34392  1.0000
  C   C124      1.0  0.60921  0.43730  0.31676  1.0000
  C   C125      1.0  0.57389  0.43826  0.34458  1.0000
  C   C126      1.0  0.57591  0.40342  0.37159  1.0000
  C   C127      1.0  0.58789  0.39643  0.42761  1.0000
  C   C128      1.0  0.58318  0.37402  0.42622  1.0000
  C   C129      1.0  0.56493  0.35695  0.37652  1.0000
  C   C130      1.0  0.55093  0.36377  0.33263  1.0000
  C   C131      1.0  0.55686  0.38657  0.32643  1.0000
  C   C132      1.0  0.62565  0.45626  0.36397  1.0000
  C   C133      1.0  0.64862  0.46285  0.35778  1.0000
  C   C134      1.0  0.65586  0.44967  0.31042  1.0000
  C   C135      1.0  0.63927  0.43124  0.26044  1.0000
  C   C136      1.0  0.61667  0.42594  0.25935  1.0000
  C   C137      1.0  0.56952  0.44596  0.42591  1.0000
  C   C138      1.0  0.55774  0.45790  0.42631  1.0000
  C   C139      1.0  0.54935  0.46213  0.34586  1.0000
  C   C140      1.0  0.55392  0.45432  0.26456  1.0000
  C   C141      1.0  0.56607  0.44275  0.26380  1.0000
  H   H85       1.0  0.65984  0.47648  0.39427  1.0000
  H   H86       1.0  0.62086  0.46455  0.40780  1.0000
  H   H87       1.0  0.60516  0.41155  0.22746  1.0000
  H   H88       1.0  0.64324  0.42062  0.22753  1.0000
  H   H89       1.0  0.60228  0.40818  0.45878  1.0000
  H   H90       1.0  0.59455  0.37086  0.45746  1.0000
  H   H91       1.0  0.57530  0.44325  0.48529  1.0000
  H   H92       1.0  0.55565  0.46382  0.48651  1.0000
  H   H93       1.0  0.54817  0.45677  0.20457  1.0000
  H   H94       1.0  0.56896  0.43731  0.20391  1.0000
  H   H95       1.0  0.54782  0.39093  0.28478  1.0000
  H   H96       1.0  0.53674  0.35236  0.29978  1.0000
  N   N24       1.0  0.58518  0.16192  0.34398  1.0000
  C   C142      1.0  0.57439  0.17425  0.31676  1.0000
  C   C143      1.0  0.57340  0.13796  0.34461  1.0000
  C   C144      1.0  0.60826  0.17481  0.37158  1.0000
  C   C145      1.0  0.61524  0.19373  0.42782  1.0000
  C   C146      1.0  0.63765  0.21145  0.42628  1.0000
  C   C147      1.0  0.65471  0.21028  0.37646  1.0000
  C   C148      1.0  0.64789  0.18948  0.33245  1.0000
  C   C149      1.0  0.62509  0.17259  0.32637  1.0000
  C   C150      1.0  0.55541  0.17173  0.36389  1.0000
  C   C151      1.0  0.54883  0.18811  0.35764  1.0000
  C   C152      1.0  0.56203  0.20853  0.31039  1.0000
  C   C153      1.0  0.58047  0.21038  0.26048  1.0000
  C   C154      1.0  0.58577  0.19308  0.25941  1.0000
  C   C155      1.0  0.56569  0.12588  0.42593  1.0000
  C   C156      1.0  0.55375  0.10217  0.42633  1.0000
  C   C157      1.0  0.54953  0.08955  0.34588  1.0000
  C   C158      1.0  0.55736  0.10193  0.26459  1.0000
  C   C159      1.0  0.56893  0.12565  0.26383  1.0000
  H   H97       1.0  0.53520  0.18571  0.39412  1.0000
  H   H98       1.0  0.54712  0.15865  0.40769  1.0000
  H   H99       1.0  0.60017  0.19596  0.22759  1.0000
  H   H100      1.0  0.59111  0.22499  0.22768  1.0000
  H   H101      1.0  0.60345  0.19635  0.45885  1.0000
  H   H102      1.0  0.64081  0.22597  0.45756  1.0000
  H   H103      1.0  0.56839  0.13438  0.48531  1.0000
  H   H104      1.0  0.54782  0.09416  0.48651  1.0000
  H   H105      1.0  0.55491  0.09373  0.20460  1.0000
  H   H106      1.0  0.57438  0.13398  0.20395  1.0000
  H   H107      1.0  0.62071  0.15921  0.28458  1.0000
  H   H108      1.0  0.65930  0.18671  0.29958  1.0000
  C   C160      1.0  0.94640  0.47449  0.34613  1.0000
  C   C161      1.0  0.95937  0.49243  0.40670  1.0000
  C   C162      1.0  0.98319  0.50351  0.40401  1.0000
  C   C163      1.0  0.03102  0.50577  0.40970  1.0000
  C   C164      1.0  0.05488  0.51704  0.41083  1.0000
  H   H109      1.0  0.02215  0.49375  0.45724  1.0000
  H   H110      1.0  0.99215  0.51647  0.44788  1.0000
  N   N25       1.0  0.06482  0.51074  0.47490  1.0000
  H   H111      1.0  0.05595  0.49901  0.51838  1.0000
  H   H112      1.0  0.08088  0.51637  0.47540  1.0000
  N   N26       1.0  0.94847  0.49982  0.46713  1.0000
  O   O19       1.0  0.95352  0.51977  0.45171  1.0000
  O   O20       1.0  0.95321  0.49834  0.54762  1.0000
  C   C165      1.0  0.53717  0.47425  0.34609  1.0000
  C   C166      1.0  0.51922  0.46927  0.40662  1.0000
  C   C167      1.0  0.50813  0.48200  0.40390  1.0000
  C   C168      1.0  0.50591  0.52761  0.40960  1.0000
  C   C169      1.0  0.49463  0.54018  0.41077  1.0000
  H   H113      1.0  0.51794  0.53076  0.45711  1.0000
  H   H114      1.0  0.49517  0.47799  0.44778  1.0000
  N   N27       1.0  0.50096  0.55645  0.47476  1.0000
  H   H115      1.0  0.51267  0.55929  0.51834  1.0000
  H   H116      1.0  0.49529  0.56683  0.47546  1.0000
  N   N28       1.0  0.51183  0.45097  0.46701  1.0000
  O   O21       1.0  0.49188  0.43606  0.45154  1.0000
  O   O22       1.0  0.51330  0.45718  0.54752  1.0000
  C   C170      1.0  0.53740  0.06525  0.34611  1.0000
  C   C171      1.0  0.54237  0.05228  0.40669  1.0000
  C   C172      1.0  0.52963  0.02846  0.40400  1.0000
  C   C173      1.0  0.48405  0.98063  0.40966  1.0000
  C   C174      1.0  0.47147  0.95677  0.41079  1.0000
  H   H117      1.0  0.48090  0.98950  0.45716  1.0000
  H   H118      1.0  0.53363  0.01950  0.44788  1.0000
  N   N29       1.0  0.45521  0.94684  0.47482  1.0000
  H   H119      1.0  0.45234  0.95570  0.51827  1.0000
  H   H120      1.0  0.44479  0.93078  0.47531  1.0000
  N   N30       1.0  0.56066  0.06318  0.46714  1.0000
  O   O23       1.0  0.57557  0.05813  0.45174  1.0000
  O   O24       1.0  0.55443  0.05844  0.54763  1.0000
  C   C175      1.0  0.27450  0.55978  0.35235  1.0000
  C   C176      1.0  0.27017  0.56959  0.42904  1.0000
  C   C177      1.0  0.24888  0.56804  0.43827  1.0000
  H   H121      1.0  0.24584  0.57390  0.49670  1.0000
  C   C178      1.0  0.29473  0.55839  0.34030  1.0000
  C   C179      1.0  0.33605  0.55714  0.31814  1.0000
  C   C180      1.0  0.32590  0.55444  0.40454  1.0000
  C   C181      1.0  0.30493  0.55356  0.41277  1.0000
  H   H122      1.0  0.29768  0.55058  0.47509  1.0000
  N   N31       1.0  0.33707  0.55391  0.48404  1.0000
  N   N32       1.0  0.28601  0.58189  0.49217  1.0000
  H   H123      1.0  0.28279  0.58914  0.54164  1.0000
  H   H124      1.0  0.30178  0.58703  0.48194  1.0000
  O   O25       1.0  0.34174  0.57032  0.53472  1.0000
  O   O26       1.0  0.32574  0.53605  0.52786  1.0000
  C   C182      1.0  0.45196  0.71710  0.35229  1.0000
  C   C183      1.0  0.44216  0.70297  0.42901  1.0000
  C   C184      1.0  0.44374  0.68325  0.43829  1.0000
  H   H125      1.0  0.43789  0.67435  0.49673  1.0000
  C   C185      1.0  0.45337  0.73873  0.34027  1.0000
  C   C186      1.0  0.45460  0.78130  0.31818  1.0000
  C   C187      1.0  0.45728  0.77382  0.40458  1.0000
  C   C188      1.0  0.45819  0.75375  0.41277  1.0000
  H   H126      1.0  0.46113  0.74946  0.47512  1.0000
  N   N33       1.0  0.45777  0.78551  0.48411  1.0000
  N   N34       1.0  0.42992  0.70656  0.49231  1.0000
  H   H127      1.0  0.42253  0.69596  0.54123  1.0000
  H   H128      1.0  0.42462  0.71703  0.48125  1.0000
  O   O27       1.0  0.44134  0.77373  0.53469  1.0000
  O   O28       1.0  0.47562  0.79204  0.52802  1.0000
  C   C189      1.0  0.29458  0.73717  0.35235  1.0000
  C   C190      1.0  0.30871  0.74151  0.42907  1.0000
  C   C191      1.0  0.32844  0.76280  0.43829  1.0000
  H   H129      1.0  0.33734  0.76585  0.49674  1.0000
  C   C192      1.0  0.27296  0.71694  0.34027  1.0000
  C   C193      1.0  0.23040  0.67560  0.31805  1.0000
  C   C194      1.0  0.23784  0.68576  0.40446  1.0000
  C   C195      1.0  0.25792  0.70673  0.41271  1.0000
  H   H130      1.0  0.26218  0.71399  0.47503  1.0000
  N   N35       1.0  0.22612  0.67458  0.48394  1.0000
  N   N36       1.0  0.30516  0.72568  0.49225  1.0000
  H   H131      1.0  0.31563  0.72891  0.54175  1.0000
  H   H132      1.0  0.29453  0.70991  0.48204  1.0000
  O   O29       1.0  0.23787  0.66992  0.53466  1.0000
  O   O30       1.0  0.21958  0.68591  0.52771  1.0000
  C   C196      1.0  0.74008  0.45075  0.35212  1.0000
  C   C197      1.0  0.74441  0.44095  0.42883  1.0000
  C   C198      1.0  0.76566  0.44243  0.43782  1.0000
  H   H133      1.0  0.76872  0.43659  0.49628  1.0000
  C   C199      1.0  0.71986  0.45218  0.34019  1.0000
  C   C200      1.0  0.67838  0.45313  0.31840  1.0000
  C   C201      1.0  0.68860  0.45593  0.40470  1.0000
  C   C202      1.0  0.70966  0.45700  0.41272  1.0000
  H   H134      1.0  0.71693  0.45999  0.47502  1.0000
  N   N37       1.0  0.67741  0.45637  0.48429  1.0000
  N   N38       1.0  0.72861  0.42879  0.49234  1.0000
  H   H135      1.0  0.73183  0.42139  0.54123  1.0000
  H   H136      1.0  0.71284  0.42351  0.48143  1.0000
  O   O31       1.0  0.67291  0.44001  0.53501  1.0000
  O   O32       1.0  0.68865  0.47427  0.52799  1.0000
  C   C203      1.0  0.56095  0.29167  0.35218  1.0000
  C   C204      1.0  0.57076  0.30581  0.42885  1.0000
  C   C205      1.0  0.56931  0.32560  0.43779  1.0000
  H   H137      1.0  0.57517  0.33451  0.49622  1.0000
  C   C206      1.0  0.55954  0.27004  0.34023  1.0000
  C   C207      1.0  0.55859  0.22761  0.31839  1.0000
  C   C208      1.0  0.55577  0.23501  0.40470  1.0000
  C   C209      1.0  0.55473  0.25502  0.41274  1.0000
  H   H138      1.0  0.55170  0.25927  0.47501  1.0000
  N   N39       1.0  0.55530  0.22336  0.48427  1.0000
  N   N40       1.0  0.58300  0.30224  0.49218  1.0000
  H   H139      1.0  0.59026  0.31272  0.54161  1.0000
  H   H140      1.0  0.58812  0.29158  0.48210  1.0000
  O   O33       1.0  0.57165  0.23520  0.53507  1.0000
  O   O34       1.0  0.53740  0.21671  0.52790  1.0000
  C   C210      1.0  0.71999  0.27158  0.35214  1.0000
  C   C211      1.0  0.70586  0.26725  0.42885  1.0000
  C   C212      1.0  0.68607  0.24599  0.43782  1.0000
  H   H141      1.0  0.67717  0.24294  0.49626  1.0000
  C   C213      1.0  0.74163  0.29180  0.34023  1.0000
  C   C214      1.0  0.78407  0.33328  0.31847  1.0000
  C   C215      1.0  0.77664  0.32305  0.40476  1.0000
  C   C216      1.0  0.75665  0.30199  0.41276  1.0000
  H   H142      1.0  0.75237  0.29473  0.47506  1.0000
  N   N41       1.0  0.78828  0.33424  0.48435  1.0000
  N   N42       1.0  0.70949  0.28304  0.49236  1.0000
  H   H143      1.0  0.69887  0.27982  0.54124  1.0000
  H   H144      1.0  0.71998  0.29882  0.48146  1.0000
  O   O35       1.0  0.77642  0.33874  0.53510  1.0000
  O   O36       1.0  0.79493  0.32300  0.52803  1.0000
