data_image0
_chemical_formula_structural       C16H16C16H16C16H16C3O2H2NC3O2H2NC3O2H2NC3O2H2NC3O2H2NC3O2H2NC3NC3NC5NC5NC36H26C4H4C3NC3NC5NC5NC36H26C4H4C3NC3NC5NC5NC36H26C4H4C3OHOHNC3OHOHNC3OHOHNC3OHOHNC3OHOHNC3OHOHN
_chemical_formula_sum              "C252 H162 O24 N24"
_cell_length_a       67.6313
_cell_length_b       67.6313
_cell_length_c       14.8324
_cell_angle_alpha    89.717
_cell_angle_beta     90.283
_cell_angle_gamma    120

_space_group_name_H-M_alt    "P 1"
_space_group_IT_number       1

loop_
  _space_group_symop_operation_xyz
  'x, y, z'

loop_
  _atom_site_type_symbol
  _atom_site_label
  _atom_site_symmetry_multiplicity
  _atom_site_fract_x
  _atom_site_fract_y
  _atom_site_fract_z
  _atom_site_occupancy
  C   C1        1.0  0.13043  0.68353  0.28767  1.0000
  C   C2        1.0  0.11123  0.66140  0.28248  1.0000
  C   C3        1.0  0.16543  0.73397  0.32119  1.0000
  C   C4        1.0  0.18615  0.75495  0.32735  1.0000
  C   C5        1.0  0.13025  0.54199  0.28001  1.0000
  C   C6        1.0  0.11211  0.54660  0.27708  1.0000
  C   C7        1.0  0.19436  0.54065  0.32256  1.0000
  C   C8        1.0  0.17606  0.54503  0.31774  1.0000
  C   C9        1.0  0.96883  0.47427  0.28229  1.0000
  C   C10       1.0  0.94980  0.45204  0.28782  1.0000
  C   C11       1.0  0.89513  0.38016  0.32527  1.0000
  C   C12       1.0  0.91565  0.40130  0.31856  1.0000
  C   C13       1.0  0.96871  0.58853  0.27707  1.0000
  C   C14       1.0  0.95043  0.59291  0.28007  1.0000
  C   C15       1.0  0.90441  0.58918  0.31794  1.0000
  C   C16       1.0  0.88591  0.59324  0.32283  1.0000
  H   H1        1.0  0.87133  0.58269  0.28779  1.0000
  H   H2        1.0  0.90241  0.57561  0.28065  1.0000
  H   H3        1.0  0.94203  0.59195  0.22129  1.0000
  H   H4        1.0  0.97273  0.58403  0.21701  1.0000
  H   H5        1.0  0.97386  0.48193  0.22046  1.0000
  H   H6        1.0  0.94145  0.44431  0.22945  1.0000
  H   H7        1.0  0.10805  0.55124  0.21704  1.0000
  H   H8        1.0  0.13853  0.54296  0.22120  1.0000
  H   H9        1.0  0.17820  0.55875  0.28064  1.0000
  H   H10       1.0  0.20895  0.55114  0.28763  1.0000
  H   H11       1.0  0.10538  0.65421  0.22047  1.0000
  H   H12       1.0  0.13808  0.69166  0.22885  1.0000
  H   H13       1.0  0.18848  0.76804  0.28572  1.0000
  H   H14       1.0  0.15338  0.73267  0.27593  1.0000
  H   H15       1.0  0.92712  0.40317  0.26983  1.0000
  H   H16       1.0  0.89234  0.36755  0.28053  1.0000
  C   C17       1.0  0.42331  0.53912  0.29023  1.0000
  C   C18       1.0  0.44542  0.54201  0.28531  1.0000
  C   C19       1.0  0.37283  0.52356  0.32295  1.0000
  C   C20       1.0  0.35185  0.52328  0.32875  1.0000
  C   C21       1.0  0.56478  0.68045  0.28374  1.0000
  C   C22       1.0  0.56018  0.65771  0.28078  1.0000
  C   C23       1.0  0.56613  0.74582  0.32633  1.0000
  C   C24       1.0  0.56174  0.72314  0.32155  1.0000
  C   C25       1.0  0.63244  0.58675  0.28519  1.0000
  C   C26       1.0  0.65467  0.58993  0.29042  1.0000
  C   C27       1.0  0.72659  0.60709  0.32666  1.0000
  C   C28       1.0  0.70544  0.60647  0.32032  1.0000
  C   C29       1.0  0.51825  0.47238  0.28072  1.0000
  C   C30       1.0  0.51387  0.44971  0.28376  1.0000
  C   C31       1.0  0.51761  0.40735  0.32169  1.0000
  C   C32       1.0  0.51355  0.38477  0.32662  1.0000
  H   H17       1.0  0.52410  0.38082  0.29158  1.0000
  H   H18       1.0  0.53118  0.41900  0.28441  1.0000
  H   H19       1.0  0.51484  0.44239  0.22500  1.0000
  H   H20       1.0  0.52276  0.48102  0.22066  1.0000
  H   H21       1.0  0.62471  0.58418  0.22349  1.0000
  H   H22       1.0  0.66234  0.58940  0.23194  1.0000
  H   H23       1.0  0.55554  0.64916  0.22072  1.0000
  H   H24       1.0  0.56384  0.68790  0.22494  1.0000
  H   H25       1.0  0.54803  0.71165  0.28435  1.0000
  H   H26       1.0  0.55565  0.75000  0.29135  1.0000
  H   H27       1.0  0.45269  0.54356  0.22341  1.0000
  H   H28       1.0  0.41521  0.53876  0.23131  1.0000
  H   H29       1.0  0.33880  0.51265  0.28684  1.0000
  H   H30       1.0  0.37418  0.51294  0.27766  1.0000
  H   H31       1.0  0.70351  0.61614  0.27159  1.0000
  H   H32       1.0  0.73914  0.61697  0.28167  1.0000
  C   C33       1.0  0.56768  0.97635  0.29336  1.0000
  C   C34       1.0  0.56478  0.99557  0.28830  1.0000
  C   C35       1.0  0.58323  0.94137  0.32639  1.0000
  C   C36       1.0  0.58352  0.92066  0.33233  1.0000
  C   C37       1.0  0.42641  0.97661  0.28465  1.0000
  C   C38       1.0  0.44916  0.99475  0.28221  1.0000
  C   C39       1.0  0.36099  0.91245  0.32550  1.0000
  C   C40       1.0  0.38368  0.93076  0.32124  1.0000
  C   C41       1.0  0.52001  0.13790  0.28821  1.0000
  C   C42       1.0  0.51685  0.15694  0.29359  1.0000
  C   C43       1.0  0.49968  0.21159  0.33021  1.0000
  C   C44       1.0  0.50029  0.19108  0.32376  1.0000
  C   C45       1.0  0.63429  0.13797  0.28210  1.0000
  C   C46       1.0  0.65696  0.15626  0.28465  1.0000
  C   C47       1.0  0.69937  0.20232  0.32141  1.0000
  C   C48       1.0  0.72195  0.22083  0.32579  1.0000
  H   H33       1.0  0.72586  0.23536  0.29048  1.0000
  H   H34       1.0  0.68767  0.20428  0.28425  1.0000
  H   H35       1.0  0.66421  0.16460  0.22569  1.0000
  H   H36       1.0  0.62558  0.13389  0.22219  1.0000
  H   H37       1.0  0.52256  0.13288  0.22644  1.0000
  H   H38       1.0  0.51735  0.16527  0.23516  1.0000
  H   H39       1.0  0.45779  0.99888  0.22231  1.0000
  H   H40       1.0  0.41904  0.96841  0.22565  1.0000
  H   H41       1.0  0.39522  0.92867  0.28423  1.0000
  H   H42       1.0  0.35686  0.89791  0.29028  1.0000
  H   H43       1.0  0.56327  0.00143  0.22635  1.0000
  H   H44       1.0  0.56808  0.96875  0.23448  1.0000
  H   H45       1.0  0.59418  0.91835  0.29052  1.0000
  H   H46       1.0  0.59387  0.95344  0.28113  1.0000
  H   H47       1.0  0.49064  0.17960  0.27498  1.0000
  H   H48       1.0  0.48981  0.21438  0.28523  1.0000
  C   C49       1.0  0.29098  0.52687  0.35052  1.0000
  C   C50       1.0  0.28270  0.53168  0.27043  1.0000
  C   C51       1.0  0.26218  0.53246  0.27066  1.0000
  O   O1        1.0  0.29507  0.53681  0.19297  1.0000
  O   O2        1.0  0.25530  0.53815  0.19314  1.0000
  H   H49       1.0  0.28988  0.52220  0.16182  1.0000
  H   H50       1.0  0.24496  0.52367  0.16265  1.0000
  N   N1        1.0  0.31087  0.52705  0.34769  1.0000
  C   C52       1.0  0.57991  0.85615  0.35422  1.0000
  C   C53       1.0  0.57509  0.84323  0.27416  1.0000
  C   C54       1.0  0.57431  0.82193  0.27442  1.0000
  O   O3        1.0  0.56994  0.85061  0.19670  1.0000
  O   O4        1.0  0.56860  0.80951  0.19692  1.0000
  H   H51       1.0  0.58455  0.86011  0.16553  1.0000
  H   H52       1.0  0.58309  0.81372  0.16641  1.0000
  N   N2        1.0  0.57973  0.87587  0.35135  1.0000
  C   C55       1.0  0.25062  0.81582  0.35049  1.0000
  C   C56       1.0  0.26363  0.82421  0.27071  1.0000
  C   C57       1.0  0.28494  0.84473  0.27154  1.0000
  O   O5        1.0  0.25634  0.81195  0.19296  1.0000
  O   O6        1.0  0.29745  0.85171  0.19429  1.0000
  H   H53       1.0  0.24690  0.81718  0.16174  1.0000
  H   H54       1.0  0.29329  0.86211  0.16392  1.0000
  N   N3        1.0  0.23091  0.79593  0.34714  1.0000
  C   C58       1.0  0.78830  0.60520  0.35211  1.0000
  C   C59       1.0  0.79643  0.60040  0.27221  1.0000
  C   C60       1.0  0.81713  0.59996  0.27230  1.0000
  O   O7        1.0  0.78378  0.59495  0.19509  1.0000
  O   O8        1.0  0.82388  0.59428  0.19500  1.0000
  H   H55       1.0  0.78863  0.60947  0.16327  1.0000
  H   H56       1.0  0.83394  0.60875  0.16366  1.0000
  N   N4        1.0  0.76826  0.60474  0.34934  1.0000
  C   C61       1.0  0.50158  0.27513  0.35584  1.0000
  C   C62       1.0  0.50637  0.28824  0.27593  1.0000
  C   C63       1.0  0.50681  0.30938  0.27604  1.0000
  O   O9        1.0  0.51181  0.28121  0.19880  1.0000
  O   O10       1.0  0.51249  0.32199  0.19874  1.0000
  H   H57       1.0  0.49729  0.27161  0.16700  1.0000
  H   H58       1.0  0.49801  0.31764  0.16743  1.0000
  N   N5        1.0  0.50203  0.25557  0.35303  1.0000
  C   C64       1.0  0.83163  0.31845  0.35213  1.0000
  C   C65       1.0  0.81844  0.31019  0.27248  1.0000
  C   C66       1.0  0.79730  0.28949  0.27316  1.0000
  O   O11       1.0  0.82539  0.32273  0.19506  1.0000
  O   O12       1.0  0.78460  0.28262  0.19609  1.0000
  H   H59       1.0  0.83494  0.31782  0.16325  1.0000
  H   H60       1.0  0.78891  0.27251  0.16494  1.0000
  N   N6        1.0  0.85119  0.33848  0.34885  1.0000
  C   C67       1.0  0.02929  0.62434  0.35342  1.0000
  C   C68       1.0  0.05289  0.63597  0.35444  1.0000
  C   C69       1.0  0.06019  0.61996  0.35545  1.0000
  N   N7        1.0  0.04078  0.59929  0.35513  1.0000
  C   C70       1.0  0.02159  0.60093  0.35442  1.0000
  C   C71       1.0  0.99823  0.58335  0.35491  1.0000
  C   C72       1.0  0.99065  0.55959  0.35614  1.0000
  N   N8        1.0  0.00339  0.54928  0.35453  1.0000
  C   C73       1.0  0.99036  0.52626  0.35733  1.0000
  C   C74       1.0  0.96776  0.52150  0.36090  1.0000
  C   C75       1.0  0.96794  0.54198  0.36024  1.0000
  C   C76       1.0  0.99759  0.50980  0.35709  1.0000
  C   C77       1.0  0.02081  0.51518  0.35557  1.0000
  N   N9        1.0  0.04022  0.53585  0.35565  1.0000
  C   C78       1.0  0.05941  0.53420  0.35457  1.0000
  C   C79       1.0  0.05170  0.51080  0.35307  1.0000
  C   C80       1.0  0.02810  0.49917  0.35395  1.0000
  C   C81       1.0  0.08276  0.55177  0.35493  1.0000
  C   C82       1.0  0.09035  0.57554  0.35597  1.0000
  N   N10       1.0  0.07760  0.58584  0.35465  1.0000
  C   C83       1.0  0.09064  0.60886  0.35711  1.0000
  C   C84       1.0  0.11325  0.61361  0.35998  1.0000
  C   C85       1.0  0.11307  0.59314  0.35949  1.0000
  C   C86       1.0  0.08341  0.62533  0.35710  1.0000
  C   C87       1.0  0.10087  0.64880  0.36159  1.0000
  C   C88       1.0  0.10994  0.65898  0.44589  1.0000
  C   C89       1.0  0.12918  0.68102  0.45076  1.0000
  C   C90       1.0  0.14013  0.69364  0.37190  1.0000
  C   C91       1.0  0.16099  0.71520  0.37748  1.0000
  C   C92       1.0  0.20338  0.75796  0.38969  1.0000
  C   C93       1.0  0.19896  0.73913  0.44536  1.0000
  C   C94       1.0  0.17831  0.71827  0.43931  1.0000
  C   C95       1.0  0.09993  0.54531  0.35608  1.0000
  C   C96       1.0  0.10628  0.53922  0.43785  1.0000
  C   C97       1.0  0.12435  0.53451  0.44040  1.0000
  C   C98       1.0  0.13682  0.53589  0.36172  1.0000
  C   C99       1.0  0.15542  0.53135  0.36509  1.0000
  C   C100      1.0  0.15387  0.51299  0.41685  1.0000
  C   C101      1.0  0.17209  0.50856  0.42147  1.0000
  C   C102      1.0  0.19278  0.52229  0.37464  1.0000
  C   C103      1.0  0.98016  0.48631  0.36116  1.0000
  C   C104      1.0  0.94129  0.44122  0.37221  1.0000
  C   C105      1.0  0.95320  0.45331  0.45066  1.0000
  C   C106      1.0  0.97224  0.47548  0.44544  1.0000
  C   C107      1.0  0.92068  0.41947  0.37864  1.0000
  C   C108      1.0  0.90416  0.41559  0.44513  1.0000
  C   C109      1.0  0.88371  0.39456  0.45178  1.0000
  C   C110      1.0  0.87868  0.37636  0.39207  1.0000
  C   C111      1.0  0.98105  0.58978  0.35605  1.0000
  C   C112      1.0  0.97471  0.59563  0.43789  1.0000
  C   C113      1.0  0.95650  0.60012  0.44050  1.0000
  C   C114      1.0  0.94386  0.59874  0.36186  1.0000
  C   C115      1.0  0.92506  0.60296  0.36536  1.0000
  C   C116      1.0  0.88730  0.61137  0.37510  1.0000
  C   C117      1.0  0.90799  0.62522  0.42204  1.0000
  C   C118      1.0  0.92641  0.62110  0.41736  1.0000
  H   H61       1.0  0.90992  0.63859  0.46065  1.0000
  H   H62       1.0  0.94107  0.63184  0.45159  1.0000
  H   H63       1.0  0.95209  0.60370  0.50161  1.0000
  H   H64       1.0  0.98299  0.59617  0.49657  1.0000
  H   H65       1.0  0.01956  0.63200  0.35269  1.0000
  H   H66       1.0  0.06289  0.65334  0.35437  1.0000
  H   H67       1.0  0.04065  0.58503  0.35680  1.0000
  H   H68       1.0  0.04035  0.55010  0.35784  1.0000
  H   H69       1.0  0.95365  0.54347  0.36327  1.0000
  H   H70       1.0  0.95333  0.50584  0.36413  1.0000
  H   H71       1.0  0.97985  0.48393  0.50382  1.0000
  H   H72       1.0  0.94789  0.44618  0.51316  1.0000
  H   H73       1.0  0.01811  0.48180  0.35325  1.0000
  H   H74       1.0  0.06143  0.50313  0.35174  1.0000
  H   H75       1.0  0.12770  0.62928  0.36263  1.0000
  H   H76       1.0  0.12736  0.59165  0.36207  1.0000
  H   H77       1.0  0.09810  0.53862  0.49654  1.0000
  H   H78       1.0  0.12876  0.53073  0.50145  1.0000
  H   H79       1.0  0.17002  0.49504  0.45995  1.0000
  H   H80       1.0  0.13920  0.50232  0.45103  1.0000
  H   H81       1.0  0.17630  0.70511  0.47980  1.0000
  H   H82       1.0  0.21089  0.74030  0.49111  1.0000
  H   H83       1.0  0.13537  0.68764  0.51321  1.0000
  H   H84       1.0  0.10307  0.65010  0.50434  1.0000
  H   H85       1.0  0.90658  0.42830  0.48868  1.0000
  H   H86       1.0  0.87234  0.39282  0.50090  1.0000
  C   C119      1.0  0.22423  0.77830  0.39851  1.0000
  C   C120      1.0  0.21051  0.51738  0.38173  1.0000
  C   C121      1.0  0.85797  0.35588  0.40113  1.0000
  C   C122      1.0  0.86937  0.61598  0.38220  1.0000
  H   H87       1.0  0.23496  0.77906  0.44654  1.0000
  H   H88       1.0  0.87225  0.63005  0.41465  1.0000
  H   H89       1.0  0.84743  0.35482  0.45010  1.0000
  H   H90       1.0  0.20755  0.50330  0.41477  1.0000
  C   C123      1.0  0.48244  0.49699  0.35687  1.0000
  C   C124      1.0  0.47081  0.50895  0.35779  1.0000
  C   C125      1.0  0.48682  0.53226  0.35884  1.0000
  N   N11       1.0  0.50749  0.53352  0.35865  1.0000
  C   C126      1.0  0.50585  0.51269  0.35795  1.0000
  C   C127      1.0  0.52343  0.50692  0.35848  1.0000
  C   C128      1.0  0.54719  0.52310  0.35964  1.0000
  N   N12       1.0  0.55750  0.54615  0.35801  1.0000
  C   C129      1.0  0.58052  0.55613  0.36072  1.0000
  C   C130      1.0  0.58528  0.53829  0.36423  1.0000
  C   C131      1.0  0.56480  0.51799  0.36376  1.0000
  C   C132      1.0  0.59697  0.57982  0.36045  1.0000
  C   C133      1.0  0.59159  0.59766  0.35905  1.0000
  N   N13       1.0  0.57092  0.59640  0.35924  1.0000
  C   C134      1.0  0.57256  0.61724  0.35819  1.0000
  C   C135      1.0  0.59596  0.63294  0.35670  1.0000
  C   C136      1.0  0.60760  0.62097  0.35748  1.0000
  C   C137      1.0  0.55499  0.62301  0.35856  1.0000
  C   C138      1.0  0.53122  0.60684  0.35957  1.0000
  N   N14       1.0  0.52092  0.58379  0.35820  1.0000
  C   C139      1.0  0.49790  0.57379  0.36054  1.0000
  C   C140      1.0  0.49315  0.59165  0.36339  1.0000
  C   C141      1.0  0.51362  0.61195  0.36302  1.0000
  C   C142      1.0  0.48144  0.55010  0.36042  1.0000
  C   C143      1.0  0.45797  0.54408  0.36459  1.0000
  C   C144      1.0  0.44771  0.54272  0.44876  1.0000
  C   C145      1.0  0.42566  0.53991  0.45334  1.0000
  C   C146      1.0  0.41310  0.53844  0.37432  1.0000
  C   C147      1.0  0.39154  0.53772  0.37959  1.0000
  C   C148      1.0  0.34876  0.53732  0.39108  1.0000
  C   C149      1.0  0.36753  0.55156  0.44716  1.0000
  C   C150      1.0  0.38839  0.55179  0.44143  1.0000
  C   C151      1.0  0.56145  0.64664  0.35977  1.0000
  C   C152      1.0  0.56753  0.65890  0.44157  1.0000
  C   C153      1.0  0.57224  0.68166  0.44415  1.0000
  C   C154      1.0  0.57088  0.69294  0.36548  1.0000
  C   C155      1.0  0.57542  0.71607  0.36888  1.0000
  C   C156      1.0  0.59377  0.73277  0.42069  1.0000
  C   C157      1.0  0.59821  0.75542  0.42529  1.0000
  C   C158      1.0  0.58448  0.76247  0.37844  1.0000
  C   C159      1.0  0.62046  0.58587  0.36425  1.0000
  C   C160      1.0  0.66558  0.59212  0.37465  1.0000
  C   C161      1.0  0.65356  0.59180  0.45327  1.0000
  C   C162      1.0  0.63138  0.58867  0.44838  1.0000
  C   C163      1.0  0.68734  0.59325  0.38074  1.0000
  C   C164      1.0  0.69130  0.58051  0.44720  1.0000
  C   C165      1.0  0.71233  0.58108  0.45349  1.0000
  C   C166      1.0  0.73047  0.59435  0.39344  1.0000
  C   C167      1.0  0.51700  0.48330  0.35968  1.0000
  C   C168      1.0  0.51115  0.47094  0.44153  1.0000
  C   C169      1.0  0.50668  0.44825  0.44419  1.0000
  C   C170      1.0  0.50805  0.43714  0.36556  1.0000
  C   C171      1.0  0.50383  0.41411  0.36910  1.0000
  C   C172      1.0  0.49542  0.36792  0.37890  1.0000
  C   C173      1.0  0.48157  0.37467  0.42582  1.0000
  C   C174      1.0  0.48569  0.39721  0.42109  1.0000
  H   H91       1.0  0.46820  0.36315  0.46444  1.0000
  H   H92       1.0  0.47495  0.40106  0.45533  1.0000
  H   H93       1.0  0.50308  0.44012  0.50529  1.0000
  H   H94       1.0  0.51061  0.47856  0.50020  1.0000
  H   H95       1.0  0.47478  0.47959  0.35613  1.0000
  H   H96       1.0  0.45343  0.50157  0.35764  1.0000
  H   H97       1.0  0.52174  0.54764  0.36037  1.0000
  H   H98       1.0  0.55667  0.58228  0.36128  1.0000
  H   H99       1.0  0.56332  0.50221  0.36681  1.0000
  H   H100      1.0  0.60094  0.53952  0.36757  1.0000
  H   H101      1.0  0.62297  0.58771  0.50689  1.0000
  H   H102      1.0  0.66075  0.59351  0.51566  1.0000
  H   H103      1.0  0.62497  0.62836  0.35671  1.0000
  H   H104      1.0  0.60363  0.65034  0.35536  1.0000
  H   H105      1.0  0.47748  0.59042  0.36594  1.0000
  H   H106      1.0  0.51511  0.62772  0.36556  1.0000
  H   H107      1.0  0.56814  0.65118  0.50023  1.0000
  H   H108      1.0  0.57604  0.68973  0.50520  1.0000
  H   H109      1.0  0.61173  0.76678  0.46378  1.0000
  H   H110      1.0  0.60444  0.72870  0.45484  1.0000
  H   H111      1.0  0.40151  0.56282  0.48219  1.0000
  H   H112      1.0  0.36631  0.56219  0.49291  1.0000
  H   H113      1.0  0.41899  0.53932  0.51570  1.0000
  H   H114      1.0  0.45656  0.54462  0.50732  1.0000
  H   H115      1.0  0.67864  0.57017  0.49101  1.0000
  H   H116      1.0  0.71414  0.57139  0.50261  1.0000
  C   C175      1.0  0.32842  0.53781  0.39952  1.0000
  C   C176      1.0  0.58941  0.78511  0.38551  1.0000
  C   C177      1.0  0.75095  0.59409  0.40212  1.0000
  C   C178      1.0  0.49080  0.34537  0.38601  1.0000
  H   H117      1.0  0.32759  0.54764  0.44756  1.0000
  H   H118      1.0  0.47675  0.33412  0.41852  1.0000
  H   H119      1.0  0.75209  0.58458  0.45118  1.0000
  H   H120      1.0  0.60349  0.79615  0.41852  1.0000
  C   C179      1.0  0.60978  0.07747  0.35934  1.0000
  C   C180      1.0  0.59782  0.05388  0.36046  1.0000
  C   C181      1.0  0.57451  0.04657  0.36154  1.0000
  N   N15       1.0  0.57325  0.06598  0.36122  1.0000
  C   C182      1.0  0.59408  0.08518  0.36031  1.0000
  C   C183      1.0  0.59985  0.10853  0.36059  1.0000
  C   C184      1.0  0.58367  0.11611  0.36190  1.0000
  N   N16       1.0  0.56062  0.10337  0.36045  1.0000
  C   C185      1.0  0.55063  0.11640  0.36332  1.0000
  C   C186      1.0  0.56849  0.13900  0.36678  1.0000
  C   C187      1.0  0.58879  0.13882  0.36597  1.0000
  C   C188      1.0  0.52695  0.10916  0.36320  1.0000
  C   C189      1.0  0.50911  0.08595  0.36164  1.0000
  N   N17       1.0  0.51037  0.06654  0.36173  1.0000
  C   C190      1.0  0.48953  0.04735  0.36050  1.0000
  C   C191      1.0  0.47384  0.05506  0.35894  1.0000
  C   C192      1.0  0.48580  0.07865  0.35994  1.0000
  C   C193      1.0  0.48376  0.02400  0.36078  1.0000
  C   C194      1.0  0.49993  0.01641  0.36194  1.0000
  N   N18       1.0  0.52299  0.02916  0.36074  1.0000
  C   C195      1.0  0.53298  0.01612  0.36318  1.0000
  C   C196      1.0  0.51512  0.99351  0.36594  1.0000
  C   C197      1.0  0.49482  0.99369  0.36535  1.0000
  C   C198      1.0  0.55667  0.02335  0.36316  1.0000
  C   C199      1.0  0.56269  0.00589  0.36750  1.0000
  C   C200      1.0  0.56402  0.99682  0.45174  1.0000
  C   C201      1.0  0.56684  0.97758  0.45646  1.0000
  C   C202      1.0  0.56833  0.96665  0.37751  1.0000
  C   C203      1.0  0.56906  0.94580  0.38293  1.0000
  C   C204      1.0  0.56948  0.90342  0.39468  1.0000
  C   C205      1.0  0.55522  0.90782  0.45063  1.0000
  C   C206      1.0  0.55499  0.92846  0.44478  1.0000
  C   C207      1.0  0.46013  0.00683  0.36150  1.0000
  C   C208      1.0  0.44777  0.00038  0.44306  1.0000
  C   C209      1.0  0.42500  0.98232  0.44510  1.0000
  C   C210      1.0  0.41383  0.96994  0.36614  1.0000
  C   C211      1.0  0.39069  0.95133  0.36899  1.0000
  C   C212      1.0  0.37393  0.95282  0.42059  1.0000
  C   C213      1.0  0.35127  0.93460  0.42465  1.0000
  C   C214      1.0  0.34428  0.91398  0.37740  1.0000
  C   C215      1.0  0.52090  0.12660  0.36716  1.0000
  C   C216      1.0  0.51467  0.16545  0.37790  1.0000
  C   C217      1.0  0.51500  0.15356  0.45643  1.0000
  C   C218      1.0  0.51814  0.13453  0.45136  1.0000
  C   C219      1.0  0.51352  0.18606  0.38414  1.0000
  C   C220      1.0  0.52624  0.20259  0.45068  1.0000
  C   C221      1.0  0.52568  0.22304  0.45707  1.0000
  C   C222      1.0  0.51241  0.22806  0.39705  1.0000
  C   C223      1.0  0.62347  0.12572  0.36135  1.0000
  C   C224      1.0  0.63592  0.13215  0.44297  1.0000
  C   C225      1.0  0.65862  0.15036  0.44513  1.0000
  C   C226      1.0  0.66963  0.16292  0.36622  1.0000
  C   C227      1.0  0.69266  0.18173  0.36921  1.0000
  C   C228      1.0  0.73886  0.21950  0.37788  1.0000
  C   C229      1.0  0.73218  0.19887  0.42520  1.0000
  C   C230      1.0  0.70962  0.18044  0.42103  1.0000
  H   H121      1.0  0.74374  0.19698  0.46371  1.0000
  H   H122      1.0  0.70581  0.16583  0.45553  1.0000
  H   H123      1.0  0.66681  0.15485  0.50609  1.0000
  H   H124      1.0  0.62837  0.12394  0.50184  1.0000
  H   H125      1.0  0.62718  0.08721  0.35844  1.0000
  H   H126      1.0  0.60520  0.04388  0.36033  1.0000
  H   H127      1.0  0.55913  0.06611  0.36273  1.0000
  H   H128      1.0  0.52449  0.06641  0.36401  1.0000
  H   H129      1.0  0.60457  0.15311  0.36910  1.0000
  H   H130      1.0  0.56726  0.15343  0.37024  1.0000
  H   H131      1.0  0.51909  0.12693  0.50980  1.0000
  H   H132      1.0  0.51329  0.15888  0.51887  1.0000
  H   H133      1.0  0.47842  0.08865  0.35922  1.0000
  H   H134      1.0  0.45644  0.04532  0.35754  1.0000
  H   H135      1.0  0.51634  0.97906  0.36845  1.0000
  H   H136      1.0  0.47904  0.97939  0.36775  1.0000
  H   H137      1.0  0.45542  0.00850  0.50192  1.0000
  H   H138      1.0  0.41686  0.97782  0.50601  1.0000
  H   H139      1.0  0.33986  0.93662  0.46302  1.0000
  H   H140      1.0  0.37796  0.96744  0.45504  1.0000
  H   H141      1.0  0.54394  0.93046  0.48547  1.0000
  H   H142      1.0  0.54459  0.89587  0.49639  1.0000
  H   H143      1.0  0.56740  0.97137  0.51887  1.0000
  H   H144      1.0  0.56210  0.00365  0.51024  1.0000
  H   H145      1.0  0.53661  0.20018  0.49441  1.0000
  H   H146      1.0  0.53537  0.23442  0.50619  1.0000
  C   C231      1.0  0.56900  0.88257  0.40326  1.0000
  C   C232      1.0  0.32163  0.89624  0.38394  1.0000
  C   C233      1.0  0.51267  0.24877  0.40579  1.0000
  C   C234      1.0  0.76143  0.23743  0.38444  1.0000
  H   H147      1.0  0.55920  0.87184  0.45140  1.0000
  H   H148      1.0  0.77271  0.23460  0.41691  1.0000
  H   H149      1.0  0.52219  0.25931  0.45488  1.0000
  H   H150      1.0  0.31055  0.89916  0.41692  1.0000
  C   C235      1.0  0.24917  0.52785  0.35038  1.0000
  C   C236      1.0  0.25726  0.52265  0.43041  1.0000
  C   C237      1.0  0.27786  0.52201  0.43032  1.0000
  O   O13       1.0  0.28468  0.51594  0.50713  1.0000
  H   H151      1.0  0.29060  0.52912  0.54806  1.0000
  O   O14       1.0  0.24555  0.51836  0.50925  1.0000
  H   H152      1.0  0.25013  0.53334  0.53605  1.0000
  N   N19       1.0  0.23053  0.52999  0.34789  1.0000
  C   C238      1.0  0.57893  0.81336  0.35414  1.0000
  C   C239      1.0  0.58414  0.82648  0.43414  1.0000
  C   C240      1.0  0.58478  0.84773  0.43403  1.0000
  O   O15       1.0  0.59087  0.86046  0.51081  1.0000
  H   H153      1.0  0.57769  0.85312  0.55179  1.0000
  O   O16       1.0  0.58845  0.81891  0.51298  1.0000
  H   H154      1.0  0.57347  0.80846  0.53983  1.0000
  N   N20       1.0  0.57679  0.79259  0.35168  1.0000
  C   C241      1.0  0.29341  0.85763  0.35157  1.0000
  C   C242      1.0  0.28018  0.84943  0.43130  1.0000
  C   C243      1.0  0.25894  0.82882  0.43061  1.0000
  O   O17       1.0  0.24612  0.82189  0.50714  1.0000
  H   H155      1.0  0.25341  0.81590  0.54805  1.0000
  O   O18       1.0  0.28767  0.86103  0.51042  1.0000
  H   H156      1.0  0.29808  0.85640  0.53729  1.0000
  N   N21       1.0  0.31418  0.87626  0.34965  1.0000
  C   C244      1.0  0.83047  0.60492  0.35166  1.0000
  C   C245      1.0  0.82251  0.61011  0.43149  1.0000
  C   C246      1.0  0.80173  0.61040  0.43155  1.0000
  O   O19       1.0  0.79505  0.61650  0.50809  1.0000
  H   H157      1.0  0.78947  0.60344  0.54983  1.0000
  O   O20       1.0  0.83454  0.61473  0.50999  1.0000
  H   H158      1.0  0.83026  0.59986  0.53763  1.0000
  N   N22       1.0  0.84928  0.60310  0.34909  1.0000
  C   C247      1.0  0.50186  0.31759  0.35542  1.0000
  C   C248      1.0  0.49668  0.30427  0.43524  1.0000
  C   C249      1.0  0.49638  0.28319  0.43529  1.0000
  O   O21       1.0  0.49029  0.27025  0.51182  1.0000
  H   H159      1.0  0.50336  0.27764  0.55355  1.0000
  O   O22       1.0  0.49206  0.31150  0.51376  1.0000
  H   H160      1.0  0.50693  0.32203  0.54139  1.0000
  N   N23       1.0  0.50368  0.33822  0.35286  1.0000
  C   C250      1.0  0.78918  0.27628  0.35286  1.0000
  C   C251      1.0  0.80258  0.28436  0.43242  1.0000
  C   C252      1.0  0.82367  0.30514  0.43190  1.0000
  O   O23       1.0  0.83669  0.31194  0.50820  1.0000
  H   H161      1.0  0.82935  0.31760  0.54985  1.0000
  O   O24       1.0  0.79544  0.27246  0.51123  1.0000
  H   H162      1.0  0.78494  0.27679  0.53885  1.0000
  N   N24       1.0  0.76854  0.25747  0.35083  1.0000
