data_image0
_chemical_formula_structural       C6H6N2C6H6N2C3HNO2CHC3HNO2CHC3HNO2CHC12H5CNC2NHN2C12H5CNC2NHN2C3HNO2CHC3HNO2CHC3HNO2CH
_chemical_formula_sum              "C66 H36 N18 O12"
_cell_length_a       37.0775
_cell_length_b       37.0775
_cell_length_c       14.7121
_cell_angle_alpha    90
_cell_angle_beta     90
_cell_angle_gamma    120

_space_group_name_H-M_alt    "P 1"
_space_group_IT_number       1

loop_
  _space_group_symop_operation_xyz
  'x, y, z'

loop_
  _atom_site_type_symbol
  _atom_site_label
  _atom_site_symmetry_multiplicity
  _atom_site_fract_x
  _atom_site_fract_y
  _atom_site_fract_z
  _atom_site_occupancy
  C   C1        1.0  0.39029  0.76409  0.35606  1.0000
  C   C2        1.0  0.19273  0.62846  0.34465  1.0000
  C   C3        1.0  0.23660  0.65105  0.34329  1.0000
  C   C4        1.0  0.36892  0.78637  0.37086  1.0000
  C   C5        1.0  0.39026  0.83026  0.37324  1.0000
  C   C6        1.0  0.43366  0.85362  0.35911  1.0000
  H   H1        1.0  0.17688  0.64423  0.33632  1.0000
  H   H2        1.0  0.25096  0.68249  0.33264  1.0000
  H   H3        1.0  0.33744  0.77088  0.38144  1.0000
  H   H4        1.0  0.37371  0.84513  0.38481  1.0000
  H   H5        1.0  0.38022  0.53754  0.33628  1.0000
  H   H6        1.0  0.34197  0.57337  0.33262  1.0000
  N   N1        1.0  0.32642  0.69656  0.35526  1.0000
  N   N2        1.0  0.45218  0.89509  0.36360  1.0000
  C   C7        1.0  0.63946  0.25545  0.35286  1.0000
  C   C8        1.0  0.83681  0.39170  0.36029  1.0000
  C   C9        1.0  0.79295  0.36891  0.36120  1.0000
  C   C10       1.0  0.66128  0.23332  0.34318  1.0000
  C   C11       1.0  0.64019  0.18943  0.34165  1.0000
  C   C12       1.0  0.59652  0.16587  0.35103  1.0000
  H   H7        1.0  0.85266  0.37580  0.36511  1.0000
  H   H8        1.0  0.77872  0.33726  0.36794  1.0000
  H   H9        1.0  0.69297  0.24891  0.33610  1.0000
  H   H10       1.0  0.65712  0.17470  0.33383  1.0000
  H   H11       1.0  0.64867  0.48176  0.36515  1.0000
  H   H12       1.0  0.68720  0.44636  0.36793  1.0000
  N   N3        1.0  0.70312  0.32321  0.35331  1.0000
  N   N4        1.0  0.57854  0.12441  0.34705  1.0000
  C   C13       1.0  0.48629  0.52535  0.33731  1.0000
  C   C14       1.0  0.49932  0.51078  0.26263  1.0000
  C   C15       1.0  0.52742  0.49566  0.27312  1.0000
  H   H13       1.0  0.48881  0.51171  0.19874  1.0000
  N   N5        1.0  0.54108  0.48262  0.19631  1.0000
  O   O1        1.0  0.51116  0.45268  0.15620  1.0000
  O   O2        1.0  0.56007  0.51180  0.14046  1.0000
  C   C16       1.0  0.45813  0.53927  0.32440  1.0000
  H   H14       1.0  0.43503  0.52409  0.28027  1.0000
  C   C17       1.0  0.49910  0.96583  0.33733  1.0000
  C   C18       1.0  0.51366  0.99342  0.26263  1.0000
  C   C19       1.0  0.52880  0.03664  0.27309  1.0000
  H   H15       1.0  0.51274  0.98197  0.19875  1.0000
  N   N6        1.0  0.54182  0.06333  0.19625  1.0000
  O   O3        1.0  0.57175  0.06333  0.15613  1.0000
  O   O4        1.0  0.51263  0.05313  0.14043  1.0000
  C   C20       1.0  0.48520  0.92375  0.32446  1.0000
  H   H16       1.0  0.50038  0.91582  0.28037  1.0000
  C   C21       1.0  0.05862  0.53816  0.33730  1.0000
  C   C22       1.0  0.03103  0.52514  0.26261  1.0000
  C   C23       1.0  0.98781  0.49704  0.27308  1.0000
  H   H17       1.0  0.04248  0.53564  0.19872  1.0000
  N   N7        1.0  0.96112  0.48337  0.19625  1.0000
  O   O5        1.0  0.96112  0.51329  0.15611  1.0000
  O   O6        1.0  0.97131  0.46437  0.14044  1.0000
  C   C24       1.0  0.10070  0.56632  0.32440  1.0000
  H   H18       1.0  0.10864  0.58943  0.28027  1.0000
  C   C25       1.0  0.26036  0.63109  0.35606  1.0000
  C   C26       1.0  0.39337  0.63416  0.35605  1.0000
  C   C27       1.0  0.23808  0.58744  0.37084  1.0000
  C   C28       1.0  0.19420  0.56488  0.37321  1.0000
  C   C29       1.0  0.17084  0.58492  0.35904  1.0000
  C   C30       1.0  0.45531  0.83173  0.34465  1.0000
  C   C31       1.0  0.43402  0.78786  0.34330  1.0000
  C   C32       1.0  0.43702  0.65554  0.37083  1.0000
  C   C33       1.0  0.45957  0.63420  0.37321  1.0000
  C   C34       1.0  0.43953  0.59081  0.35900  1.0000
  C   C35       1.0  0.39599  0.56915  0.34463  1.0000
  C   C36       1.0  0.37341  0.59044  0.34327  1.0000
  H   H19       1.0  0.17933  0.53346  0.38480  1.0000
  H   H20       1.0  0.45109  0.77349  0.33264  1.0000
  H   H21       1.0  0.48692  0.84757  0.33636  1.0000
  H   H22       1.0  0.45300  0.68702  0.38149  1.0000
  H   H23       1.0  0.49099  0.65075  0.38481  1.0000
  C   C37       1.0  0.37031  0.65568  0.35518  1.0000
  N   N8        1.0  0.38971  0.69804  0.35525  1.0000
  C   C38       1.0  0.36878  0.71952  0.35518  1.0000
  C   C39       1.0  0.30494  0.65414  0.35519  1.0000
  N   N9        1.0  0.32789  0.63474  0.35525  1.0000
  H   H24       1.0  0.25358  0.57145  0.38147  1.0000
  N   N10       1.0  0.46248  0.57228  0.36356  1.0000
  N   N11       1.0  0.12937  0.56198  0.36356  1.0000
  C   C40       1.0  0.76901  0.38891  0.35288  1.0000
  C   C41       1.0  0.63555  0.38499  0.35288  1.0000
  C   C42       1.0  0.79114  0.43286  0.34321  1.0000
  C   C43       1.0  0.83503  0.45566  0.34166  1.0000
  C   C44       1.0  0.85859  0.43555  0.35105  1.0000
  C   C45       1.0  0.57444  0.18765  0.36029  1.0000
  C   C46       1.0  0.59552  0.23151  0.36119  1.0000
  C   C47       1.0  0.59159  0.36318  0.34322  1.0000
  C   C48       1.0  0.56880  0.38427  0.34170  1.0000
  C   C49       1.0  0.58891  0.42794  0.35115  1.0000
  C   C50       1.0  0.63277  0.45001  0.36031  1.0000
  C   C51       1.0  0.65555  0.42894  0.36121  1.0000
  H   H25       1.0  0.84976  0.48732  0.33384  1.0000
  H   H26       1.0  0.57810  0.24574  0.36795  1.0000
  H   H27       1.0  0.54270  0.17180  0.36511  1.0000
  H   H28       1.0  0.57551  0.33149  0.33610  1.0000
  H   H29       1.0  0.53714  0.36734  0.33388  1.0000
  C   C52       1.0  0.65883  0.36369  0.35334  1.0000
  N   N12       1.0  0.63965  0.32134  0.35331  1.0000
  C   C53       1.0  0.66077  0.30004  0.35334  1.0000
  C   C54       1.0  0.72442  0.36563  0.35334  1.0000
  N   N13       1.0  0.70125  0.38481  0.35331  1.0000
  H   H30       1.0  0.77555  0.44895  0.33611  1.0000
  N   N14       1.0  0.56544  0.44592  0.34712  1.0000
  N   N15       1.0  0.90005  0.45903  0.34706  1.0000
  C   C55       1.0  0.54242  0.49417  0.36123  1.0000
  C   C56       1.0  0.52911  0.50820  0.43735  1.0000
  C   C57       1.0  0.50131  0.52356  0.42440  1.0000
  H   H31       1.0  0.49169  0.53320  0.47990  1.0000
  N   N16       1.0  0.54331  0.50615  0.52573  1.0000
  O   O7        1.0  0.51365  0.48277  0.57716  1.0000
  O   O8        1.0  0.56318  0.54156  0.56168  1.0000
  C   C58       1.0  0.57200  0.48189  0.37294  1.0000
  H   H32       1.0  0.59844  0.50148  0.40418  1.0000
  C   C59       1.0  0.53030  0.05314  0.36118  1.0000
  C   C60       1.0  0.51627  0.02581  0.43732  1.0000
  C   C61       1.0  0.50090  0.98265  0.42441  1.0000
  H   H33       1.0  0.49128  0.96340  0.47992  1.0000
  N   N17       1.0  0.51833  0.04208  0.52569  1.0000
  O   O9        1.0  0.54171  0.03580  0.57712  1.0000
  O   O10       1.0  0.48292  0.02656  0.56165  1.0000
  C   C62       1.0  0.54257  0.09500  0.37286  1.0000
  H   H34       1.0  0.52296  0.10185  0.40403  1.0000
  C   C63       1.0  0.97131  0.48205  0.36119  1.0000
  C   C64       1.0  0.99865  0.49536  0.43731  1.0000
  C   C65       1.0  0.04181  0.52314  0.42438  1.0000
  H   H35       1.0  0.06106  0.53277  0.47990  1.0000
  N   N18       1.0  0.98239  0.48117  0.52569  1.0000
  O   O11       1.0  0.98868  0.51083  0.57711  1.0000
  O   O12       1.0  0.99791  0.46128  0.56166  1.0000
  C   C66       1.0  0.92946  0.45247  0.37288  1.0000
  H   H36       1.0  0.92261  0.42602  0.40407  1.0000
