data_image0
_chemical_formula_structural       C8H12C3NC2NH2NHC3NC2NH2NHC3NC3NC5NC5NC20H18CHCHCHCHC3H2ONHC3H2ONH
_chemical_formula_sum              "C64 H46 N12 O2"
_cell_length_a       25.3216
_cell_length_b       25.3232
_cell_length_c       15.0078
_cell_angle_alpha    90
_cell_angle_beta     90
_cell_angle_gamma    90.0376

_space_group_name_H-M_alt    "P 1"
_space_group_IT_number       1

loop_
  _space_group_symop_operation_xyz
  'x, y, z'

loop_
  _atom_site_type_symbol
  _atom_site_label
  _atom_site_symmetry_multiplicity
  _atom_site_fract_x
  _atom_site_fract_y
  _atom_site_fract_z
  _atom_site_occupancy
  C   C1        1.0  0.71871  0.96704  0.28519  1.0000
  C   C2        1.0  0.77364  0.97367  0.27668  1.0000
  C   C3        1.0  0.96643  0.27935  0.28692  1.0000
  C   C4        1.0  0.97260  0.22440  0.27805  1.0000
  C   C5        1.0  0.21466  0.03659  0.23796  1.0000
  C   C6        1.0  0.26956  0.04369  0.23083  1.0000
  C   C7        1.0  0.03310  0.78328  0.23484  1.0000
  C   C8        1.0  0.03987  0.72837  0.22721  1.0000
  H   H1        1.0  0.04715  0.71260  0.16567  1.0000
  H   H2        1.0  0.03589  0.80624  0.17888  1.0000
  H   H3        1.0  0.19168  0.04074  0.18226  1.0000
  H   H4        1.0  0.28530  0.05266  0.16989  1.0000
  H   H5        1.0  0.97568  0.20831  0.21568  1.0000
  H   H6        1.0  0.96517  0.30219  0.23069  1.0000
  H   H7        1.0  0.78977  0.97777  0.21451  1.0000
  H   H8        1.0  0.69591  0.96646  0.22887  1.0000
  H   H9        1.0  0.92203  0.37314  0.34055  1.0000
  H   H10       1.0  0.62472  0.92208  0.33712  1.0000
  H   H11       1.0  0.05660  0.62633  0.22934  1.0000
  H   H12       1.0  0.37180  0.05925  0.23348  1.0000
  C   C9        1.0  0.99329  0.55460  0.31638  1.0000
  C   C10       1.0  0.99759  0.52153  0.24000  1.0000
  C   C11       1.0  0.00153  0.46586  0.25225  1.0000
  N   N1        1.0  0.00604  0.43440  0.17923  1.0000
  C   C12       1.0  0.00685  0.45343  0.09498  1.0000
  C   C13       1.0  0.00238  0.50812  0.08199  1.0000
  N   N2        1.0  0.99778  0.54027  0.15427  1.0000
  H   H13       1.0  0.01020  0.42814  0.04226  1.0000
  H   H14       1.0  0.99401  0.57785  0.14282  1.0000
  N   N3        1.0  0.99088  0.61038  0.31352  1.0000
  H   H15       1.0  0.96171  0.62242  0.27054  1.0000
  C   C14       1.0  0.44330  0.99447  0.31723  1.0000
  C   C15       1.0  0.47612  0.99921  0.24061  1.0000
  C   C16       1.0  0.53187  0.00266  0.25235  1.0000
  N   N4        1.0  0.56310  0.00749  0.17911  1.0000
  C   C17       1.0  0.54378  0.00906  0.09508  1.0000
  C   C18       1.0  0.48899  0.00511  0.08258  1.0000
  N   N5        1.0  0.45706  0.00023  0.15509  1.0000
  H   H16       1.0  0.56890  0.01263  0.04218  1.0000
  H   H17       1.0  0.41939  0.99691  0.14399  1.0000
  N   N6        1.0  0.38750  0.99228  0.31485  1.0000
  H   H18       1.0  0.37515  0.96365  0.27107  1.0000
  C   C19       1.0  0.91810  0.85163  0.32962  1.0000
  C   C20       1.0  0.87520  0.88501  0.33554  1.0000
  C   C21       1.0  0.89389  0.93688  0.33991  1.0000
  N   N7        1.0  0.94725  0.93299  0.33713  1.0000
  C   C22       1.0  0.96402  0.88229  0.33101  1.0000
  C   C23       1.0  0.01636  0.86212  0.32609  1.0000
  C   C24       1.0  0.06289  0.89341  0.32541  1.0000
  N   N8        1.0  0.06650  0.94659  0.32877  1.0000
  C   C25       1.0  0.11717  0.96320  0.32552  1.0000
  C   C26       1.0  0.14812  0.91768  0.31995  1.0000
  C   C27       1.0  0.11468  0.87465  0.32052  1.0000
  C   C28       1.0  0.13602  0.01598  0.32719  1.0000
  C   C29       1.0  0.10357  0.06167  0.33308  1.0000
  N   N9        1.0  0.05020  0.06554  0.33478  1.0000
  C   C30       1.0  0.03341  0.11618  0.34175  1.0000
  C   C31       1.0  0.07928  0.14687  0.34450  1.0000
  C   C32       1.0  0.12222  0.11350  0.33919  1.0000
  C   C33       1.0  0.98107  0.13635  0.34608  1.0000
  C   C34       1.0  0.93451  0.10515  0.34613  1.0000
  N   N10       1.0  0.93095  0.05196  0.34330  1.0000
  C   C35       1.0  0.88029  0.03539  0.34645  1.0000
  C   C36       1.0  0.84929  0.08092  0.35114  1.0000
  C   C37       1.0  0.88274  0.12395  0.35073  1.0000
  C   C38       1.0  0.86150  0.98260  0.34559  1.0000
  C   C39       1.0  0.80603  0.97505  0.35322  1.0000
  C   C40       1.0  0.78270  0.96949  0.43817  1.0000
  C   C41       1.0  0.72781  0.96273  0.44644  1.0000
  C   C42       1.0  0.69510  0.96158  0.37011  1.0000
  C   C43       1.0  0.97469  0.19193  0.35443  1.0000
  C   C44       1.0  0.97036  0.21519  0.43962  1.0000
  C   C45       1.0  0.96401  0.27011  0.44827  1.0000
  C   C46       1.0  0.96203  0.30288  0.37207  1.0000
  C   C47       1.0  0.19158  0.02360  0.32078  1.0000
  C   C48       1.0  0.30258  0.03762  0.30610  1.0000
  C   C49       1.0  0.27929  0.02461  0.38888  1.0000
  C   C50       1.0  0.22432  0.01785  0.39635  1.0000
  C   C51       1.0  0.02277  0.80644  0.31865  1.0000
  C   C52       1.0  0.01897  0.77371  0.39459  1.0000
  C   C53       1.0  0.02519  0.71872  0.38661  1.0000
  C   C54       1.0  0.03593  0.69540  0.30295  1.0000
  H   H19       1.0  0.02202  0.69573  0.44244  1.0000
  H   H20       1.0  0.01144  0.78966  0.45597  1.0000
  H   H21       1.0  0.91544  0.81145  0.32482  1.0000
  H   H22       1.0  0.83673  0.87274  0.33548  1.0000
  H   H23       1.0  0.97059  0.96282  0.34022  1.0000
  H   H24       1.0  0.02686  0.03579  0.32983  1.0000
  H   H25       1.0  0.12680  0.83621  0.31717  1.0000
  H   H26       1.0  0.18836  0.91543  0.31628  1.0000
  H   H27       1.0  0.20841  0.00834  0.45698  1.0000
  H   H28       1.0  0.30232  0.01986  0.44435  1.0000
  H   H29       1.0  0.16068  0.12576  0.34062  1.0000
  H   H30       1.0  0.08186  0.18702  0.35012  1.0000
  H   H31       1.0  0.80903  0.08312  0.35449  1.0000
  H   H32       1.0  0.87068  0.16242  0.35406  1.0000
  H   H33       1.0  0.97188  0.19234  0.49585  1.0000
  H   H34       1.0  0.96123  0.28600  0.51076  1.0000
  H   H35       1.0  0.71185  0.95927  0.50879  1.0000
  H   H36       1.0  0.80547  0.97061  0.49453  1.0000
  C   C55       1.0  0.95618  0.36103  0.38029  1.0000
  H   H37       1.0  0.94839  0.37251  0.44936  1.0000
  C   C56       1.0  0.63692  0.95572  0.37803  1.0000
  H   H38       1.0  0.62539  0.94712  0.44682  1.0000
  C   C57       1.0  0.04193  0.63724  0.29532  1.0000
  H   H39       1.0  0.07159  0.62441  0.34371  1.0000
  C   C58       1.0  0.36078  0.04362  0.29880  1.0000
  H   H40       1.0  0.37366  0.07249  0.34851  1.0000
  C   C59       1.0  0.00033  0.44335  0.33829  1.0000
  C   C60       1.0  0.99541  0.47682  0.41298  1.0000
  C   C61       1.0  0.99166  0.53172  0.40198  1.0000
  H   H41       1.0  0.98867  0.55517  0.45731  1.0000
  H   H42       1.0  0.99498  0.46130  0.47589  1.0000
  O   O1        1.0  0.00247  0.52815  0.66505  1.0000
  N   N11       1.0  0.00461  0.38793  0.34780  1.0000
  H   H43       1.0  0.03616  0.37935  0.38842  1.0000
  C   C62       1.0  0.55470  0.00065  0.33812  1.0000
  C   C63       1.0  0.52146  0.99535  0.41304  1.0000
  C   C64       1.0  0.46649  0.99202  0.40254  1.0000
  H   H44       1.0  0.44322  0.98869  0.45803  1.0000
  H   H45       1.0  0.53721  0.99432  0.47578  1.0000
  O   O2        1.0  0.46866  0.00598  0.66587  1.0000
  N   N12       1.0  0.61018  0.00457  0.34716  1.0000
  H   H46       1.0  0.61909  0.03569  0.38852  1.0000
