data_image0
_chemical_formula_structural       C2HNO2C2HNO2C2HNO2C2HNO2C2HNO2C2HNO2C4HNO2C4HNO2C4HNO2C4HNO2C4HNO2C4HNO2C2HNO2C2HNO2C2HNO2C2HNO2C2HNO2C2HNO2CNCNCNCNCNCNCNCNCNCNCNCNCNCNCNCNCNCNCNCNCNCNCNCNCNCNCNCNCNCNCNCNCNCNCNCNC4HNO2C4HNO2C4HNO2C4HNO2C4HNO2C4HNO2C2HNO2C2HNO2C2HNO2C2HNO2C2HNO2C2HNO2C4HNO2C4HNO2C4HNO2C4HNO2C4HNO2C4HNO2
_chemical_formula_sum              "C144 H36 N72 O72"
_cell_length_a       39.3179
_cell_length_b       39.318
_cell_length_c       14.7814
_cell_angle_alpha    90
_cell_angle_beta     90
_cell_angle_gamma    120

_space_group_name_H-M_alt    "P 1"
_space_group_IT_number       1

loop_
  _space_group_symop_operation_xyz
  'x, y, z'

loop_
  _atom_site_type_symbol
  _atom_site_label
  _atom_site_symmetry_multiplicity
  _atom_site_fract_x
  _atom_site_fract_y
  _atom_site_fract_z
  _atom_site_occupancy
  C   C1        1.0  0.21964  0.46164  0.26585  1.0000
  C   C2        1.0  0.25570  0.46147  0.26682  1.0000
  H   H1        1.0  0.26933  0.46302  0.20677  1.0000
  N   N1        1.0  0.20234  0.46341  0.18322  1.0000
  O   O1        1.0  0.19415  0.43421  0.13414  1.0000
  O   O2        1.0  0.22457  0.49418  0.13993  1.0000
  C   C3        1.0  0.57517  0.78001  0.26586  1.0000
  C   C4        1.0  0.57531  0.81623  0.26686  1.0000
  H   H2        1.0  0.57377  0.82832  0.20682  1.0000
  N   N2        1.0  0.57338  0.76094  0.18322  1.0000
  O   O3        1.0  0.60255  0.78196  0.13409  1.0000
  O   O4        1.0  0.54259  0.75238  0.13999  1.0000
  C   C5        1.0  0.25677  0.81715  0.26579  1.0000
  C   C6        1.0  0.22054  0.78109  0.26677  1.0000
  H   H3        1.0  0.20843  0.76748  0.20671  1.0000
  N   N3        1.0  0.27583  0.83447  0.18317  1.0000
  O   O5        1.0  0.25481  0.84266  0.13412  1.0000
  O   O6        1.0  0.28437  0.81225  0.13983  1.0000
  C   C7        1.0  0.81473  0.57754  0.26577  1.0000
  C   C8        1.0  0.77867  0.57770  0.26675  1.0000
  H   H4        1.0  0.76503  0.57616  0.20670  1.0000
  N   N4        1.0  0.83203  0.57577  0.18315  1.0000
  O   O7        1.0  0.84022  0.60497  0.13407  1.0000
  O   O8        1.0  0.80981  0.54500  0.13986  1.0000
  C   C9        1.0  0.45919  0.25915  0.26585  1.0000
  C   C10       1.0  0.45902  0.22292  0.26684  1.0000
  H   H5        1.0  0.46056  0.21082  0.20679  1.0000
  N   N5        1.0  0.46095  0.27821  0.18322  1.0000
  O   O9        1.0  0.43175  0.25719  0.13414  1.0000
  O   O10       1.0  0.49172  0.28675  0.13992  1.0000
  C   C11       1.0  0.77758  0.22203  0.26585  1.0000
  C   C12       1.0  0.81380  0.25810  0.26684  1.0000
  H   H6        1.0  0.82590  0.27174  0.20680  1.0000
  N   N6        1.0  0.75852  0.20474  0.18322  1.0000
  O   O11       1.0  0.77953  0.19658  0.13408  1.0000
  O   O12       1.0  0.74995  0.22697  0.13998  1.0000
  C   C13       1.0  0.15168  0.62330  0.34853  1.0000
  C   C14       1.0  0.15132  0.60492  0.26638  1.0000
  C   C15       1.0  0.15080  0.56862  0.26538  1.0000
  C   C16       1.0  0.15084  0.55058  0.34853  1.0000
  H   H7        1.0  0.14982  0.61710  0.20642  1.0000
  N   N7        1.0  0.14888  0.54942  0.18281  1.0000
  O   O13       1.0  0.11822  0.54115  0.13937  1.0000
  O   O14       1.0  0.17819  0.57017  0.13379  1.0000
  C   C17       1.0  0.41347  0.55040  0.34836  1.0000
  C   C18       1.0  0.43188  0.56843  0.26624  1.0000
  C   C19       1.0  0.46817  0.60420  0.26526  1.0000
  C   C20       1.0  0.48624  0.62227  0.34840  1.0000
  H   H8        1.0  0.41970  0.55475  0.20627  1.0000
  N   N8        1.0  0.48739  0.62148  0.18270  1.0000
  O   O15       1.0  0.49566  0.59908  0.13927  1.0000
  O   O16       1.0  0.46666  0.63005  0.13366  1.0000
  C   C21       1.0  0.48640  0.88506  0.34839  1.0000
  C   C22       1.0  0.46838  0.88548  0.26629  1.0000
  C   C23       1.0  0.43259  0.88596  0.26532  1.0000
  C   C24       1.0  0.41452  0.88594  0.34847  1.0000
  H   H9        1.0  0.48204  0.88693  0.20631  1.0000
  N   N9        1.0  0.41530  0.88789  0.18278  1.0000
  O   O17       1.0  0.43768  0.91856  0.13934  1.0000
  O   O18       1.0  0.40675  0.85859  0.13373  1.0000
  C   C25       1.0  0.88268  0.41587  0.34838  1.0000
  C   C26       1.0  0.88306  0.43427  0.26627  1.0000
  C   C27       1.0  0.88356  0.47056  0.26529  1.0000
  C   C28       1.0  0.88355  0.48860  0.34845  1.0000
  H   H10       1.0  0.88451  0.42207  0.20630  1.0000
  N   N10       1.0  0.88547  0.48977  0.18274  1.0000
  O   O19       1.0  0.91613  0.49805  0.13927  1.0000
  O   O20       1.0  0.85616  0.46902  0.13374  1.0000
  C   C29       1.0  0.62087  0.48878  0.34844  1.0000
  C   C30       1.0  0.60249  0.47075  0.26630  1.0000
  C   C31       1.0  0.56620  0.43498  0.26531  1.0000
  C   C32       1.0  0.54815  0.41690  0.34847  1.0000
  H   H11       1.0  0.61467  0.48443  0.20633  1.0000
  N   N11       1.0  0.54700  0.41770  0.18275  1.0000
  O   O21       1.0  0.53872  0.44008  0.13930  1.0000
  O   O22       1.0  0.56775  0.40914  0.13373  1.0000
  C   C33       1.0  0.54797  0.15409  0.34846  1.0000
  C   C34       1.0  0.56600  0.15372  0.26634  1.0000
  C   C35       1.0  0.60177  0.15319  0.26534  1.0000
  C   C36       1.0  0.61985  0.15321  0.34847  1.0000
  H   H12       1.0  0.55232  0.15221  0.20637  1.0000
  N   N12       1.0  0.61904  0.15125  0.18278  1.0000
  O   O23       1.0  0.59665  0.12058  0.13936  1.0000
  O   O24       1.0  0.62761  0.18055  0.13373  1.0000
  C   C37       1.0  0.03753  0.40389  0.26599  1.0000
  C   C38       1.0  0.99582  0.38252  0.26700  1.0000
  H   H13       1.0  0.98103  0.37729  0.20703  1.0000
  N   N13       1.0  0.05841  0.41695  0.18335  1.0000
  O   O25       1.0  0.05140  0.38856  0.13259  1.0000
  O   O26       1.0  0.05006  0.43974  0.14189  1.0000
  C   C39       1.0  0.63288  0.65562  0.26596  1.0000
  C   C40       1.0  0.65420  0.63522  0.26699  1.0000
  H   H14       1.0  0.65947  0.62568  0.20705  1.0000
  N   N14       1.0  0.61982  0.66343  0.18333  1.0000
  O   O27       1.0  0.64822  0.68481  0.13256  1.0000
  O   O28       1.0  0.59701  0.63230  0.14187  1.0000
  C   C41       1.0  0.38102  0.99921  0.26579  1.0000
  C   C42       1.0  0.40141  0.04092  0.26676  1.0000
  H   H15       1.0  0.41089  0.05573  0.20679  1.0000
  N   N15       1.0  0.37312  0.97831  0.18318  1.0000
  O   O29       1.0  0.35168  0.98531  0.13257  1.0000
  O   O30       1.0  0.40421  0.98663  0.14154  1.0000
  C   C43       1.0  0.99681  0.63535  0.26592  1.0000
  C   C44       1.0  0.03851  0.65670  0.26682  1.0000
  H   H16       1.0  0.05330  0.66195  0.20684  1.0000
  N   N16       1.0  0.97590  0.62230  0.18331  1.0000
  O   O31       1.0  0.98288  0.65072  0.13262  1.0000
  O   O32       1.0  0.98423  0.59952  0.14175  1.0000
  C   C45       1.0  0.40149  0.38356  0.26598  1.0000
  C   C46       1.0  0.38014  0.40392  0.26699  1.0000
  H   H17       1.0  0.37491  0.41350  0.20704  1.0000
  N   N17       1.0  0.41456  0.37576  0.18333  1.0000
  O   O33       1.0  0.38616  0.35438  0.13256  1.0000
  O   O34       1.0  0.43736  0.40690  0.14190  1.0000
  C   C47       1.0  0.65324  0.03993  0.26594  1.0000
  C   C48       1.0  0.63285  0.99822  0.26694  1.0000
  H   H18       1.0  0.62332  0.98340  0.20699  1.0000
  N   N18       1.0  0.66109  0.06082  0.18332  1.0000
  O   O35       1.0  0.68248  0.05380  0.13260  1.0000
  O   O36       1.0  0.62996  0.05250  0.14181  1.0000
  C   C49       1.0  0.09929  0.44376  0.34866  1.0000
  N   N19       1.0  0.12992  0.43658  0.34869  1.0000
  C   C50       1.0  0.16795  0.46691  0.34863  1.0000
  N   N20       1.0  0.17485  0.50447  0.34856  1.0000
  C   C51       1.0  0.14471  0.51200  0.34853  1.0000
  N   N21       1.0  0.10733  0.48156  0.34859  1.0000
  C   C52       1.0  0.59305  0.67752  0.34867  1.0000
  N   N22       1.0  0.60024  0.71533  0.34872  1.0000
  C   C53       1.0  0.56991  0.72304  0.34863  1.0000
  N   N23       1.0  0.53235  0.69238  0.34852  1.0000
  C   C54       1.0  0.52481  0.65471  0.34848  1.0000
  N   N24       1.0  0.55524  0.64776  0.34855  1.0000
  C   C55       1.0  0.35926  0.93749  0.34865  1.0000
  N   N25       1.0  0.32144  0.90685  0.34863  1.0000
  C   C56       1.0  0.31374  0.86882  0.34863  1.0000
  N   N26       1.0  0.34441  0.86193  0.34859  1.0000
  C   C57       1.0  0.38208  0.89207  0.34857  1.0000
  N   N27       1.0  0.38902  0.92945  0.34859  1.0000
  C   C58       1.0  0.93509  0.59542  0.34867  1.0000
  N   N28       1.0  0.90445  0.60259  0.34867  1.0000
  C   C59       1.0  0.86642  0.57226  0.34861  1.0000
  N   N29       1.0  0.85953  0.53470  0.34853  1.0000
  C   C60       1.0  0.88968  0.52718  0.34854  1.0000
  N   N30       1.0  0.92706  0.55762  0.34861  1.0000
  C   C61       1.0  0.44134  0.36164  0.34863  1.0000
  N   N31       1.0  0.43415  0.32383  0.34868  1.0000
  C   C62       1.0  0.46448  0.31613  0.34861  1.0000
  N   N32       1.0  0.50205  0.34679  0.34853  1.0000
  C   C63       1.0  0.50958  0.38446  0.34848  1.0000
  N   N33       1.0  0.47914  0.39141  0.34855  1.0000
  C   C64       1.0  0.67511  0.10165  0.34869  1.0000
  N   N34       1.0  0.71292  0.13228  0.34871  1.0000
  C   C65       1.0  0.72063  0.17031  0.34865  1.0000
  N   N35       1.0  0.68996  0.17721  0.34856  1.0000
  C   C66       1.0  0.65229  0.14707  0.34854  1.0000
  N   N36       1.0  0.64534  0.10969  0.34861  1.0000
  C   C67       1.0  0.44125  0.10264  0.34859  1.0000
  N   N37       1.0  0.43413  0.13330  0.34861  1.0000
  C   C68       1.0  0.46446  0.17133  0.34861  1.0000
  N   N38       1.0  0.50203  0.17820  0.34857  1.0000
  C   C69       1.0  0.50955  0.14804  0.34853  1.0000
  N   N39       1.0  0.47906  0.11066  0.34852  1.0000
  C   C70       1.0  0.67618  0.59550  0.34864  1.0000
  N   N40       1.0  0.71396  0.60262  0.34867  1.0000
  C   C71       1.0  0.72164  0.57228  0.34857  1.0000
  N   N41       1.0  0.69094  0.53472  0.34847  1.0000
  C   C72       1.0  0.65326  0.52720  0.34845  1.0000
  N   N42       1.0  0.64638  0.55770  0.34855  1.0000
  C   C73       1.0  0.93411  0.36058  0.34864  1.0000
  N   N43       1.0  0.90344  0.32279  0.34870  1.0000
  C   C74       1.0  0.86542  0.31510  0.34861  1.0000
  N   N44       1.0  0.85855  0.34580  0.34849  1.0000
  C   C75       1.0  0.88872  0.38348  0.34846  1.0000
  N   N45       1.0  0.92609  0.39037  0.34853  1.0000
  C   C76       1.0  0.59312  0.93653  0.34864  1.0000
  N   N46       1.0  0.60025  0.90587  0.34872  1.0000
  C   C77       1.0  0.56993  0.86784  0.34864  1.0000
  N   N47       1.0  0.53236  0.86096  0.34853  1.0000
  C   C78       1.0  0.52482  0.89111  0.34847  1.0000
  N   N48       1.0  0.55530  0.92849  0.34853  1.0000
  C   C79       1.0  0.35820  0.44368  0.34863  1.0000
  N   N49       1.0  0.32041  0.43655  0.34869  1.0000
  C   C80       1.0  0.31272  0.46689  0.34858  1.0000
  N   N50       1.0  0.34342  0.50445  0.34845  1.0000
  C   C81       1.0  0.38110  0.51197  0.34842  1.0000
  N   N51       1.0  0.38799  0.48149  0.34851  1.0000
  C   C82       1.0  0.10024  0.67858  0.34860  1.0000
  N   N52       1.0  0.13091  0.71637  0.34859  1.0000
  C   C83       1.0  0.16894  0.72406  0.34859  1.0000
  N   N53       1.0  0.17580  0.69336  0.34856  1.0000
  C   C84       1.0  0.14564  0.65568  0.34854  1.0000
  N   N54       1.0  0.10826  0.64879  0.34855  1.0000
  C   C85       1.0  0.27404  0.46110  0.34860  1.0000
  C   C86       1.0  0.25561  0.46127  0.43039  1.0000
  C   C87       1.0  0.21954  0.46141  0.43140  1.0000
  C   C88       1.0  0.20105  0.46124  0.34863  1.0000
  H   H19       1.0  0.26915  0.46262  0.49046  1.0000
  N   N55       1.0  0.20214  0.46299  0.51405  1.0000
  O   O37       1.0  0.22432  0.49367  0.55770  1.0000
  O   O38       1.0  0.19392  0.43369  0.56278  1.0000
  C   C89       1.0  0.57573  0.83496  0.34866  1.0000
  C   C90       1.0  0.57557  0.81635  0.43042  1.0000
  C   C91       1.0  0.57541  0.78012  0.43139  1.0000
  C   C92       1.0  0.57559  0.76181  0.34861  1.0000
  H   H20       1.0  0.57420  0.82852  0.49049  1.0000
  N   N56       1.0  0.57382  0.76114  0.51403  1.0000
  O   O39       1.0  0.54314  0.75263  0.55765  1.0000
  O   O40       1.0  0.60312  0.78220  0.56279  1.0000
  C   C93       1.0  0.20182  0.76274  0.34853  1.0000
  C   C94       1.0  0.22044  0.78116  0.43033  1.0000
  C   C95       1.0  0.25668  0.81722  0.43135  1.0000
  C   C96       1.0  0.27497  0.83572  0.34857  1.0000
  H   H21       1.0  0.20828  0.76759  0.49039  1.0000
  N   N57       1.0  0.27566  0.83459  0.51400  1.0000
  O   O41       1.0  0.28415  0.81239  0.55759  1.0000
  O   O42       1.0  0.25461  0.84282  0.56278  1.0000
  C   C97       1.0  0.76032  0.57805  0.34853  1.0000
  C   C98       1.0  0.77877  0.57791  0.43033  1.0000
  C   C99       1.0  0.81483  0.57774  0.43132  1.0000
  C   C100      1.0  0.83332  0.57793  0.34854  1.0000
  H   H22       1.0  0.76520  0.57651  0.49039  1.0000
  N   N58       1.0  0.83221  0.57614  0.51397  1.0000
  O   O43       1.0  0.81002  0.54546  0.55759  1.0000
  O   O44       1.0  0.84044  0.60544  0.56273  1.0000
  C   C101      1.0  0.45868  0.20422  0.34862  1.0000
  C   C102      1.0  0.45887  0.22284  0.43041  1.0000
  C   C103      1.0  0.45901  0.25906  0.43139  1.0000
  C   C104      1.0  0.45880  0.27736  0.34861  1.0000
  H   H23       1.0  0.46024  0.21066  0.49047  1.0000
  N   N59       1.0  0.46061  0.27804  0.51403  1.0000
  O   O45       1.0  0.49130  0.28656  0.55763  1.0000
  O   O46       1.0  0.43132  0.25698  0.56282  1.0000
  C   C105      1.0  0.83253  0.27642  0.34863  1.0000
  C   C106      1.0  0.81393  0.25797  0.43040  1.0000
  C   C107      1.0  0.77770  0.22190  0.43138  1.0000
  C   C108      1.0  0.75939  0.20341  0.34860  1.0000
  H   H24       1.0  0.82610  0.27151  0.49047  1.0000
  N   N60       1.0  0.75873  0.20451  0.51403  1.0000
  O   O47       1.0  0.75022  0.22668  0.55765  1.0000
  O   O48       1.0  0.77979  0.19628  0.56278  1.0000
  C   C109      1.0  0.15105  0.56874  0.43167  1.0000
  C   C110      1.0  0.15155  0.60503  0.43066  1.0000
  H   H25       1.0  0.15024  0.61731  0.49064  1.0000
  N   N61       1.0  0.14933  0.54964  0.51425  1.0000
  O   O49       1.0  0.17876  0.57046  0.56288  1.0000
  O   O50       1.0  0.11878  0.54141  0.55811  1.0000
  C   C111      1.0  0.46806  0.60430  0.43153  1.0000
  C   C112      1.0  0.43176  0.56853  0.43050  1.0000
  H   H26       1.0  0.41950  0.55492  0.49048  1.0000
  N   N62       1.0  0.48716  0.62165  0.51413  1.0000
  O   O51       1.0  0.46637  0.63027  0.56282  1.0000
  O   O52       1.0  0.49538  0.59930  0.55792  1.0000
  C   C113      1.0  0.43250  0.88572  0.43160  1.0000
  C   C114      1.0  0.46826  0.88518  0.43055  1.0000
  H   H27       1.0  0.48186  0.88651  0.49052  1.0000
  N   N63       1.0  0.41514  0.88745  0.51421  1.0000
  O   O53       1.0  0.40651  0.85802  0.56284  1.0000
  O   O54       1.0  0.43749  0.91801  0.55804  1.0000
  C   C115      1.0  0.88336  0.47043  0.43159  1.0000
  C   C116      1.0  0.88285  0.43415  0.43054  1.0000
  H   H28       1.0  0.88416  0.42186  0.49051  1.0000
  N   N64       1.0  0.88509  0.48953  0.51419  1.0000
  O   O55       1.0  0.85567  0.46872  0.56284  1.0000
  O   O56       1.0  0.91565  0.49775  0.55801  1.0000
  C   C117      1.0  0.56632  0.43487  0.43160  1.0000
  C   C118      1.0  0.60261  0.47065  0.43058  1.0000
  H   H29       1.0  0.61489  0.48425  0.49056  1.0000
  N   N65       1.0  0.54723  0.41748  0.51419  1.0000
  O   O57       1.0  0.56804  0.40887  0.56282  1.0000
  O   O58       1.0  0.53900  0.43982  0.55803  1.0000
  C   C119      1.0  0.60188  0.15342  0.43161  1.0000
  C   C120      1.0  0.56612  0.15395  0.43060  1.0000
  H   H30       1.0  0.55251  0.15260  0.49058  1.0000
  N   N66       1.0  0.61925  0.15167  0.51420  1.0000
  O   O59       1.0  0.62787  0.18109  0.56288  1.0000
  O   O60       1.0  0.59690  0.12111  0.55801  1.0000
  C   C121      1.0  0.97439  0.37153  0.34875  1.0000
  C   C122      1.0  0.99583  0.38261  0.43047  1.0000
  C   C123      1.0  0.03754  0.40392  0.43149  1.0000
  C   C124      1.0  0.05882  0.41444  0.34874  1.0000
  H   H31       1.0  0.98103  0.37733  0.49044  1.0000
  N   N67       1.0  0.05843  0.41702  0.51410  1.0000
  O   O61       1.0  0.05011  0.43985  0.55546  1.0000
  O   O62       1.0  0.05140  0.38864  0.56495  1.0000
  C   C125      1.0  0.66522  0.62484  0.34880  1.0000
  C   C126      1.0  0.65423  0.63527  0.43054  1.0000
  C   C127      1.0  0.63291  0.65565  0.43154  1.0000
  C   C128      1.0  0.62237  0.66635  0.34874  1.0000
  H   H32       1.0  0.65951  0.62573  0.49050  1.0000
  N   N68       1.0  0.61983  0.66348  0.51413  1.0000
  O   O63       1.0  0.59702  0.63235  0.55559  1.0000
  O   O64       1.0  0.64822  0.68486  0.56491  1.0000
  C   C129      1.0  0.41193  0.06234  0.34851  1.0000
  C   C130      1.0  0.40161  0.04095  0.43031  1.0000
  C   C131      1.0  0.38125  0.99924  0.43133  1.0000
  C   C132      1.0  0.37041  0.97796  0.34857  1.0000
  H   H33       1.0  0.41126  0.05575  0.49024  1.0000
  N   N69       1.0  0.37354  0.97837  0.51396  1.0000
  O   O65       1.0  0.40473  0.98671  0.55520  1.0000
  O   O66       1.0  0.35221  0.98539  0.56492  1.0000
  C   C133      1.0  0.05995  0.66762  0.34854  1.0000
  C   C134      1.0  0.03858  0.65659  0.43037  1.0000
  C   C135      1.0  0.99687  0.63523  0.43142  1.0000
  C   C136      1.0  0.97556  0.62475  0.34872  1.0000
  H   H34       1.0  0.05339  0.66175  0.49029  1.0000
  N   N70       1.0  0.97600  0.62209  0.51405  1.0000
  O   O67       1.0  0.98436  0.59925  0.55530  1.0000
  O   O68       1.0  0.98302  0.65044  0.56500  1.0000
  C   C137      1.0  0.36916  0.41435  0.34879  1.0000
  C   C138      1.0  0.38019  0.40395  0.43051  1.0000
  C   C139      1.0  0.40149  0.38353  0.43149  1.0000
  C   C140      1.0  0.41202  0.37281  0.34872  1.0000
  H   H35       1.0  0.37491  0.41347  0.49049  1.0000
  N   N71       1.0  0.41457  0.37571  0.51409  1.0000
  O   O69       1.0  0.43740  0.40685  0.55552  1.0000
  O   O70       1.0  0.38617  0.35435  0.56490  1.0000
  C   C141      1.0  0.62244  0.97683  0.34874  1.0000
  C   C142      1.0  0.63285  0.99821  0.43054  1.0000
  C   C143      1.0  0.65324  0.03992  0.43154  1.0000
  C   C144      1.0  0.66394  0.06116  0.34875  1.0000
  H   H36       1.0  0.62330  0.98339  0.49048  1.0000
  N   N72       1.0  0.66106  0.06082  0.51414  1.0000
  O   O71       1.0  0.62992  0.05249  0.55558  1.0000
  O   O72       1.0  0.68243  0.05381  0.56493  1.0000
