data_image0
_chemical_formula_structural       CHC2OHCOH2C6H3COHC2HC4OHC3OH2C3OH2CHC3HOHC2OHC3HOHC3HOHC3HOHC6H3C6H3C6H3C6H3C6H3CHC3HOHC3HOHC2OHC3OH2CHC3OH2C3OH2C3OH2
_chemical_formula_sum              "C90 H54 O18"
_cell_length_a       30.5424
_cell_length_b       30.5424
_cell_length_c       14.7278
_cell_angle_alpha    90
_cell_angle_beta     90
_cell_angle_gamma    120

_space_group_name_H-M_alt    "P 1"
_space_group_IT_number       1

loop_
  _space_group_symop_operation_xyz
  'x, y, z'

loop_
  _atom_site_type_symbol
  _atom_site_label
  _atom_site_symmetry_multiplicity
  _atom_site_fract_x
  _atom_site_fract_y
  _atom_site_fract_z
  _atom_site_occupancy
  C   C1        1.0  0.04082  0.49498  0.31283  1.0000
  H   H1        1.0  0.06020  0.48679  0.26536  1.0000
  C   C2        1.0  0.03868  0.54489  0.43843  1.0000
  C   C3        1.0  0.06778  0.53376  0.37728  1.0000
  O   O1        1.0  0.06100  0.58161  0.50266  1.0000
  H   H2        1.0  0.07120  0.56696  0.55209  1.0000
  C   C4        1.0  0.23128  0.53789  0.33288  1.0000
  O   O2        1.0  0.24383  0.56670  0.17619  1.0000
  H   H3        1.0  0.21127  0.53890  0.15460  1.0000
  H   H4        1.0  0.24373  0.69029  0.20525  1.0000
  C   C5        1.0  0.20277  0.56190  0.35149  1.0000
  C   C6        1.0  0.22773  0.61514  0.34568  1.0000
  C   C7        1.0  0.20231  0.64270  0.35697  1.0000
  C   C8        1.0  0.14951  0.61530  0.37243  1.0000
  C   C9        1.0  0.12229  0.56148  0.37583  1.0000
  C   C10       1.0  0.15013  0.53565  0.36816  1.0000
  H   H5        1.0  0.13029  0.63477  0.37428  1.0000
  H   H6        1.0  0.13143  0.49694  0.36903  1.0000
  H   H7        1.0  0.23437  0.51788  0.46928  1.0000
  C   C11       1.0  0.23077  0.69585  0.34493  1.0000
  O   O3        1.0  0.23322  0.71124  0.50643  1.0000
  H   H8        1.0  0.20160  0.71215  0.51180  1.0000
  C   C12       1.0  0.25745  0.54849  0.24891  1.0000
  C   C13       1.0  0.25579  0.71374  0.26073  1.0000
  H   H9        1.0  0.26606  0.63463  0.33439  1.0000
  C   C14       1.0  0.25012  0.52208  0.40615  1.0000
  C   C15       1.0  0.25126  0.72824  0.42142  1.0000
  C   C16       1.0  0.98749  0.46870  0.30805  1.0000
  C   C17       1.0  0.95827  0.47950  0.36962  1.0000
  O   O4        1.0  0.96578  0.43414  0.24006  1.0000
  H   H10       1.0  0.95889  0.45141  0.19043  1.0000
  C   C18       1.0  0.52594  0.54631  0.29175  1.0000
  C   C19       1.0  0.55207  0.51900  0.29206  1.0000
  C   C20       1.0  0.54063  0.48043  0.35722  1.0000
  O   O5        1.0  0.58818  0.53104  0.22735  1.0000
  H   H11       1.0  0.53488  0.57313  0.24241  1.0000
  H   H12       1.0  0.57320  0.50427  0.18112  1.0000
  C   C21       1.0  0.52350  0.98095  0.29873  1.0000
  C   C22       1.0  0.54939  0.03433  0.29688  1.0000
  C   C23       1.0  0.54044  0.06228  0.36432  1.0000
  O   O6        1.0  0.58214  0.05737  0.22685  1.0000
  H   H13       1.0  0.53050  0.96248  0.24766  1.0000
  H   H14       1.0  0.56444  0.06728  0.18286  1.0000
  C   C24       1.0  0.30373  0.54930  0.24270  1.0000
  H   H15       1.0  0.32440  0.56324  0.18425  1.0000
  C   C25       1.0  0.47013  0.76077  0.22696  1.0000
  C   C26       1.0  0.47115  0.71538  0.22221  1.0000
  C   C27       1.0  0.48432  0.69666  0.29964  1.0000
  H   H16       1.0  0.45406  0.76950  0.17393  1.0000
  O   O7        1.0  0.45080  0.68654  0.14643  1.0000
  H   H17       1.0  0.47763  0.68210  0.11879  1.0000
  C   C28       1.0  0.30177  0.75956  0.25371  1.0000
  C   C29       1.0  0.32504  0.78947  0.33196  1.0000
  O   O8        1.0  0.32630  0.76963  0.17240  1.0000
  H   H18       1.0  0.32928  0.80136  0.15011  1.0000
  C   C30       1.0  0.72413  0.48963  0.29453  1.0000
  C   C31       1.0  0.76912  0.48876  0.27680  1.0000
  C   C32       1.0  0.79865  0.48592  0.34865  1.0000
  H   H19       1.0  0.70144  0.48607  0.24038  1.0000
  O   O9        1.0  0.77953  0.48391  0.18862  1.0000
  H   H20       1.0  0.81107  0.51500  0.17316  1.0000
  C   C33       1.0  0.52531  0.24384  0.33635  1.0000
  C   C34       1.0  0.52656  0.29086  0.34120  1.0000
  C   C35       1.0  0.55111  0.32415  0.41520  1.0000
  H   H21       1.0  0.51609  0.22509  0.27544  1.0000
  O   O10       1.0  0.51600  0.30806  0.26367  1.0000
  H   H22       1.0  0.47922  0.29429  0.26372  1.0000
  C   C36       1.0  0.75513  0.30575  0.24387  1.0000
  C   C37       1.0  0.71114  0.25803  0.24784  1.0000
  C   C38       1.0  0.69908  0.22826  0.32772  1.0000
  H   H23       1.0  0.75977  0.32831  0.18893  1.0000
  O   O11       1.0  0.67696  0.24596  0.17932  1.0000
  H   H24       1.0  0.67341  0.21533  0.15035  1.0000
  C   C39       1.0  0.46084  0.64353  0.31261  1.0000
  C   C40       1.0  0.40771  0.61496  0.30376  1.0000
  C   C41       1.0  0.37930  0.56258  0.32196  1.0000
  C   C42       1.0  0.40623  0.53777  0.34644  1.0000
  C   C43       1.0  0.46003  0.56388  0.34919  1.0000
  C   C44       1.0  0.48630  0.61738  0.33798  1.0000
  H   H25       1.0  0.38634  0.49929  0.35375  1.0000
  H   H26       1.0  0.52495  0.63726  0.34191  1.0000
  H   H27       1.0  0.38849  0.63396  0.29149  1.0000
  C   C45       1.0  0.37860  0.81918  0.33527  1.0000
  C   C46       1.0  0.40656  0.79491  0.31564  1.0000
  C   C47       1.0  0.45976  0.81934  0.32344  1.0000
  C   C48       1.0  0.48564  0.87102  0.34817  1.0000
  C   C49       1.0  0.45959  0.89831  0.36128  1.0000
  C   C50       1.0  0.40577  0.87083  0.36021  1.0000
  H   H28       1.0  0.52434  0.88982  0.35010  1.0000
  H   H29       1.0  0.38611  0.88957  0.36873  1.0000
  H   H30       1.0  0.38710  0.75680  0.30234  1.0000
  C   C51       1.0  0.82755  0.46183  0.33509  1.0000
  C   C52       1.0  0.80083  0.40984  0.31312  1.0000
  C   C53       1.0  0.82230  0.37842  0.32393  1.0000
  C   C54       1.0  0.87379  0.40179  0.35005  1.0000
  C   C55       1.0  0.90399  0.45504  0.36152  1.0000
  C   C56       1.0  0.87883  0.48359  0.36103  1.0000
  H   H31       1.0  0.89023  0.37978  0.35573  1.0000
  H   H32       1.0  0.89872  0.52162  0.37389  1.0000
  H   H33       1.0  0.76265  0.39316  0.30155  1.0000
  C   C57       1.0  0.57247  0.37742  0.40640  1.0000
  C   C58       1.0  0.62551  0.40808  0.41653  1.0000
  C   C59       1.0  0.65176  0.45996  0.39386  1.0000
  C   C60       1.0  0.62306  0.48245  0.36696  1.0000
  C   C61       1.0  0.56933  0.45481  0.36596  1.0000
  C   C62       1.0  0.54517  0.40161  0.37967  1.0000
  H   H34       1.0  0.64190  0.52056  0.35488  1.0000
  H   H35       1.0  0.50661  0.38034  0.37512  1.0000
  H   H36       1.0  0.64641  0.39082  0.42875  1.0000
  C   C63       1.0  0.64735  0.19848  0.35119  1.0000
  C   C64       1.0  0.62019  0.22384  0.36761  1.0000
  C   C65       1.0  0.56759  0.19777  0.38367  1.0000
  C   C66       1.0  0.54145  0.14430  0.38031  1.0000
  C   C67       1.0  0.56728  0.11687  0.36558  1.0000
  C   C68       1.0  0.62064  0.14506  0.35278  1.0000
  H   H37       1.0  0.50318  0.12521  0.39070  1.0000
  H   H38       1.0  0.64047  0.12662  0.34246  1.0000
  H   H39       1.0  0.63943  0.26270  0.36785  1.0000
  C   C69       1.0  0.98524  0.51838  0.43398  1.0000
  H   H40       1.0  0.96578  0.52763  0.47942  1.0000
  C   C70       1.0  0.50145  0.47032  0.41996  1.0000
  C   C71       1.0  0.47524  0.49757  0.41953  1.0000
  C   C72       1.0  0.48715  0.53656  0.35511  1.0000
  H   H41       1.0  0.49271  0.44373  0.46966  1.0000
  O   O12       1.0  0.43899  0.48559  0.48392  1.0000
  H   H42       1.0  0.45437  0.51159  0.53141  1.0000
  C   C73       1.0  0.50356  0.03397  0.43115  1.0000
  C   C74       1.0  0.47726  0.98048  0.43241  1.0000
  C   C75       1.0  0.48697  0.95272  0.36597  1.0000
  H   H43       1.0  0.49609  0.05241  0.48156  1.0000
  O   O13       1.0  0.44261  0.95678  0.49943  1.0000
  H   H44       1.0  0.45918  0.94666  0.54545  1.0000
  C   C76       1.0  0.29628  0.52173  0.39927  1.0000
  C   C77       1.0  0.32571  0.53926  0.31878  1.0000
  O   O14       1.0  0.31695  0.51665  0.47761  1.0000
  H   H45       1.0  0.30805  0.48099  0.48021  1.0000
  C   C78       1.0  0.50426  0.72926  0.37572  1.0000
  C   C79       1.0  0.50432  0.77572  0.37969  1.0000
  C   C80       1.0  0.48334  0.79004  0.30730  1.0000
  O   O15       1.0  0.51288  0.79877  0.46206  1.0000
  H   H46       1.0  0.51116  0.71575  0.43450  1.0000
  H   H47       1.0  0.54774  0.82729  0.45992  1.0000
  C   C81       1.0  0.29751  0.77459  0.41443  1.0000
  H   H48       1.0  0.31480  0.79293  0.47339  1.0000
  C   C82       1.0  0.78214  0.48559  0.43860  1.0000
  C   C83       1.0  0.73552  0.48305  0.45611  1.0000
  C   C84       1.0  0.70503  0.48384  0.38396  1.0000
  O   O16       1.0  0.71798  0.47322  0.54310  1.0000
  H   H49       1.0  0.79994  0.47920  0.49177  1.0000
  H   H50       1.0  0.71621  0.50291  0.56383  1.0000
  C   C85       1.0  0.56628  0.30512  0.48905  1.0000
  C   C86       1.0  0.56296  0.25756  0.48593  1.0000
  C   C87       1.0  0.54509  0.22713  0.40677  1.0000
  O   O17       1.0  0.58587  0.24642  0.55438  1.0000
  H   H51       1.0  0.58460  0.32815  0.54326  1.0000
  H   H52       1.0  0.55925  0.21586  0.58425  1.0000
  C   C88       1.0  0.73549  0.24573  0.39824  1.0000
  C   C89       1.0  0.78125  0.29262  0.39217  1.0000
  C   C90       1.0  0.78968  0.32520  0.31718  1.0000
  O   O18       1.0  0.80923  0.31051  0.46933  1.0000
  H   H53       1.0  0.72620  0.22722  0.45941  1.0000
  H   H54       1.0  0.83182  0.29626  0.47049  1.0000
