data_image0
_chemical_formula_structural       C6H3COH3C6H3COH3C6H3COH3C2H2C4HCOH3C2H2C4HCOH3C2H2C4HCOH3C2H2C4HCOH3C2H2C4HCOH3C2H2C4HCOH3NC18H12NC18H12NC18H12NC18H12NC18H12NC18H12C2H2C4HCOH3C2H2C4HCOH3C2H2C4HCOH3C6H3COH3C6H3COH3C6H3COH3C6H3COH3C6H3COH3C6H3COH3
_chemical_formula_sum              "C234 H180 O18 N6"
_cell_length_a       68.5381
_cell_length_b       68.5382
_cell_length_c       14.8791
_cell_angle_alpha    90
_cell_angle_beta     90
_cell_angle_gamma    120

_space_group_name_H-M_alt    "P 1"
_space_group_IT_number       1

loop_
  _space_group_symop_operation_xyz
  'x, y, z'

loop_
  _atom_site_type_symbol
  _atom_site_label
  _atom_site_symmetry_multiplicity
  _atom_site_fract_x
  _atom_site_fract_y
  _atom_site_fract_z
  _atom_site_occupancy
  C   C1        1.0  0.94546  0.47401  0.32843  1.0000
  C   C2        1.0  0.95783  0.46933  0.26398  1.0000
  C   C3        1.0  0.98175  0.48075  0.26211  1.0000
  C   C4        1.0  0.99409  0.49756  0.32804  1.0000
  C   C5        1.0  0.03031  0.52950  0.28207  1.0000
  C   C6        1.0  0.05402  0.54165  0.28218  1.0000
  H   H1        1.0  0.02187  0.53537  0.24411  1.0000
  H   H2        1.0  0.06196  0.55620  0.24544  1.0000
  H   H3        1.0  0.94922  0.45683  0.21786  1.0000
  C   C7        1.0  0.99262  0.47433  0.19021  1.0000
  O   O1        1.0  0.98761  0.48034  0.10470  1.0000
  H   H4        1.0  0.01089  0.48259  0.19785  1.0000
  H   H5        1.0  0.98608  0.45615  0.19320  1.0000
  H   H6        1.0  0.99449  0.47550  0.05811  1.0000
  C   C8        1.0  0.53614  0.47349  0.32839  1.0000
  C   C9        1.0  0.54082  0.49054  0.26395  1.0000
  C   C10       1.0  0.52940  0.50303  0.26209  1.0000
  C   C11       1.0  0.51259  0.49857  0.32802  1.0000
  C   C12       1.0  0.48065  0.50285  0.28209  1.0000
  C   C13       1.0  0.46849  0.51440  0.28225  1.0000
  H   H7        1.0  0.47477  0.48853  0.24413  1.0000
  H   H8        1.0  0.45395  0.50780  0.24548  1.0000
  H   H9        1.0  0.55333  0.49444  0.21786  1.0000
  C   C14       1.0  0.53583  0.52034  0.19022  1.0000
  O   O2        1.0  0.52982  0.50933  0.10469  1.0000
  H   H10       1.0  0.52757  0.53034  0.19786  1.0000
  H   H11       1.0  0.55401  0.53198  0.19323  1.0000
  H   H12       1.0  0.53466  0.52104  0.05813  1.0000
  C   C15       1.0  0.53666  0.06467  0.32843  1.0000
  C   C16       1.0  0.51962  0.05230  0.26397  1.0000
  C   C17       1.0  0.50712  0.02838  0.26210  1.0000
  C   C18       1.0  0.51158  0.01604  0.32802  1.0000
  C   C19       1.0  0.50730  0.97982  0.28212  1.0000
  C   C20       1.0  0.49574  0.95610  0.28223  1.0000
  H   H13       1.0  0.52162  0.98825  0.24419  1.0000
  H   H14       1.0  0.50235  0.94816  0.24553  1.0000
  H   H15       1.0  0.51572  0.06091  0.21786  1.0000
  C   C21       1.0  0.48982  0.01751  0.19020  1.0000
  O   O3        1.0  0.50084  0.02252  0.10468  1.0000
  H   H16       1.0  0.47982  0.99925  0.19782  1.0000
  H   H17       1.0  0.47818  0.02405  0.19320  1.0000
  H   H18       1.0  0.48913  0.01565  0.05810  1.0000
  C   C22       1.0  0.30041  0.55361  0.25823  1.0000
  C   C23       1.0  0.32142  0.55475  0.25245  1.0000
  H   H19       1.0  0.29222  0.55302  0.19984  1.0000
  H   H20       1.0  0.32729  0.55424  0.18985  1.0000
  C   C24       1.0  0.27040  0.55448  0.34319  1.0000
  C   C25       1.0  0.23093  0.55866  0.34956  1.0000
  C   C26       1.0  0.22978  0.53840  0.32144  1.0000
  C   C27       1.0  0.24907  0.53579  0.31888  1.0000
  H   H21       1.0  0.21441  0.52519  0.30370  1.0000
  C   C28       1.0  0.24697  0.51381  0.29172  1.0000
  O   O4        1.0  0.22457  0.49530  0.27889  1.0000
  H   H22       1.0  0.25539  0.50878  0.34138  1.0000
  H   H23       1.0  0.25564  0.51623  0.22772  1.0000
  H   H24       1.0  0.21718  0.49092  0.33805  1.0000
  C   C29       1.0  0.45660  0.74887  0.25827  1.0000
  C   C30       1.0  0.45547  0.76874  0.25246  1.0000
  H   H25       1.0  0.45719  0.74127  0.19988  1.0000
  H   H26       1.0  0.45596  0.77511  0.18986  1.0000
  C   C31       1.0  0.45574  0.71799  0.34323  1.0000
  C   C32       1.0  0.45154  0.67433  0.34962  1.0000
  C   C33       1.0  0.47180  0.69344  0.32142  1.0000
  C   C34       1.0  0.47441  0.71534  0.31888  1.0000
  H   H27       1.0  0.48499  0.69126  0.30365  1.0000
  C   C35       1.0  0.49640  0.73521  0.29166  1.0000
  O   O5        1.0  0.51489  0.73131  0.27879  1.0000
  H   H28       1.0  0.50144  0.74867  0.34132  1.0000
  H   H29       1.0  0.49397  0.74146  0.22767  1.0000
  H   H30       1.0  0.51928  0.72830  0.33794  1.0000
  C   C36       1.0  0.26131  0.70975  0.25825  1.0000
  C   C37       1.0  0.24144  0.68874  0.25245  1.0000
  H   H31       1.0  0.26891  0.71794  0.19986  1.0000
  H   H32       1.0  0.23506  0.68287  0.18984  1.0000
  C   C38       1.0  0.29218  0.73976  0.34324  1.0000
  C   C39       1.0  0.33583  0.77923  0.34964  1.0000
  C   C40       1.0  0.31672  0.78038  0.32147  1.0000
  C   C41       1.0  0.29482  0.76109  0.31890  1.0000
  H   H33       1.0  0.31889  0.79575  0.30370  1.0000
  C   C42       1.0  0.27495  0.76319  0.29169  1.0000
  O   O6        1.0  0.27884  0.78558  0.27885  1.0000
  H   H34       1.0  0.26149  0.75477  0.34134  1.0000
  H   H35       1.0  0.26870  0.75452  0.22769  1.0000
  H   H36       1.0  0.28184  0.79298  0.33801  1.0000
  C   C43       1.0  0.71113  0.45405  0.25766  1.0000
  C   C44       1.0  0.69006  0.45278  0.25147  1.0000
  H   H37       1.0  0.71935  0.45461  0.19941  1.0000
  H   H38       1.0  0.68417  0.45314  0.18874  1.0000
  C   C45       1.0  0.74126  0.45359  0.34327  1.0000
  C   C46       1.0  0.78094  0.44978  0.35033  1.0000
  C   C47       1.0  0.78192  0.46994  0.32182  1.0000
  C   C48       1.0  0.76253  0.47236  0.31892  1.0000
  H   H39       1.0  0.79724  0.48320  0.30397  1.0000
  C   C49       1.0  0.76445  0.49424  0.29125  1.0000
  O   O7        1.0  0.78678  0.51285  0.27829  1.0000
  H   H40       1.0  0.75593  0.49922  0.34067  1.0000
  H   H41       1.0  0.75576  0.49168  0.22719  1.0000
  H   H42       1.0  0.79416  0.51734  0.33745  1.0000
  C   C50       1.0  0.55614  0.25912  0.25767  1.0000
  C   C51       1.0  0.55741  0.23932  0.25150  1.0000
  H   H43       1.0  0.55557  0.26678  0.19942  1.0000
  H   H44       1.0  0.55704  0.23306  0.18878  1.0000
  C   C52       1.0  0.55660  0.28971  0.34327  1.0000
  C   C53       1.0  0.56040  0.33320  0.35030  1.0000
  C   C54       1.0  0.54024  0.31401  0.32184  1.0000
  C   C55       1.0  0.53782  0.29220  0.31893  1.0000
  H   H45       1.0  0.52697  0.31607  0.30399  1.0000
  C   C56       1.0  0.51595  0.27224  0.29128  1.0000
  O   O8        1.0  0.49734  0.27596  0.27835  1.0000
  H   H46       1.0  0.51097  0.25875  0.34071  1.0000
  H   H47       1.0  0.51850  0.26611  0.22722  1.0000
  H   H48       1.0  0.49285  0.27885  0.33751  1.0000
  C   C57       1.0  0.75104  0.29902  0.25770  1.0000
  C   C58       1.0  0.77083  0.32009  0.25153  1.0000
  H   H49       1.0  0.74337  0.29079  0.19945  1.0000
  H   H50       1.0  0.77708  0.32598  0.18879  1.0000
  C   C59       1.0  0.72044  0.26888  0.34330  1.0000
  C   C60       1.0  0.67695  0.22920  0.35036  1.0000
  C   C61       1.0  0.69613  0.22823  0.32184  1.0000
  C   C62       1.0  0.71795  0.24762  0.31894  1.0000
  H   H51       1.0  0.69407  0.21290  0.30399  1.0000
  C   C63       1.0  0.73790  0.24570  0.29127  1.0000
  O   O9        1.0  0.73418  0.22337  0.27829  1.0000
  H   H52       1.0  0.75140  0.25421  0.34069  1.0000
  H   H53       1.0  0.74403  0.25438  0.22721  1.0000
  H   H54       1.0  0.73129  0.21599  0.33745  1.0000
  N   N1        1.0  0.16357  0.58300  0.33160  1.0000
  C   C64       1.0  0.17663  0.60684  0.32173  1.0000
  C   C65       1.0  0.13960  0.57115  0.33214  1.0000
  C   C66       1.0  0.17616  0.57186  0.34486  1.0000
  C   C67       1.0  0.18943  0.57624  0.42292  1.0000
  C   C68       1.0  0.20685  0.57104  0.42581  1.0000
  C   C69       1.0  0.21140  0.56113  0.35111  1.0000
  C   C70       1.0  0.19708  0.55546  0.27525  1.0000
  C   C71       1.0  0.17979  0.56088  0.27197  1.0000
  C   C72       1.0  0.17791  0.62121  0.39204  1.0000
  C   C73       1.0  0.19481  0.64410  0.39232  1.0000
  C   C74       1.0  0.21147  0.65336  0.32386  1.0000
  C   C75       1.0  0.20923  0.63888  0.25149  1.0000
  C   C76       1.0  0.19199  0.61619  0.24973  1.0000
  C   C77       1.0  0.12748  0.56132  0.41179  1.0000
  C   C78       1.0  0.10372  0.54946  0.41212  1.0000
  C   C79       1.0  0.09109  0.54690  0.33292  1.0000
  C   C80       1.0  0.10355  0.55696  0.25340  1.0000
  C   C81       1.0  0.12732  0.56887  0.25296  1.0000
  H   H55       1.0  0.19531  0.65373  0.44571  1.0000
  H   H56       1.0  0.16737  0.61474  0.44616  1.0000
  H   H57       1.0  0.19196  0.60601  0.19944  1.0000
  H   H58       1.0  0.22108  0.64419  0.20172  1.0000
  H   H59       1.0  0.18776  0.58502  0.47504  1.0000
  H   H60       1.0  0.21689  0.57554  0.48168  1.0000
  H   H61       1.0  0.13598  0.56286  0.47029  1.0000
  H   H62       1.0  0.09569  0.54299  0.47188  1.0000
  H   H63       1.0  0.09539  0.55530  0.19389  1.0000
  H   H64       1.0  0.13571  0.57572  0.19416  1.0000
  H   H65       1.0  0.17111  0.55852  0.21329  1.0000
  H   H66       1.0  0.20027  0.54899  0.21879  1.0000
  N   N2        1.0  0.42715  0.58261  0.33168  1.0000
  C   C82       1.0  0.40332  0.57184  0.32179  1.0000
  C   C83       1.0  0.43900  0.57049  0.33219  1.0000
  C   C84       1.0  0.43830  0.60634  0.34481  1.0000
  C   C85       1.0  0.43390  0.61524  0.42283  1.0000
  C   C86       1.0  0.43915  0.63787  0.42586  1.0000
  C   C87       1.0  0.44905  0.65232  0.35114  1.0000
  C   C88       1.0  0.45469  0.64367  0.27524  1.0000
  C   C89       1.0  0.44930  0.62096  0.27198  1.0000
  C   C90       1.0  0.38894  0.55874  0.39210  1.0000
  C   C91       1.0  0.36606  0.55278  0.39240  1.0000
  C   C92       1.0  0.35680  0.56016  0.32388  1.0000
  C   C93       1.0  0.37128  0.57239  0.25151  1.0000
  C   C94       1.0  0.39397  0.57784  0.24978  1.0000
  C   C95       1.0  0.44885  0.56822  0.41183  1.0000
  C   C96       1.0  0.46070  0.55631  0.41215  1.0000
  C   C97       1.0  0.46326  0.54624  0.33296  1.0000
  C   C98       1.0  0.45319  0.54863  0.25345  1.0000
  C   C99       1.0  0.44127  0.56049  0.25301  1.0000
  H   H67       1.0  0.35642  0.54363  0.44573  1.0000
  H   H68       1.0  0.39541  0.55467  0.44622  1.0000
  H   H69       1.0  0.40415  0.58799  0.19948  1.0000
  H   H70       1.0  0.36597  0.57893  0.20171  1.0000
  H   H71       1.0  0.42519  0.60479  0.47510  1.0000
  H   H72       1.0  0.43468  0.64341  0.48179  1.0000
  H   H73       1.0  0.44731  0.57517  0.47033  1.0000
  H   H74       1.0  0.46718  0.55475  0.47190  1.0000
  H   H75       1.0  0.45484  0.54213  0.19394  1.0000
  H   H76       1.0  0.43442  0.56203  0.19423  1.0000
  H   H77       1.0  0.45163  0.61464  0.21322  1.0000
  H   H78       1.0  0.46115  0.65333  0.21877  1.0000
  N   N3        1.0  0.42755  0.84657  0.33171  1.0000
  C   C100      1.0  0.43832  0.83350  0.32183  1.0000
  C   C101      1.0  0.43966  0.87053  0.33220  1.0000
  C   C102      1.0  0.40380  0.83397  0.34483  1.0000
  C   C103      1.0  0.39493  0.82069  0.42289  1.0000
  C   C104      1.0  0.37231  0.80330  0.42585  1.0000
  C   C105      1.0  0.35784  0.79875  0.35118  1.0000
  C   C106      1.0  0.36649  0.81306  0.27529  1.0000
  C   C107      1.0  0.38920  0.83037  0.27198  1.0000
  C   C108      1.0  0.45143  0.83225  0.39213  1.0000
  C   C109      1.0  0.45741  0.81534  0.39241  1.0000
  C   C110      1.0  0.45003  0.79869  0.32389  1.0000
  C   C111      1.0  0.43779  0.80093  0.25153  1.0000
  C   C112      1.0  0.43232  0.81815  0.24979  1.0000
  C   C113      1.0  0.44192  0.88265  0.41183  1.0000
  C   C114      1.0  0.45383  0.90641  0.41214  1.0000
  C   C115      1.0  0.46391  0.91904  0.33295  1.0000
  C   C116      1.0  0.46153  0.90657  0.25346  1.0000
  C   C117      1.0  0.44966  0.88280  0.25303  1.0000
  H   H79       1.0  0.46657  0.81486  0.44571  1.0000
  H   H80       1.0  0.45550  0.84278  0.44624  1.0000
  H   H81       1.0  0.42217  0.81819  0.19949  1.0000
  H   H82       1.0  0.43126  0.78909  0.20173  1.0000
  H   H83       1.0  0.40538  0.82243  0.47515  1.0000
  H   H84       1.0  0.36674  0.79330  0.48184  1.0000
  H   H85       1.0  0.43497  0.87416  0.47033  1.0000
  H   H86       1.0  0.45538  0.91444  0.47189  1.0000
  H   H87       1.0  0.46803  0.91473  0.19394  1.0000
  H   H88       1.0  0.44814  0.87441  0.19426  1.0000
  H   H89       1.0  0.39552  0.83901  0.21322  1.0000
  H   H90       1.0  0.35684  0.80986  0.21878  1.0000
  N   N4        1.0  0.84857  0.42589  0.33069  1.0000
  C   C118      1.0  0.83557  0.40207  0.32023  1.0000
  C   C119      1.0  0.87252  0.43782  0.33024  1.0000
  C   C120      1.0  0.83597  0.43699  0.34471  1.0000
  C   C121      1.0  0.82270  0.43245  0.42286  1.0000
  C   C122      1.0  0.80521  0.43755  0.42615  1.0000
  C   C123      1.0  0.80056  0.44745  0.35171  1.0000
  C   C124      1.0  0.81488  0.45327  0.27578  1.0000
  C   C125      1.0  0.83226  0.44799  0.27211  1.0000
  C   C126      1.0  0.83449  0.38767  0.39012  1.0000
  C   C127      1.0  0.81762  0.36477  0.39047  1.0000
  C   C128      1.0  0.80084  0.35551  0.32250  1.0000
  C   C129      1.0  0.80291  0.37001  0.25047  1.0000
  C   C130      1.0  0.82011  0.39272  0.24859  1.0000
  C   C131      1.0  0.88484  0.44490  0.41114  1.0000
  C   C132      1.0  0.90860  0.45662  0.41045  1.0000
  C   C133      1.0  0.92106  0.46201  0.32901  1.0000
  C   C134      1.0  0.90833  0.45490  0.24821  1.0000
  C   C135      1.0  0.88456  0.44293  0.24872  1.0000
  H   H91       1.0  0.81725  0.35513  0.44360  1.0000
  H   H92       1.0  0.84508  0.39413  0.44407  1.0000
  H   H93       1.0  0.81999  0.40294  0.19877  1.0000
  H   H94       1.0  0.79096  0.36470  0.20109  1.0000
  H   H95       1.0  0.82450  0.42372  0.47485  1.0000
  H   H96       1.0  0.79521  0.43299  0.48215  1.0000
  H   H97       1.0  0.87649  0.44126  0.47122  1.0000
  H   H98       1.0  0.91674  0.46079  0.47102  1.0000
  H   H99       1.0  0.91626  0.45872  0.18722  1.0000
  H   H100      1.0  0.87601  0.43816  0.18908  1.0000
  H   H101      1.0  0.84086  0.45037  0.21320  1.0000
  H   H102      1.0  0.81158  0.45967  0.21935  1.0000
  N   N5        1.0  0.58426  0.42471  0.33062  1.0000
  C   C136      1.0  0.60808  0.43555  0.32015  1.0000
  C   C137      1.0  0.57232  0.43673  0.33018  1.0000
  C   C138      1.0  0.57317  0.40102  0.34472  1.0000
  C   C139      1.0  0.57771  0.39229  0.42283  1.0000
  C   C140      1.0  0.57263  0.36971  0.42613  1.0000
  C   C141      1.0  0.56272  0.35514  0.35169  1.0000
  C   C142      1.0  0.55692  0.36364  0.27575  1.0000
  C   C143      1.0  0.56218  0.38630  0.27213  1.0000
  C   C144      1.0  0.62248  0.44888  0.39000  1.0000
  C   C145      1.0  0.64538  0.45489  0.39040  1.0000
  C   C146      1.0  0.65464  0.44738  0.32241  1.0000
  C   C147      1.0  0.64014  0.43495  0.25038  1.0000
  C   C148      1.0  0.61743  0.42943  0.24851  1.0000
  C   C149      1.0  0.56524  0.44196  0.41109  1.0000
  C   C150      1.0  0.55353  0.45402  0.41041  1.0000
  C   C151      1.0  0.54814  0.46109  0.32897  1.0000
  C   C152      1.0  0.55526  0.45547  0.24817  1.0000
  C   C153      1.0  0.56723  0.44368  0.24867  1.0000
  H   H103      1.0  0.65501  0.46415  0.44354  1.0000
  H   H104      1.0  0.61602  0.45298  0.44405  1.0000
  H   H105      1.0  0.60721  0.41909  0.19870  1.0000
  H   H106      1.0  0.64545  0.42831  0.20100  1.0000
  H   H107      1.0  0.58645  0.40282  0.47483  1.0000
  H   H108      1.0  0.57719  0.36426  0.48213  1.0000
  H   H109      1.0  0.56888  0.43725  0.47116  1.0000
  H   H110      1.0  0.54934  0.45797  0.47098  1.0000
  H   H111      1.0  0.55143  0.45958  0.18718  1.0000
  H   H112      1.0  0.57199  0.43990  0.18903  1.0000
  H   H113      1.0  0.55978  0.39251  0.21323  1.0000
  H   H114      1.0  0.55049  0.35394  0.21936  1.0000
  N   N6        1.0  0.58544  0.16156  0.33072  1.0000
  C   C154      1.0  0.57461  0.17455  0.32022  1.0000
  C   C155      1.0  0.57342  0.13761  0.33025  1.0000
  C   C156      1.0  0.60914  0.17416  0.34475  1.0000
  C   C157      1.0  0.61786  0.18742  0.42292  1.0000
  C   C158      1.0  0.64044  0.20493  0.42617  1.0000
  C   C159      1.0  0.65501  0.20958  0.35174  1.0000
  C   C160      1.0  0.64649  0.19529  0.27576  1.0000
  C   C161      1.0  0.62385  0.17785  0.27218  1.0000
  C   C162      1.0  0.56128  0.17563  0.39005  1.0000
  C   C163      1.0  0.55527  0.19252  0.39043  1.0000
  C   C164      1.0  0.56281  0.20930  0.32246  1.0000
  C   C165      1.0  0.57522  0.20722  0.25041  1.0000
  C   C166      1.0  0.58074  0.19002  0.24857  1.0000
  C   C167      1.0  0.56819  0.12529  0.41115  1.0000
  C   C168      1.0  0.55612  0.10152  0.41045  1.0000
  C   C169      1.0  0.54906  0.08907  0.32901  1.0000
  C   C170      1.0  0.55469  0.10180  0.24821  1.0000
  C   C171      1.0  0.56647  0.12557  0.24873  1.0000
  H   H115      1.0  0.54602  0.19290  0.44357  1.0000
  H   H116      1.0  0.55717  0.16507  0.44409  1.0000
  H   H117      1.0  0.59108  0.19014  0.19878  1.0000
  H   H118      1.0  0.58188  0.21918  0.20107  1.0000
  H   H119      1.0  0.60731  0.18564  0.47481  1.0000
  H   H120      1.0  0.64589  0.21493  0.48217  1.0000
  H   H121      1.0  0.57289  0.13364  0.47123  1.0000
  H   H122      1.0  0.55217  0.09339  0.47102  1.0000
  H   H123      1.0  0.55057  0.09388  0.18722  1.0000
  H   H124      1.0  0.57026  0.13412  0.18909  1.0000
  H   H125      1.0  0.61762  0.16926  0.21327  1.0000
  H   H126      1.0  0.65621  0.19854  0.21942  1.0000
  C   C172      1.0  0.98198  0.50247  0.39234  1.0000
  C   C173      1.0  0.95826  0.49100  0.39232  1.0000
  H   H127      1.0  0.99042  0.51455  0.44020  1.0000
  H   H128      1.0  0.95041  0.49555  0.43935  1.0000
  C   C174      1.0  0.01823  0.50955  0.33292  1.0000
  C   C175      1.0  0.06674  0.53448  0.33310  1.0000
  C   C176      1.0  0.05442  0.51444  0.38395  1.0000
  C   C177      1.0  0.03049  0.50176  0.38470  1.0000
  H   H129      1.0  0.06322  0.50873  0.42017  1.0000
  C   C178      1.0  0.01827  0.48074  0.43966  1.0000
  O   O10       1.0  0.03182  0.47362  0.48717  1.0000
  H   H130      1.0  0.00647  0.46684  0.39685  1.0000
  H   H131      1.0  0.00841  0.48352  0.49043  1.0000
  H   H132      1.0  0.03854  0.46803  0.44288  1.0000
  C   C179      1.0  0.50768  0.48155  0.39229  1.0000
  C   C180      1.0  0.51914  0.46929  0.39225  1.0000
  H   H133      1.0  0.49559  0.47789  0.44016  1.0000
  H   H134      1.0  0.51459  0.45688  0.43929  1.0000
  C   C181      1.0  0.50061  0.51072  0.33291  1.0000
  C   C182      1.0  0.47568  0.53431  0.33312  1.0000
  C   C183      1.0  0.49572  0.54202  0.38393  1.0000
  C   C184      1.0  0.50840  0.53077  0.38469  1.0000
  H   H135      1.0  0.50143  0.55653  0.42017  1.0000
  C   C185      1.0  0.52941  0.53956  0.43964  1.0000
  O   O11       1.0  0.53654  0.56024  0.48715  1.0000
  H   H136      1.0  0.54332  0.54167  0.39682  1.0000
  H   H137      1.0  0.52664  0.52693  0.49040  1.0000
  H   H138      1.0  0.54212  0.57255  0.44287  1.0000
  C   C186      1.0  0.52859  0.02815  0.39232  1.0000
  C   C187      1.0  0.54085  0.05187  0.39231  1.0000
  H   H139      1.0  0.53225  0.01971  0.44019  1.0000
  H   H140      1.0  0.55326  0.05972  0.43934  1.0000
  C   C188      1.0  0.49943  0.99190  0.33291  1.0000
  C   C189      1.0  0.47584  0.94339  0.33311  1.0000
  C   C190      1.0  0.46812  0.95571  0.38391  1.0000
  C   C191      1.0  0.47937  0.97965  0.38465  1.0000
  H   H141      1.0  0.45360  0.94692  0.42010  1.0000
  C   C192      1.0  0.47057  0.99187  0.43956  1.0000
  O   O12       1.0  0.44989  0.97832  0.48704  1.0000
  H   H142      1.0  0.46847  0.00367  0.39673  1.0000
  H   H143      1.0  0.48319  0.00173  0.49035  1.0000
  H   H144      1.0  0.43758  0.97159  0.44273  1.0000
  C   C193      1.0  0.33433  0.55692  0.33004  1.0000
  C   C194      1.0  0.32461  0.55707  0.41403  1.0000
  C   C195      1.0  0.30311  0.55518  0.42189  1.0000
  C   C196      1.0  0.29091  0.55377  0.34229  1.0000
  C   C197      1.0  0.27163  0.57486  0.36987  1.0000
  C   C198      1.0  0.25224  0.57685  0.37366  1.0000
  H   H145      1.0  0.28679  0.58856  0.38695  1.0000
  H   H146      1.0  0.25397  0.59202  0.39225  1.0000
  H   H147      1.0  0.33360  0.55920  0.47169  1.0000
  C   C199      1.0  0.29444  0.55460  0.51433  1.0000
  O   O13       1.0  0.30765  0.57619  0.55549  1.0000
  H   H148      1.0  0.27674  0.55012  0.51446  1.0000
  H   H149      1.0  0.29559  0.54172  0.55370  1.0000
  H   H150      1.0  0.30192  0.57523  0.61694  1.0000
  C   C200      1.0  0.45328  0.77947  0.33005  1.0000
  C   C201      1.0  0.45313  0.76961  0.41404  1.0000
  C   C202      1.0  0.45504  0.75001  0.42191  1.0000
  C   C203      1.0  0.45645  0.73922  0.34233  1.0000
  C   C204      1.0  0.43536  0.69885  0.36998  1.0000
  C   C205      1.0  0.43336  0.67747  0.37383  1.0000
  H   H151      1.0  0.42166  0.70031  0.38708  1.0000
  H   H152      1.0  0.41819  0.66403  0.39238  1.0000
  H   H153      1.0  0.45100  0.77646  0.47170  1.0000
  C   C206      1.0  0.45562  0.74192  0.51437  1.0000
  O   O14       1.0  0.43402  0.73352  0.55551  1.0000
  H   H154      1.0  0.46011  0.72872  0.51451  1.0000
  H   H155      1.0  0.46849  0.75595  0.55373  1.0000
  H   H156      1.0  0.43499  0.72876  0.61697  1.0000
  C   C207      1.0  0.23070  0.67582  0.33003  1.0000
  C   C208      1.0  0.24056  0.68555  0.41404  1.0000
  C   C209      1.0  0.26017  0.70705  0.42191  1.0000
  C   C210      1.0  0.27096  0.71924  0.34233  1.0000
  C   C211      1.0  0.31133  0.73853  0.36998  1.0000
  C   C212      1.0  0.33271  0.75792  0.37378  1.0000
  H   H157      1.0  0.30987  0.72337  0.38708  1.0000
  H   H158      1.0  0.34615  0.75619  0.39240  1.0000
  H   H159      1.0  0.23370  0.67656  0.47169  1.0000
  C   C213      1.0  0.26825  0.71572  0.51437  1.0000
  O   O15       1.0  0.27664  0.70251  0.55554  1.0000
  H   H160      1.0  0.28146  0.73341  0.51451  1.0000
  H   H161      1.0  0.25421  0.71456  0.55371  1.0000
  H   H162      1.0  0.28140  0.70824  0.61699  1.0000
  C   C214      1.0  0.67713  0.45068  0.32888  1.0000
  C   C215      1.0  0.68685  0.45071  0.41308  1.0000
  C   C216      1.0  0.70840  0.45274  0.42131  1.0000
  C   C217      1.0  0.72065  0.45411  0.34192  1.0000
  C   C218      1.0  0.74020  0.43332  0.37045  1.0000
  C   C219      1.0  0.75969  0.43151  0.37461  1.0000
  H   H163      1.0  0.72510  0.41956  0.38755  1.0000
  H   H164      1.0  0.75808  0.41640  0.39331  1.0000
  H   H165      1.0  0.67785  0.44863  0.47063  1.0000
  C   C220      1.0  0.71708  0.45351  0.51391  1.0000
  O   O16       1.0  0.70395  0.43197  0.55555  1.0000
  H   H166      1.0  0.73480  0.45808  0.51425  1.0000
  H   H167      1.0  0.71584  0.46641  0.55280  1.0000
  H   H168      1.0  0.70968  0.43305  0.61709  1.0000
  C   C221      1.0  0.55951  0.22849  0.32892  1.0000
  C   C222      1.0  0.55948  0.23819  0.41311  1.0000
  C   C223      1.0  0.55745  0.25771  0.42134  1.0000
  C   C224      1.0  0.55609  0.26859  0.34194  1.0000
  C   C225      1.0  0.57688  0.30893  0.37043  1.0000
  C   C226      1.0  0.57868  0.33023  0.37452  1.0000
  H   H169      1.0  0.59063  0.30758  0.38755  1.0000
  H   H170      1.0  0.59378  0.34373  0.39330  1.0000
  H   H171      1.0  0.56155  0.23126  0.47067  1.0000
  C   C227      1.0  0.55668  0.26561  0.51393  1.0000
  O   O17       1.0  0.57822  0.27403  0.55558  1.0000
  H   H172      1.0  0.55211  0.27877  0.51426  1.0000
  H   H173      1.0  0.54378  0.25149  0.55282  1.0000
  H   H174      1.0  0.57713  0.27867  0.61712  1.0000
  C   C228      1.0  0.78166  0.33302  0.32894  1.0000
  C   C229      1.0  0.77196  0.32329  0.41313  1.0000
  C   C230      1.0  0.75245  0.30174  0.42136  1.0000
  C   C231      1.0  0.74157  0.28949  0.34196  1.0000
  C   C232      1.0  0.70123  0.26994  0.37049  1.0000
  C   C233      1.0  0.67993  0.25045  0.37464  1.0000
  H   H175      1.0  0.70257  0.28505  0.38759  1.0000
  H   H176      1.0  0.66643  0.25206  0.39335  1.0000
  H   H177      1.0  0.77889  0.33229  0.47069  1.0000
  C   C234      1.0  0.74454  0.29306  0.51395  1.0000
  O   O18       1.0  0.73612  0.30618  0.55560  1.0000
  H   H178      1.0  0.73140  0.27533  0.51428  1.0000
  H   H179      1.0  0.75867  0.29430  0.55284  1.0000
  H   H180      1.0  0.73149  0.30045  0.61714  1.0000
