data_image0
_chemical_formula_structural       C7HNO2CHC3HNO2CHC3HNO2CHC3HNO2CHC3HNO2CHC3HNO2CHC3HNO2CHC3HNO2CHC3HNO2CHC3HNO2CHC3HNO2CHC3HNO2CHC3HNO2CHC3HNO2CHC3HNO2CHC3HNO2CHC3HNO2CHC3HNO2CHCNCNCN4CNCNCN4CNCNCN4CNCNCN5CNCN5CNCN5CNCN5CNCN4CNCNCN4CNCNCN4CNCNCN4CNCNCN4C3HNO2CHC3HNO2CHC3HNO2CHC3HNO2CHC3HNO2CHC3HNO2CHC3HNO2CHC3HNO2CHC3HNO2CHC3HNO2CHC3HNO2CHC3HNO2CHC3HNO2CHC3HNO2CHC3HNO2CHC3HNO2CHC3HNO2CHC3HNO2CH
_chemical_formula_sum              "C180 H72 N108 O72"
_cell_length_a       51.8843
_cell_length_b       51.6453
_cell_length_c       14.627
_cell_angle_alpha    90
_cell_angle_beta     90
_cell_angle_gamma    90.2633

_space_group_name_H-M_alt    "P 1"
_space_group_IT_number       1

loop_
  _space_group_symop_operation_xyz
  'x, y, z'

loop_
  _atom_site_type_symbol
  _atom_site_label
  _atom_site_symmetry_multiplicity
  _atom_site_fract_x
  _atom_site_fract_y
  _atom_site_fract_z
  _atom_site_occupancy
  C   C1        1.0  0.05383  0.20460  0.35714  1.0000
  C   C2        1.0  0.96737  0.81758  0.35797  1.0000
  C   C3        1.0  0.81599  0.05427  0.35737  1.0000
  C   C4        1.0  0.20521  0.96794  0.35872  1.0000
  C   C5        1.0  0.98929  0.52750  0.34819  1.0000
  C   C6        1.0  0.99817  0.51315  0.27127  1.0000
  C   C7        1.0  0.02034  0.49715  0.27867  1.0000
  H   H1        1.0  0.02661  0.48739  0.22201  1.0000
  N   N1        1.0  0.98494  0.51545  0.18687  1.0000
  O   O1        1.0  0.99928  0.52474  0.12573  1.0000
  O   O2        1.0  0.97632  0.49399  0.16000  1.0000
  C   C8        1.0  0.96603  0.54129  0.34344  1.0000
  H   H2        1.0  0.95017  0.53126  0.32856  1.0000
  C   C9        1.0  0.49403  0.98827  0.34915  1.0000
  C   C10       1.0  0.50849  0.99716  0.27237  1.0000
  C   C11       1.0  0.52459  0.01946  0.27976  1.0000
  H   H3        1.0  0.53441  0.02573  0.22316  1.0000
  N   N2        1.0  0.50620  0.98379  0.18806  1.0000
  O   O3        1.0  0.49715  0.99813  0.12664  1.0000
  O   O4        1.0  0.52753  0.97513  0.16162  1.0000
  C   C12       1.0  0.48008  0.96489  0.34437  1.0000
  H   H4        1.0  0.48992  0.94896  0.32938  1.0000
  C   C13       1.0  0.07035  0.32982  0.34519  1.0000
  C   C14       1.0  0.06573  0.31453  0.26673  1.0000
  C   C15       1.0  0.06044  0.28757  0.27255  1.0000
  H   H5        1.0  0.06516  0.32327  0.20389  1.0000
  N   N3        1.0  0.05500  0.27295  0.19275  1.0000
  O   O5        1.0  0.07381  0.27310  0.13858  1.0000
  O   O6        1.0  0.03554  0.28138  0.15140  1.0000
  C   C16       1.0  0.07096  0.35679  0.33826  1.0000
  H   H6        1.0  0.05569  0.36536  0.31065  1.0000
  C   C17       1.0  0.95146  0.69222  0.34831  1.0000
  C   C18       1.0  0.95607  0.70729  0.26932  1.0000
  C   C19       1.0  0.96121  0.73430  0.27423  1.0000
  H   H7        1.0  0.95686  0.69836  0.20687  1.0000
  N   N4        1.0  0.96671  0.74870  0.19400  1.0000
  O   O7        1.0  0.94801  0.74828  0.13940  1.0000
  O   O8        1.0  0.98630  0.74025  0.15343  1.0000
  C   C20       1.0  0.95119  0.66523  0.34239  1.0000
  H   H8        1.0  0.96683  0.65676  0.31714  1.0000
  C   C21       1.0  0.69135  0.07083  0.34625  1.0000
  C   C22       1.0  0.70630  0.06594  0.26742  1.0000
  C   C23       1.0  0.73310  0.06057  0.27248  1.0000
  H   H9        1.0  0.69741  0.06513  0.20495  1.0000
  N   N5        1.0  0.74735  0.05483  0.19235  1.0000
  O   O9        1.0  0.74725  0.07355  0.13745  1.0000
  O   O10       1.0  0.73862  0.03516  0.15210  1.0000
  C   C24       1.0  0.66447  0.07129  0.34019  1.0000
  H   H10       1.0  0.65581  0.05565  0.31466  1.0000
  C   C25       1.0  0.32973  0.95079  0.34921  1.0000
  C   C26       1.0  0.31470  0.95539  0.27034  1.0000
  C   C27       1.0  0.28793  0.96088  0.27550  1.0000
  H   H11       1.0  0.32352  0.95588  0.20771  1.0000
  N   N6        1.0  0.27359  0.96633  0.19531  1.0000
  O   O11       1.0  0.27354  0.94737  0.14145  1.0000
  O   O12       1.0  0.28235  0.98578  0.15383  1.0000
  C   C28       1.0  0.35659  0.95021  0.34293  1.0000
  H   H12       1.0  0.36527  0.96573  0.31662  1.0000
  C   C29       1.0  0.46036  0.77511  0.35529  1.0000
  C   C30       1.0  0.46051  0.79193  0.27809  1.0000
  C   C31       1.0  0.45060  0.81747  0.28562  1.0000
  H   H13       1.0  0.45038  0.82905  0.22882  1.0000
  N   N7        1.0  0.47002  0.78267  0.19333  1.0000
  O   O13       1.0  0.45276  0.78257  0.13302  1.0000
  O   O14       1.0  0.48872  0.79602  0.16530  1.0000
  C   C32       1.0  0.47192  0.75068  0.34996  1.0000
  H   H14       1.0  0.49049  0.75001  0.33334  1.0000
  C   C33       1.0  0.56081  0.24652  0.35888  1.0000
  C   C34       1.0  0.56066  0.22973  0.28160  1.0000
  C   C35       1.0  0.57052  0.20417  0.28901  1.0000
  H   H15       1.0  0.57075  0.19262  0.23212  1.0000
  N   N8        1.0  0.55116  0.23902  0.19687  1.0000
  O   O15       1.0  0.56842  0.23910  0.13654  1.0000
  O   O16       1.0  0.53244  0.22571  0.16882  1.0000
  C   C36       1.0  0.54914  0.27093  0.35370  1.0000
  H   H16       1.0  0.53056  0.27146  0.33718  1.0000
  C   C37       1.0  0.77721  0.55933  0.35389  1.0000
  C   C38       1.0  0.79374  0.55946  0.27620  1.0000
  C   C39       1.0  0.81919  0.56961  0.28328  1.0000
  H   H17       1.0  0.83059  0.57006  0.22617  1.0000
  N   N9        1.0  0.78429  0.55002  0.19152  1.0000
  O   O17       1.0  0.78404  0.56750  0.13173  1.0000
  O   O18       1.0  0.79748  0.53141  0.16251  1.0000
  C   C40       1.0  0.75280  0.54773  0.34899  1.0000
  H   H18       1.0  0.75190  0.52887  0.33584  1.0000
  C   C41       1.0  0.24618  0.45988  0.35780  1.0000
  C   C42       1.0  0.22951  0.46003  0.28044  1.0000
  C   C43       1.0  0.20389  0.45038  0.28807  1.0000
  H   H19       1.0  0.19239  0.45015  0.23118  1.0000
  N   N10       1.0  0.23895  0.46931  0.19549  1.0000
  O   O19       1.0  0.23872  0.45185  0.13562  1.0000
  O   O20       1.0  0.22606  0.48818  0.16690  1.0000
  C   C44       1.0  0.27067  0.47135  0.35240  1.0000
  H   H20       1.0  0.27154  0.49002  0.33595  1.0000
  C   C45       1.0  0.11664  0.11293  0.35651  1.0000
  C   C46       1.0  0.12823  0.10071  0.28064  1.0000
  C   C47       1.0  0.13842  0.07529  0.28661  1.0000
  H   H21       1.0  0.12836  0.10993  0.21865  1.0000
  N   N11       1.0  0.14824  0.06270  0.20793  1.0000
  O   O21       1.0  0.16692  0.07494  0.17409  1.0000
  O   O22       1.0  0.13118  0.05995  0.14762  1.0000
  C   C48       1.0  0.10530  0.13719  0.34773  1.0000
  H   H22       1.0  0.11521  0.15161  0.31934  1.0000
  C   C49       1.0  0.90460  0.90936  0.35550  1.0000
  C   C50       1.0  0.89325  0.92167  0.27937  1.0000
  C   C51       1.0  0.88314  0.94712  0.28522  1.0000
  H   H23       1.0  0.89330  0.91252  0.21726  1.0000
  N   N12       1.0  0.87359  0.95982  0.20632  1.0000
  O   O23       1.0  0.85497  0.94767  0.17166  1.0000
  O   O24       1.0  0.89082  0.96256  0.14667  1.0000
  C   C52       1.0  0.91590  0.88507  0.34689  1.0000
  H   H24       1.0  0.90602  0.87070  0.31806  1.0000
  C   C53       1.0  0.90825  0.11710  0.35646  1.0000
  C   C54       1.0  0.92069  0.12848  0.28047  1.0000
  C   C55       1.0  0.94632  0.13813  0.28610  1.0000
  H   H25       1.0  0.91147  0.12879  0.21857  1.0000
  N   N13       1.0  0.95906  0.14778  0.20732  1.0000
  O   O25       1.0  0.94743  0.16685  0.17389  1.0000
  O   O26       1.0  0.96117  0.13065  0.14677  1.0000
  C   C56       1.0  0.88381  0.10611  0.34786  1.0000
  H   H26       1.0  0.86969  0.11623  0.31931  1.0000
  C   C57       1.0  0.11282  0.90531  0.35746  1.0000
  C   C58       1.0  0.10066  0.89333  0.28202  1.0000
  C   C59       1.0  0.07504  0.88366  0.28746  1.0000
  H   H27       1.0  0.11010  0.89255  0.22061  1.0000
  N   N14       1.0  0.06259  0.87340  0.20909  1.0000
  O   O27       1.0  0.06062  0.89007  0.14693  1.0000
  O   O28       1.0  0.07437  0.85412  0.17791  1.0000
  C   C60       1.0  0.13728  0.91626  0.34892  1.0000
  H   H28       1.0  0.15144  0.90604  0.32102  1.0000
  C   C61       1.0  0.38372  0.56089  0.34770  1.0000
  C   C62       1.0  0.39454  0.57337  0.26982  1.0000
  C   C63       1.0  0.40437  0.59895  0.27751  1.0000
  H   H29       1.0  0.41243  0.60751  0.22113  1.0000
  N   N15       1.0  0.39577  0.55993  0.18535  1.0000
  O   O29       1.0  0.38333  0.57144  0.12396  1.0000
  O   O30       1.0  0.41863  0.55711  0.15888  1.0000
  C   C64       1.0  0.37820  0.53449  0.34384  1.0000
  H   H30       1.0  0.39302  0.52288  0.33090  1.0000
  C   C65       1.0  0.63645  0.46140  0.35410  1.0000
  C   C66       1.0  0.62502  0.44920  0.27675  1.0000
  C   C67       1.0  0.61485  0.42375  0.28456  1.0000
  H   H31       1.0  0.60646  0.41536  0.22845  1.0000
  N   N16       1.0  0.62362  0.46276  0.19255  1.0000
  O   O31       1.0  0.63563  0.45115  0.13034  1.0000
  O   O32       1.0  0.60069  0.46592  0.16734  1.0000
  C   C68       1.0  0.64275  0.48766  0.34996  1.0000
  H   H32       1.0  0.62828  0.49971  0.33714  1.0000
  C   C69       1.0  0.55893  0.63477  0.34509  1.0000
  C   C70       1.0  0.57373  0.62656  0.26854  1.0000
  C   C71       1.0  0.59643  0.61181  0.28213  1.0000
  H   H33       1.0  0.60593  0.60470  0.22618  1.0000
  N   N17       1.0  0.56482  0.63207  0.17894  1.0000
  O   O33       1.0  0.58099  0.64521  0.13466  1.0000
  O   O34       1.0  0.55982  0.61176  0.13495  1.0000
  C   C72       1.0  0.53361  0.64286  0.33169  1.0000
  H   H34       1.0  0.52192  0.62994  0.30249  1.0000
  C   C73       1.0  0.45938  0.38371  0.34990  1.0000
  C   C74       1.0  0.44706  0.39478  0.27237  1.0000
  C   C75       1.0  0.42168  0.40462  0.28033  1.0000
  H   H35       1.0  0.41323  0.41285  0.22419  1.0000
  N   N18       1.0  0.46046  0.39626  0.18797  1.0000
  O   O35       1.0  0.44892  0.38392  0.12615  1.0000
  O   O36       1.0  0.46344  0.41930  0.16228  1.0000
  C   C76       1.0  0.48566  0.37830  0.34599  1.0000
  H   H36       1.0  0.49723  0.39330  0.33320  1.0000
  C   C77       1.0  0.07916  0.44016  0.35188  1.0000
  N   N19       1.0  0.07454  0.41413  0.35395  1.0000
  C   C78       1.0  0.09402  0.39646  0.35856  1.0000
  N   N20       1.0  0.11866  0.40556  0.36074  1.0000
  C   C79       1.0  0.12433  0.43136  0.35794  1.0000
  N   N21       1.0  0.10427  0.44831  0.35320  1.0000
  N   N22       1.0  0.05896  0.45632  0.34785  1.0000
  N   N23       1.0  0.14862  0.44035  0.35622  1.0000
  N   N24       1.0  0.09047  0.37078  0.36208  1.0000
  C   C80       1.0  0.94382  0.58186  0.35494  1.0000
  N   N25       1.0  0.94808  0.60793  0.35881  1.0000
  C   C81       1.0  0.92834  0.62536  0.36031  1.0000
  N   N26       1.0  0.90382  0.61596  0.35895  1.0000
  C   C82       1.0  0.89851  0.59008  0.35512  1.0000
  N   N27       1.0  0.91882  0.57339  0.35293  1.0000
  N   N28       1.0  0.96425  0.56598  0.35621  1.0000
  N   N29       1.0  0.87438  0.58069  0.35230  1.0000
  N   N30       1.0  0.93155  0.65109  0.36385  1.0000
  C   C83       1.0  0.58149  0.07902  0.35268  1.0000
  N   N31       1.0  0.60741  0.07464  0.35457  1.0000
  C   C84       1.0  0.62502  0.09438  0.35899  1.0000
  N   N32       1.0  0.61594  0.11905  0.36111  1.0000
  C   C85       1.0  0.59024  0.12450  0.35845  1.0000
  N   N33       1.0  0.57338  0.10418  0.35394  1.0000
  N   N34       1.0  0.56537  0.05859  0.34869  1.0000
  N   N35       1.0  0.58119  0.14880  0.35683  1.0000
  N   N36       1.0  0.65061  0.09101  0.36218  1.0000
  C   C86       1.0  0.43947  0.94256  0.35605  1.0000
  N   N37       1.0  0.41357  0.94690  0.35999  1.0000
  C   C87       1.0  0.39597  0.92712  0.36168  1.0000
  N   N38       1.0  0.40505  0.90245  0.36052  1.0000
  C   C88       1.0  0.43075  0.89705  0.35665  1.0000
  N   N39       1.0  0.44760  0.91742  0.35420  1.0000
  N   N40       1.0  0.45550  0.96307  0.35726  1.0000
  N   N41       1.0  0.43983  0.87278  0.35383  1.0000
  N   N42       1.0  0.37039  0.93050  0.36538  1.0000
  N   N43       1.0  0.07204  0.18561  0.35921  1.0000
  C   C89       1.0  0.06531  0.16008  0.36400  1.0000
  N   N44       1.0  0.03993  0.15387  0.36627  1.0000
  C   C90       1.0  0.02104  0.17202  0.36342  1.0000
  N   N45       1.0  0.02841  0.19736  0.35865  1.0000
  N   N46       1.0  0.06167  0.22934  0.35264  1.0000
  N   N47       1.0  0.99606  0.16531  0.36252  1.0000
  N   N48       1.0  0.08141  0.14022  0.36830  1.0000
  N   N49       1.0  0.94913  0.83655  0.35967  1.0000
  C   C91       1.0  0.95583  0.86210  0.36413  1.0000
  N   N50       1.0  0.98119  0.86834  0.36653  1.0000
  C   C92       1.0  0.00011  0.85022  0.36407  1.0000
  N   N51       1.0  0.99277  0.82487  0.35960  1.0000
  N   N52       1.0  0.95957  0.79281  0.35393  1.0000
  N   N53       1.0  0.02507  0.85698  0.36342  1.0000
  N   N54       1.0  0.93973  0.88196  0.36811  1.0000
  N   N55       1.0  0.83498  0.07266  0.35949  1.0000
  C   C93       1.0  0.86037  0.06602  0.36398  1.0000
  N   N56       1.0  0.86643  0.04057  0.36599  1.0000
  C   C94       1.0  0.84832  0.02147  0.36317  1.0000
  N   N57       1.0  0.82311  0.02876  0.35864  1.0000
  N   N58       1.0  0.79139  0.06209  0.35326  1.0000
  N   N59       1.0  0.85510  0.99645  0.36206  1.0000
  N   N60       1.0  0.88030  0.08214  0.36824  1.0000
  N   N61       1.0  0.18618  0.94960  0.36052  1.0000
  C   C95       1.0  0.16081  0.95632  0.36485  1.0000
  N   N62       1.0  0.15482  0.98178  0.36698  1.0000
  C   C96       1.0  0.17298  0.00083  0.36445  1.0000
  N   N63       1.0  0.19817  0.99348  0.36010  1.0000
  N   N64       1.0  0.22978  0.96004  0.35472  1.0000
  N   N65       1.0  0.16625  0.02587  0.36342  1.0000
  N   N66       1.0  0.14083  0.94024  0.36892  1.0000
  C   C97       1.0  0.46716  0.70465  0.35945  1.0000
  N   N67       1.0  0.44870  0.68573  0.35689  1.0000
  C   C98       1.0  0.45512  0.66019  0.35320  1.0000
  N   N68       1.0  0.48039  0.65392  0.35233  1.0000
  C   C99       1.0  0.49952  0.67199  0.35507  1.0000
  N   N69       1.0  0.49251  0.69738  0.35953  1.0000
  N   N70       1.0  0.45941  0.72933  0.36262  1.0000
  N   N71       1.0  0.52420  0.66460  0.35950  1.0000
  N   N72       1.0  0.43893  0.64028  0.34905  1.0000
  C   C100      1.0  0.55342  0.31701  0.36329  1.0000
  N   N73       1.0  0.57156  0.33626  0.36220  1.0000
  C   C101      1.0  0.56473  0.36173  0.35846  1.0000
  N   N74       1.0  0.53934  0.36756  0.35603  1.0000
  C   C102      1.0  0.52052  0.34916  0.35777  1.0000
  N   N75       1.0  0.52797  0.32389  0.36163  1.0000
  N   N76       1.0  0.56147  0.29240  0.36642  1.0000
  N   N77       1.0  0.49554  0.35565  0.35841  1.0000
  N   N78       1.0  0.58066  0.38189  0.35508  1.0000
  C   C103      1.0  0.70706  0.55330  0.35692  1.0000
  N   N79       1.0  0.68887  0.57227  0.35430  1.0000
  C   C104      1.0  0.66322  0.56667  0.35449  1.0000
  N   N80       1.0  0.65606  0.54132  0.35599  1.0000
  C   C105      1.0  0.67340  0.52166  0.35841  1.0000
  N   N81       1.0  0.69894  0.52806  0.35931  1.0000
  N   N82       1.0  0.73178  0.56066  0.35899  1.0000
  N   N83       1.0  0.66575  0.49685  0.36071  1.0000
  N   N84       1.0  0.64563  0.58543  0.34944  1.0000
  C   C106      1.0  0.31640  0.46663  0.36150  1.0000
  N   N85       1.0  0.33530  0.44831  0.35999  1.0000
  C   C107      1.0  0.36072  0.45507  0.35596  1.0000
  N   N86       1.0  0.36690  0.48055  0.35363  1.0000
  C   C108      1.0  0.34883  0.49953  0.35579  1.0000
  N   N87       1.0  0.32360  0.49216  0.35992  1.0000
  N   N88       1.0  0.29180  0.45873  0.36486  1.0000
  N   N89       1.0  0.35557  0.52459  0.35641  1.0000
  N   N90       1.0  0.38055  0.43897  0.35209  1.0000
  C   C109      1.0  0.03422  0.49478  0.36128  1.0000
  C   C110      1.0  0.02542  0.50941  0.43671  1.0000
  C   C111      1.0  0.00313  0.52528  0.43182  1.0000
  H   H37       1.0  0.03518  0.50832  0.49744  1.0000
  N   N91       1.0  0.99424  0.53873  0.51010  1.0000
  O   O37       1.0  0.01089  0.55440  0.53948  1.0000
  O   O38       1.0  0.98825  0.52339  0.57340  1.0000
  C   C112      1.0  0.05716  0.48065  0.36727  1.0000
  H   H38       1.0  0.07261  0.48983  0.39155  1.0000
  C   C113      1.0  0.52694  0.03350  0.36221  1.0000
  C   C114      1.0  0.51224  0.02467  0.43755  1.0000
  C   C115      1.0  0.49627  0.00225  0.43265  1.0000
  H   H39       1.0  0.51332  0.03453  0.49817  1.0000
  N   N92       1.0  0.48273  0.99336  0.51083  1.0000
  O   O39       1.0  0.46724  0.01009  0.53986  1.0000
  O   O40       1.0  0.49789  0.98742  0.57438  1.0000
  C   C116      1.0  0.54114  0.05661  0.36815  1.0000
  H   H40       1.0  0.53206  0.07209  0.39239  1.0000
  C   C117      1.0  0.05953  0.27523  0.35942  1.0000
  C   C118      1.0  0.06474  0.29028  0.43893  1.0000
  C   C119      1.0  0.07032  0.31717  0.43081  1.0000
  H   H41       1.0  0.07284  0.32788  0.48906  1.0000
  N   N93       1.0  0.06351  0.27825  0.52600  1.0000
  O   O41       1.0  0.08476  0.27966  0.56698  1.0000
  O   O42       1.0  0.04644  0.28818  0.57566  1.0000
  C   C120      1.0  0.04901  0.25035  0.36781  1.0000
  H   H42       1.0  0.03063  0.24919  0.38672  1.0000
  C   C121      1.0  0.96190  0.74691  0.36063  1.0000
  C   C122      1.0  0.95665  0.73208  0.44061  1.0000
  C   C123      1.0  0.95127  0.70512  0.43343  1.0000
  H   H43       1.0  0.94876  0.69457  0.49204  1.0000
  N   N94       1.0  0.95769  0.74437  0.52724  1.0000
  O   O43       1.0  0.93639  0.74295  0.56789  1.0000
  O   O44       1.0  0.97476  0.73470  0.57756  1.0000
  C   C124      1.0  0.97237  0.77184  0.36827  1.0000
  H   H44       1.0  0.99085  0.77305  0.38593  1.0000
  C   C125      1.0  0.74564  0.05990  0.35890  1.0000
  C   C126      1.0  0.73095  0.06540  0.43873  1.0000
  C   C127      1.0  0.70420  0.07100  0.43139  1.0000
  H   H45       1.0  0.69373  0.07372  0.48992  1.0000
  N   N95       1.0  0.74316  0.06439  0.52538  1.0000
  O   O45       1.0  0.74209  0.08584  0.56568  1.0000
  O   O46       1.0  0.73325  0.04738  0.57597  1.0000
  C   C128      1.0  0.77032  0.04927  0.36658  1.0000
  H   H46       1.0  0.77128  0.03063  0.38335  1.0000
  C   C129      1.0  0.27552  0.96199  0.36209  1.0000
  C   C130      1.0  0.29028  0.95676  0.44199  1.0000
  C   C131      1.0  0.31699  0.95102  0.43455  1.0000
  H   H47       1.0  0.32752  0.94850  0.49305  1.0000
  N   N96       1.0  0.27818  0.95815  0.52878  1.0000
  O   O47       1.0  0.27922  0.93683  0.57005  1.0000
  O   O48       1.0  0.28823  0.97530  0.57842  1.0000
  C   C132      1.0  0.25086  0.97269  0.36980  1.0000
  H   H48       1.0  0.24992  0.99120  0.38825  1.0000
  C   C133      1.0  0.44044  0.82699  0.36855  1.0000
  C   C134      1.0  0.44007  0.80997  0.44422  1.0000
  C   C135      1.0  0.45013  0.78447  0.43918  1.0000
  H   H49       1.0  0.43249  0.81620  0.50496  1.0000
  N   N97       1.0  0.45029  0.76824  0.51731  1.0000
  O   O49       1.0  0.42787  0.76408  0.54654  1.0000
  O   O50       1.0  0.46357  0.77784  0.58076  1.0000
  C   C136      1.0  0.42857  0.85117  0.37429  1.0000
  H   H50       1.0  0.41060  0.85155  0.39793  1.0000
  C   C137      1.0  0.58063  0.19457  0.37191  1.0000
  C   C138      1.0  0.58099  0.21155  0.44770  1.0000
  C   C139      1.0  0.57095  0.23707  0.44278  1.0000
  H   H51       1.0  0.58851  0.20526  0.50846  1.0000
  N   N98       1.0  0.57072  0.25323  0.52110  1.0000
  O   O51       1.0  0.59311  0.25731  0.55075  1.0000
  O   O52       1.0  0.55735  0.24356  0.58420  1.0000
  C   C140      1.0  0.59248  0.17037  0.37742  1.0000
  H   H52       1.0  0.61054  0.16998  0.40021  1.0000
  C   C141      1.0  0.82885  0.57972  0.36623  1.0000
  C   C142      1.0  0.81208  0.57985  0.44238  1.0000
  C   C143      1.0  0.78669  0.56955  0.43778  1.0000
  H   H53       1.0  0.81841  0.58744  0.50308  1.0000
  N   N99       1.0  0.77064  0.56923  0.51624  1.0000
  O   O53       1.0  0.76660  0.59170  0.54573  1.0000
  O   O54       1.0  0.78029  0.55592  0.57941  1.0000
  C   C144      1.0  0.85286  0.59193  0.37153  1.0000
  H   H54       1.0  0.85317  0.61011  0.39399  1.0000
  C   C145      1.0  0.19416  0.44051  0.37126  1.0000
  C   C146      1.0  0.21103  0.44012  0.44710  1.0000
  C   C147      1.0  0.23661  0.44993  0.44196  1.0000
  H   H55       1.0  0.20462  0.43272  0.50801  1.0000
  N   N100      1.0  0.25271  0.45013  0.52024  1.0000
  O   O55       1.0  0.25636  0.42765  0.55031  1.0000
  O   O56       1.0  0.24335  0.46375  0.58312  1.0000
  C   C148      1.0  0.16988  0.42883  0.37694  1.0000
  H   H56       1.0  0.16919  0.41070  0.39984  1.0000
  C   C149      1.0  0.13780  0.06186  0.37147  1.0000
  C   C150      1.0  0.12656  0.07415  0.44880  1.0000
  C   C151      1.0  0.11629  0.09945  0.44045  1.0000
  H   H57       1.0  0.10797  0.10787  0.49648  1.0000
  N   N101      1.0  0.12537  0.06079  0.53346  1.0000
  O   O57       1.0  0.13744  0.07272  0.59504  1.0000
  O   O58       1.0  0.10249  0.05740  0.55926  1.0000
  C   C152      1.0  0.14358  0.03554  0.37578  1.0000
  H   H58       1.0  0.12881  0.02374  0.38879  1.0000
  C   C153      1.0  0.88354  0.96048  0.37025  1.0000
  C   C154      1.0  0.89454  0.94810  0.44782  1.0000
  C   C155      1.0  0.90477  0.92278  0.43957  1.0000
  H   H59       1.0  0.91292  0.91429  0.49580  1.0000
  N   N102      1.0  0.89556  0.96139  0.53264  1.0000
  O   O59       1.0  0.88330  0.94945  0.59373  1.0000
  O   O60       1.0  0.91837  0.96471  0.55921  1.0000
  C   C156      1.0  0.87776  0.98679  0.37464  1.0000
  H   H60       1.0  0.89251  0.99859  0.38795  1.0000
  C   C157      1.0  0.95976  0.13715  0.37077  1.0000
  C   C158      1.0  0.94726  0.12616  0.44827  1.0000
  C   C159      1.0  0.92176  0.11641  0.44021  1.0000
  H   H61       1.0  0.91318  0.10823  0.49634  1.0000
  N   N103      1.0  0.96059  0.12470  0.53277  1.0000
  O   O61       1.0  0.94916  0.13712  0.59440  1.0000
  O   O62       1.0  0.96327  0.10166  0.55869  1.0000
  C   C160      1.0  0.98608  0.14262  0.37484  1.0000
  H   H62       1.0  0.99757  0.12768  0.38783  1.0000
  C   C161      1.0  0.06130  0.88526  0.37140  1.0000
  C   C162      1.0  0.07351  0.89687  0.44837  1.0000
  C   C163      1.0  0.09902  0.90660  0.44051  1.0000
  H   H63       1.0  0.10740  0.91521  0.49623  1.0000
  N   N104      1.0  0.05989  0.89896  0.53213  1.0000
  O   O63       1.0  0.07114  0.88704  0.59541  1.0000
  O   O64       1.0  0.05708  0.92218  0.55566  1.0000
  C   C164      1.0  0.03499  0.87974  0.37501  1.0000
  H   H64       1.0  0.02343  0.89468  0.38709  1.0000
  C   C165      1.0  0.40395  0.61252  0.36126  1.0000
  C   C166      1.0  0.39279  0.60009  0.43770  1.0000
  C   C167      1.0  0.38304  0.57440  0.43239  1.0000
  H   H65       1.0  0.39266  0.60937  0.49956  1.0000
  N   N105      1.0  0.37359  0.56163  0.51149  1.0000
  O   O65       1.0  0.35475  0.57339  0.54560  1.0000
  O   O66       1.0  0.39079  0.55940  0.57143  1.0000
  C   C168      1.0  0.41505  0.63700  0.36945  1.0000
  H   H66       1.0  0.40509  0.65127  0.39802  1.0000
  C   C169      1.0  0.61554  0.40999  0.36793  1.0000
  C   C170      1.0  0.62725  0.42217  0.44385  1.0000
  C   C171      1.0  0.63732  0.44775  0.43846  1.0000
  H   H67       1.0  0.62760  0.41278  0.50550  1.0000
  N   N106      1.0  0.64735  0.46025  0.51717  1.0000
  O   O67       1.0  0.66619  0.44816  0.54982  1.0000
  O   O68       1.0  0.63048  0.46261  0.57823  1.0000
  C   C172      1.0  0.60447  0.38547  0.37611  1.0000
  H   H68       1.0  0.61457  0.37120  0.40403  1.0000
  C   C173      1.0  0.60458  0.60451  0.37046  1.0000
  C   C174      1.0  0.59012  0.61336  0.44594  1.0000
  C   C175      1.0  0.56746  0.62828  0.43460  1.0000
  H   H69       1.0  0.59510  0.60752  0.51046  1.0000
  N   N107      1.0  0.55236  0.63524  0.51157  1.0000
  O   O69       1.0  0.54421  0.61566  0.55387  1.0000
  O   O70       1.0  0.56494  0.64918  0.56625  1.0000
  C   C176      1.0  0.62262  0.58500  0.38293  1.0000
  H   H70       1.0  0.61682  0.56953  0.41819  1.0000
  C   C177      1.0  0.40813  0.40395  0.36400  1.0000
  C   C178      1.0  0.42038  0.39248  0.44001  1.0000
  C   C179      1.0  0.44588  0.38274  0.43448  1.0000
  H   H71       1.0  0.41112  0.39215  0.50183  1.0000
  N   N108      1.0  0.45849  0.37302  0.51327  1.0000
  O   O71       1.0  0.44662  0.35398  0.54658  1.0000
  O   O72       1.0  0.46080  0.39013  0.57388  1.0000
  C   C180      1.0  0.38381  0.41500  0.37246  1.0000
  H   H72       1.0  0.36955  0.40485  0.40050  1.0000
