data_image0
_chemical_formula_structural       C11H6C6H3C6N2C11H6C6H3C6N2C2HC3HC2H4CHC2HC3HC2H4CHC2HC3HC2H4CHC7H6NC7H6NC7H3NO2CHC7H3NO2CHC7H3NO2CH
_chemical_formula_sum              "C108 H63 N9 O6"
_cell_length_a       52.6423
_cell_length_b       52.6535
_cell_length_c       14.9417
_cell_angle_alpha    90
_cell_angle_beta     90
_cell_angle_gamma    119.985

_space_group_name_H-M_alt    "P 1"
_space_group_IT_number       1

loop_
  _space_group_symop_operation_xyz
  'x, y, z'

loop_
  _atom_site_type_symbol
  _atom_site_label
  _atom_site_symmetry_multiplicity
  _atom_site_fract_x
  _atom_site_fract_y
  _atom_site_fract_z
  _atom_site_occupancy
  C   C1        1.0  0.22170  0.61362  0.33248  1.0000
  C   C2        1.0  0.39151  0.60938  0.32996  1.0000
  C   C3        1.0  0.39551  0.78316  0.33012  1.0000
  C   C4        1.0  0.42248  0.57796  0.33707  1.0000
  C   C5        1.0  0.39519  0.56606  0.29288  1.0000
  C   C6        1.0  0.37971  0.58147  0.28968  1.0000
  C   C7        1.0  0.17500  0.61209  0.30809  1.0000
  C   C8        1.0  0.20588  0.62745  0.30538  1.0000
  C   C9        1.0  0.42692  0.84552  0.33714  1.0000
  C   C10       1.0  0.43899  0.83012  0.29399  1.0000
  C   C11       1.0  0.42358  0.79924  0.29083  1.0000
  H   H1        1.0  0.38618  0.54583  0.26340  1.0000
  H   H2        1.0  0.35982  0.57207  0.25772  1.0000
  H   H3        1.0  0.21658  0.64874  0.28334  1.0000
  H   H4        1.0  0.16397  0.62256  0.28821  1.0000
  H   H5        1.0  0.45934  0.84132  0.26521  1.0000
  H   H6        1.0  0.43310  0.78874  0.25963  1.0000
  C   C12       1.0  0.35254  0.69968  0.32625  1.0000
  C   C13       1.0  0.32156  0.68489  0.32702  1.0000
  C   C14       1.0  0.30519  0.65392  0.32732  1.0000
  C   C15       1.0  0.31999  0.63774  0.32694  1.0000
  C   C16       1.0  0.35097  0.65234  0.32617  1.0000
  C   C17       1.0  0.36715  0.68332  0.32589  1.0000
  H   H7        1.0  0.30816  0.61521  0.32741  1.0000
  H   H8        1.0  0.31086  0.69673  0.32755  1.0000
  H   H9        1.0  0.38969  0.69401  0.32564  1.0000
  C   C18       1.0  0.38110  0.75454  0.32775  1.0000
  C   C19       1.0  0.36757  0.72832  0.32664  1.0000
  C   C20       1.0  0.37728  0.62378  0.32757  1.0000
  C   C21       1.0  0.36459  0.63731  0.32648  1.0000
  C   C22       1.0  0.27655  0.64033  0.32854  1.0000
  C   C23       1.0  0.25033  0.62771  0.33010  1.0000
  N   N1        1.0  0.43598  0.56225  0.33752  1.0000
  N   N2        1.0  0.44264  0.87473  0.33761  1.0000
  C   C24       1.0  0.78407  0.39169  0.33468  1.0000
  C   C25       1.0  0.61324  0.39348  0.33129  1.0000
  C   C26       1.0  0.61126  0.22065  0.33158  1.0000
  C   C27       1.0  0.58199  0.42459  0.33413  1.0000
  C   C28       1.0  0.61285  0.43973  0.32696  1.0000
  C   C29       1.0  0.62838  0.42437  0.32480  1.0000
  C   C30       1.0  0.83086  0.39257  0.34619  1.0000
  C   C31       1.0  0.79998  0.37678  0.34408  1.0000
  C   C32       1.0  0.58021  0.15830  0.33457  1.0000
  C   C33       1.0  0.56502  0.17400  0.32852  1.0000
  C   C34       1.0  0.58034  0.20488  0.32635  1.0000
  H   H10       1.0  0.62427  0.46214  0.32277  1.0000
  H   H11       1.0  0.65078  0.43602  0.31917  1.0000
  H   H12       1.0  0.78934  0.35439  0.34997  1.0000
  H   H13       1.0  0.84195  0.38132  0.35348  1.0000
  H   H14       1.0  0.54258  0.16300  0.32524  1.0000
  H   H15       1.0  0.56864  0.21561  0.32157  1.0000
  C   C35       1.0  0.65358  0.30414  0.33070  1.0000
  C   C36       1.0  0.68457  0.31930  0.33149  1.0000
  C   C37       1.0  0.70056  0.35028  0.33182  1.0000
  C   C38       1.0  0.68539  0.36610  0.33138  1.0000
  C   C39       1.0  0.65440  0.35112  0.33059  1.0000
  C   C40       1.0  0.63859  0.32014  0.33028  1.0000
  H   H16       1.0  0.69695  0.38864  0.33169  1.0000
  H   H17       1.0  0.69554  0.30773  0.33188  1.0000
  H   H18       1.0  0.61605  0.30917  0.32982  1.0000
  C   C41       1.0  0.62556  0.24928  0.33084  1.0000
  C   C42       1.0  0.63888  0.27550  0.33061  1.0000
  C   C43       1.0  0.62756  0.37916  0.33059  1.0000
  C   C44       1.0  0.64045  0.36582  0.33042  1.0000
  C   C45       1.0  0.72921  0.36424  0.33267  1.0000
  C   C46       1.0  0.75543  0.37721  0.33356  1.0000
  N   N3        1.0  0.56859  0.44032  0.33876  1.0000
  N   N4        1.0  0.56451  0.12918  0.33916  1.0000
  C   C47       1.0  0.48305  0.51615  0.29001  1.0000
  C   C48       1.0  0.47013  0.53399  0.29831  1.0000
  H   H19       1.0  0.46361  0.54019  0.24179  1.0000
  C   C49       1.0  0.53252  0.45380  0.32358  1.0000
  C   C50       1.0  0.51206  0.45396  0.26264  1.0000
  C   C51       1.0  0.49976  0.47219  0.27605  1.0000
  H   H20       1.0  0.50608  0.44072  0.20723  1.0000
  C   C52       1.0  0.47990  0.47344  0.20745  1.0000
  C   C53       1.0  0.48517  0.50509  0.20002  1.0000
  H   H21       1.0  0.45719  0.45851  0.22732  1.0000
  H   H22       1.0  0.48335  0.46658  0.14161  1.0000
  H   H23       1.0  0.46918  0.50503  0.15314  1.0000
  H   H24       1.0  0.50708  0.51955  0.17295  1.0000
  C   C54       1.0  0.54314  0.43461  0.31091  1.0000
  H   H25       1.0  0.53061  0.41593  0.27833  1.0000
  C   C55       1.0  0.48867  0.96786  0.28997  1.0000
  C   C56       1.0  0.47080  0.93711  0.29821  1.0000
  H   H26       1.0  0.46460  0.92440  0.24168  1.0000
  C   C57       1.0  0.55100  0.07964  0.32362  1.0000
  C   C58       1.0  0.55085  0.05903  0.26265  1.0000
  C   C59       1.0  0.53264  0.02852  0.27607  1.0000
  H   H27       1.0  0.56408  0.06629  0.20722  1.0000
  C   C60       1.0  0.53140  0.00741  0.20745  1.0000
  C   C61       1.0  0.49974  0.98105  0.19999  1.0000
  H   H28       1.0  0.54633  0.99963  0.22734  1.0000
  H   H29       1.0  0.53826  0.01772  0.14162  1.0000
  H   H30       1.0  0.49981  0.96512  0.15311  1.0000
  H   H31       1.0  0.48528  0.98850  0.17293  1.0000
  C   C62       1.0  0.57016  0.10944  0.31088  1.0000
  H   H32       1.0  0.58879  0.11560  0.27789  1.0000
  C   C63       1.0  0.03706  0.52163  0.28937  1.0000
  C   C64       1.0  0.06780  0.53424  0.29720  1.0000
  H   H33       1.0  0.08046  0.54063  0.24054  1.0000
  C   C65       1.0  0.92531  0.47246  0.32308  1.0000
  C   C66       1.0  0.94598  0.49291  0.26224  1.0000
  C   C67       1.0  0.97650  0.50529  0.27596  1.0000
  H   H34       1.0  0.93878  0.49882  0.20655  1.0000
  C   C68       1.0  0.99762  0.52513  0.20736  1.0000
  C   C69       1.0  0.02383  0.51962  0.19953  1.0000
  H   H35       1.0  0.00556  0.54784  0.22751  1.0000
  H   H36       1.0  0.98730  0.52183  0.14160  1.0000
  H   H37       1.0  0.03978  0.53555  0.15258  1.0000
  H   H38       1.0  0.01623  0.49769  0.17238  1.0000
  C   C70       1.0  0.89546  0.46156  0.30926  1.0000
  H   H39       1.0  0.88934  0.47308  0.27117  1.0000
  C   C71       1.0  0.41903  0.62167  0.37290  1.0000
  C   C72       1.0  0.43436  0.60614  0.37611  1.0000
  C   C73       1.0  0.20619  0.58421  0.36189  1.0000
  C   C74       1.0  0.17534  0.56900  0.36483  1.0000
  C   C75       1.0  0.15935  0.58286  0.33897  1.0000
  C   C76       1.0  0.38306  0.79841  0.37205  1.0000
  C   C77       1.0  0.39859  0.82925  0.37523  1.0000
  H   H40       1.0  0.45442  0.61574  0.40670  1.0000
  H   H41       1.0  0.21709  0.57353  0.38123  1.0000
  H   H42       1.0  0.16463  0.54760  0.38528  1.0000
  H   H43       1.0  0.36262  0.78733  0.40052  1.0000
  H   H44       1.0  0.38887  0.83972  0.40504  1.0000
  H   H45       1.0  0.42825  0.64199  0.40210  1.0000
  N   N5        1.0  0.13015  0.56946  0.33936  1.0000
  C   C78       1.0  0.58241  0.37822  0.33998  1.0000
  C   C79       1.0  0.56697  0.39366  0.34161  1.0000
  C   C80       1.0  0.79949  0.42256  0.32761  1.0000
  C   C81       1.0  0.83035  0.43822  0.32937  1.0000
  C   C82       1.0  0.84645  0.42340  0.33774  1.0000
  C   C83       1.0  0.62659  0.20510  0.33904  1.0000
  C   C84       1.0  0.61118  0.17424  0.34073  1.0000
  H   H46       1.0  0.54470  0.38216  0.34969  1.0000
  H   H47       1.0  0.78850  0.43399  0.32171  1.0000
  H   H48       1.0  0.84096  0.46061  0.32579  1.0000
  H   H49       1.0  0.64901  0.21598  0.34404  1.0000
  H   H50       1.0  0.62274  0.16349  0.34793  1.0000
  H   H51       1.0  0.57088  0.35582  0.34589  1.0000
  N   N6        1.0  0.87560  0.43706  0.34253  1.0000
  C   C85       1.0  0.46633  0.54363  0.38274  1.0000
  C   C86       1.0  0.47495  0.53409  0.45915  1.0000
  C   C87       1.0  0.48785  0.51613  0.45289  1.0000
  C   C88       1.0  0.49347  0.50809  0.36708  1.0000
  C   C89       1.0  0.50678  0.49005  0.35405  1.0000
  C   C90       1.0  0.52878  0.49116  0.41131  1.0000
  C   C91       1.0  0.54112  0.47318  0.39726  1.0000
  H   H52       1.0  0.53682  0.50567  0.46321  1.0000
  H   H53       1.0  0.55638  0.47429  0.44201  1.0000
  H   H54       1.0  0.47127  0.53976  0.52147  1.0000
  N   N7        1.0  0.49299  0.50474  0.53250  1.0000
  O   O1        1.0  0.51024  0.52473  0.58457  1.0000
  O   O2        1.0  0.46959  0.48837  0.57382  1.0000
  C   C92       1.0  0.45458  0.56198  0.39288  1.0000
  H   H55       1.0  0.46021  0.57474  0.44686  1.0000
  C   C93       1.0  0.46114  0.92366  0.38262  1.0000
  C   C94       1.0  0.47067  0.94180  0.45907  1.0000
  C   C95       1.0  0.48867  0.97265  0.45286  1.0000
  C   C96       1.0  0.49674  0.98632  0.36707  1.0000
  C   C97       1.0  0.51478  0.01767  0.35407  1.0000
  C   C98       1.0  0.51367  0.03855  0.41138  1.0000
  C   C99       1.0  0.53163  0.06885  0.39732  1.0000
  H   H56       1.0  0.49916  0.03207  0.46328  1.0000
  H   H57       1.0  0.53052  0.08299  0.44209  1.0000
  H   H58       1.0  0.46498  0.93244  0.52137  1.0000
  N   N8        1.0  0.50006  0.98915  0.53250  1.0000
  O   O3        1.0  0.48006  0.98644  0.58455  1.0000
  O   O4        1.0  0.51641  0.98209  0.57383  1.0000
  C   C100      1.0  0.44276  0.89359  0.39267  1.0000
  H   H59       1.0  0.42985  0.88646  0.44635  1.0000
  C   C101      1.0  0.08129  0.53784  0.38140  1.0000
  C   C102      1.0  0.06330  0.52933  0.45812  1.0000
  C   C103      1.0  0.03246  0.51680  0.45231  1.0000
  C   C104      1.0  0.01868  0.51139  0.36671  1.0000
  C   C105      1.0  0.98733  0.49828  0.35400  1.0000
  C   C106      1.0  0.96640  0.47636  0.41139  1.0000
  C   C107      1.0  0.93609  0.46398  0.39708  1.0000
  H   H60       1.0  0.97284  0.46828  0.46327  1.0000
  H   H61       1.0  0.92195  0.44868  0.44172  1.0000
  H   H62       1.0  0.07276  0.53286  0.52023  1.0000
  N   N9        1.0  0.01610  0.51179  0.53220  1.0000
  O   O5        1.0  0.01866  0.49435  0.58390  1.0000
  O   O6        1.0  0.02346  0.53523  0.57378  1.0000
  C   C108      1.0  0.11130  0.54912  0.39063  1.0000
  H   H63       1.0  0.11833  0.54179  0.44083  1.0000
