data_image0
_chemical_formula_structural       C7H4CNCH2CHC7H4CNC2HC4H3CH3NC4H3CH3NC2H3C11H6NCNC2H2C6H4NCNCHC4H3CH3NC4H3CH3NC3H3NH2C3H3NC5H2CHC2H3
_chemical_formula_sum              "C78 H66 N12"
_cell_length_a       37.3521
_cell_length_b       37.3521
_cell_length_c       14.624
_cell_angle_alpha    90
_cell_angle_beta     90
_cell_angle_gamma    120

_space_group_name_H-M_alt    "P 1"
_space_group_IT_number       1

loop_
  _space_group_symop_operation_xyz
  'x, y, z'

loop_
  _atom_site_type_symbol
  _atom_site_label
  _atom_site_symmetry_multiplicity
  _atom_site_fract_x
  _atom_site_fract_y
  _atom_site_fract_z
  _atom_site_occupancy
  C   C1        1.0  0.40249  0.64203  0.36370  1.0000
  C   C2        1.0  0.39012  0.76690  0.36372  1.0000
  C   C3        1.0  0.45462  0.60457  0.36638  1.0000
  C   C4        1.0  0.47151  0.64805  0.36629  1.0000
  C   C5        1.0  0.44625  0.66622  0.36488  1.0000
  C   C6        1.0  0.43368  0.79354  0.36347  1.0000
  C   C7        1.0  0.45196  0.83714  0.36471  1.0000
  H   H1        1.0  0.46053  0.69778  0.36516  1.0000
  H   H2        1.0  0.50290  0.66732  0.36748  1.0000
  H   H3        1.0  0.45287  0.78138  0.36276  1.0000
  H   H4        1.0  0.48351  0.85474  0.36519  1.0000
  C   C8        1.0  0.37107  0.72241  0.36326  1.0000
  N   N1        1.0  0.39388  0.70305  0.36330  1.0000
  C   C9        1.0  0.37705  0.66107  0.36325  1.0000
  H   H5        1.0  0.25076  0.67792  0.36277  1.0000
  H   H6        1.0  0.17740  0.63521  0.36520  1.0000
  C   C10       1.0  0.48125  0.58806  0.36964  1.0000
  H   H7        1.0  0.51113  0.60753  0.38161  1.0000
  C   C11       1.0  0.63603  0.38363  0.35661  1.0000
  C   C12       1.0  0.64849  0.25882  0.35658  1.0000
  C   C13       1.0  0.58384  0.42102  0.35366  1.0000
  C   C14       1.0  0.56699  0.37755  0.35404  1.0000
  C   C15       1.0  0.59228  0.35941  0.35559  1.0000
  C   C16       1.0  0.60493  0.23214  0.35663  1.0000
  C   C17       1.0  0.58669  0.18854  0.35524  1.0000
  H   H8        1.0  0.57802  0.32785  0.35547  1.0000
  H   H9        1.0  0.53561  0.35825  0.35289  1.0000
  H   H10       1.0  0.58572  0.24427  0.35725  1.0000
  H   H11       1.0  0.55513  0.17092  0.35455  1.0000
  C   C18       1.0  0.66751  0.30330  0.35706  1.0000
  N   N2        1.0  0.64469  0.32264  0.35702  1.0000
  C   C19       1.0  0.66149  0.36462  0.35708  1.0000
  C   C20       1.0  0.55716  0.43746  0.34992  1.0000
  H   H12       1.0  0.52735  0.41794  0.33748  1.0000
  C   C21       1.0  0.54375  0.49326  0.36036  1.0000
  C   C22       1.0  0.53943  0.51124  0.27810  1.0000
  C   C23       1.0  0.51411  0.53007  0.27680  1.0000
  C   C24       1.0  0.56130  0.51044  0.19268  1.0000
  H   H13       1.0  0.58063  0.49644  0.20100  1.0000
  H   H14       1.0  0.58157  0.54190  0.16850  1.0000
  H   H15       1.0  0.53877  0.49293  0.13954  1.0000
  C   C25       1.0  0.50852  0.54757  0.18906  1.0000
  H   H16       1.0  0.48770  0.56000  0.19379  1.0000
  H   H17       1.0  0.49568  0.52355  0.13675  1.0000
  H   H18       1.0  0.53825  0.57268  0.16562  1.0000
  N   N3        1.0  0.56803  0.47584  0.36233  1.0000
  C   C26       1.0  0.53887  0.05692  0.36036  1.0000
  C   C27       1.0  0.52089  0.03461  0.27810  1.0000
  C   C28       1.0  0.50208  0.99046  0.27681  1.0000
  C   C29       1.0  0.52167  0.05727  0.19269  1.0000
  H   H19       1.0  0.53565  0.09060  0.20102  1.0000
  H   H20       1.0  0.49021  0.04606  0.16851  1.0000
  H   H21       1.0  0.53919  0.05227  0.13954  1.0000
  C   C30       1.0  0.48459  0.96737  0.18906  1.0000
  H   H22       1.0  0.47217  0.93412  0.19380  1.0000
  H   H23       1.0  0.50861  0.97856  0.13675  1.0000
  H   H24       1.0  0.45947  0.97198  0.16562  1.0000
  N   N4        1.0  0.55628  0.09862  0.36231  1.0000
  C   C31       1.0  0.04167  0.51804  0.27681  1.0000
  C   C32       1.0  0.06476  0.52365  0.18906  1.0000
  H   H25       1.0  0.09802  0.54448  0.19380  1.0000
  H   H26       1.0  0.05358  0.53649  0.13676  1.0000
  H   H27       1.0  0.06015  0.49392  0.16560  1.0000
  C   C33       1.0  0.26524  0.62965  0.36372  1.0000
  C   C34       1.0  0.23860  0.64657  0.36348  1.0000
  C   C35       1.0  0.19500  0.62125  0.36472  1.0000
  C   C36       1.0  0.17566  0.57752  0.36640  1.0000
  C   C37       1.0  0.20224  0.56063  0.36633  1.0000
  C   C38       1.0  0.24568  0.58590  0.36491  1.0000
  C   C39       1.0  0.38558  0.59847  0.36347  1.0000
  C   C40       1.0  0.41090  0.58019  0.36471  1.0000
  C   C41       1.0  0.42758  0.85648  0.36640  1.0000
  C   C42       1.0  0.38410  0.82990  0.36632  1.0000
  C   C43       1.0  0.36593  0.78646  0.36488  1.0000
  H   H28       1.0  0.19013  0.52925  0.36752  1.0000
  H   H29       1.0  0.26295  0.57161  0.36520  1.0000
  H   H30       1.0  0.35423  0.57927  0.36275  1.0000
  H   H31       1.0  0.39694  0.54863  0.36517  1.0000
  H   H32       1.0  0.36483  0.84201  0.36750  1.0000
  H   H33       1.0  0.33436  0.76919  0.36518  1.0000
  N   N5        1.0  0.33489  0.63826  0.36331  1.0000
  C   C44       1.0  0.30973  0.65509  0.36326  1.0000
  N   N6        1.0  0.32909  0.69725  0.36331  1.0000
  C   C45       1.0  0.44409  0.89963  0.36965  1.0000
  C   C46       1.0  0.13251  0.55090  0.36966  1.0000
  H   H34       1.0  0.12211  0.52103  0.38165  1.0000
  H   H35       1.0  0.42463  0.91003  0.38162  1.0000
  C   C47       1.0  0.77331  0.39610  0.35658  1.0000
  C   C48       1.0  0.65291  0.42720  0.35664  1.0000
  C   C49       1.0  0.62756  0.44544  0.35526  1.0000
  C   C50       1.0  0.61111  0.16925  0.35360  1.0000
  C   C51       1.0  0.65458  0.19586  0.35398  1.0000
  C   C52       1.0  0.67271  0.23929  0.35553  1.0000
  H   H36       1.0  0.68426  0.44641  0.35720  1.0000
  H   H37       1.0  0.64148  0.47699  0.35451  1.0000
  H   H38       1.0  0.67388  0.18378  0.35282  1.0000
  H   H39       1.0  0.70428  0.25659  0.35540  1.0000
  N   N7        1.0  0.70366  0.38744  0.35701  1.0000
  C   C53       1.0  0.72883  0.37064  0.35706  1.0000
  N   N8        1.0  0.70950  0.32848  0.35701  1.0000
  C   C54       1.0  0.59466  0.12612  0.34990  1.0000
  H   H40       1.0  0.61417  0.11582  0.33747  1.0000
  C   C55       1.0  0.49431  0.53209  0.35853  1.0000
  C   C56       1.0  0.49876  0.51421  0.44096  1.0000
  C   C57       1.0  0.52398  0.49525  0.44212  1.0000
  C   C58       1.0  0.53079  0.47680  0.52696  1.0000
  H   H41       1.0  0.51669  0.48042  0.58877  1.0000
  H   H42       1.0  0.56385  0.49117  0.54073  1.0000
  H   H43       1.0  0.51822  0.44370  0.51704  1.0000
  C   C59       1.0  0.47685  0.51504  0.52611  1.0000
  H   H44       1.0  0.45732  0.52881  0.51776  1.0000
  H   H45       1.0  0.49946  0.53282  0.57896  1.0000
  H   H46       1.0  0.45674  0.48354  0.55039  1.0000
  N   N9        1.0  0.47021  0.54964  0.35712  1.0000
  C   C60       1.0  0.50006  0.96865  0.35855  1.0000
  C   C61       1.0  0.51794  0.99098  0.44098  1.0000
  C   C62       1.0  0.53688  0.03515  0.44213  1.0000
  C   C63       1.0  0.55532  0.06042  0.52697  1.0000
  H   H47       1.0  0.55170  0.04271  0.58878  1.0000
  H   H48       1.0  0.54094  0.07911  0.54073  1.0000
  H   H49       1.0  0.58842  0.08096  0.51706  1.0000
  C   C64       1.0  0.51712  0.96825  0.52612  1.0000
  H   H50       1.0  0.50337  0.93495  0.51776  1.0000
  H   H51       1.0  0.49933  0.97306  0.57897  1.0000
  H   H52       1.0  0.54862  0.97965  0.55041  1.0000
  N   N10       1.0  0.48252  0.92700  0.35714  1.0000
  C   C65       1.0  0.06349  0.53783  0.35855  1.0000
  C   C66       1.0  0.04116  0.53337  0.44099  1.0000
  C   C67       1.0  0.06389  0.55529  0.52613  1.0000
  H   H53       1.0  0.09719  0.57483  0.51778  1.0000
  H   H54       1.0  0.05907  0.53267  0.57897  1.0000
  H   H55       1.0  0.05249  0.57538  0.55043  1.0000
  N   N11       1.0  0.10514  0.56194  0.35714  1.0000
  H   H56       1.0  0.78786  0.34787  0.35723  1.0000
  H   H57       1.0  0.86121  0.39064  0.35455  1.0000
  C   C68       1.0  0.97521  0.48837  0.36036  1.0000
  C   C69       1.0  0.99752  0.49271  0.27810  1.0000
  C   C70       1.0  0.97486  0.47084  0.19268  1.0000
  H   H58       1.0  0.94153  0.45150  0.20100  1.0000
  H   H59       1.0  0.98607  0.45058  0.16848  1.0000
  H   H60       1.0  0.97987  0.49337  0.13954  1.0000
  N   N12       1.0  0.93352  0.46409  0.36231  1.0000
  C   C71       1.0  0.79999  0.37921  0.35662  1.0000
  C   C72       1.0  0.84359  0.40457  0.35524  1.0000
  C   C73       1.0  0.86289  0.44829  0.35361  1.0000
  C   C74       1.0  0.83627  0.46514  0.35396  1.0000
  C   C75       1.0  0.79284  0.43984  0.35552  1.0000
  H   H61       1.0  0.84835  0.49652  0.35282  1.0000
  H   H62       1.0  0.77554  0.45411  0.35539  1.0000
  C   C76       1.0  0.90601  0.47496  0.34990  1.0000
  H   H63       1.0  0.91631  0.50477  0.33746  1.0000
  C   C77       1.0  0.99698  0.50814  0.44213  1.0000
  C   C78       1.0  0.97172  0.50132  0.52697  1.0000
  H   H64       1.0  0.98943  0.51541  0.58879  1.0000
  H   H65       1.0  0.95303  0.46825  0.54073  1.0000
  H   H66       1.0  0.95118  0.51388  0.51707  1.0000
