data_image0
_chemical_formula_structural       C4H2C3H2C5H3C4H3CN2CNC2H2C2HCHC4H2CHC2HC4HCHC2H2C2H2C4H2C2H2C4H2C6H4C6H4C6H4C6H4NCNCNCNCN2CNCNCNCNCNCNCNCNCNC4H2C6H4C6H4C2H2C4H2C2H2C4H2C2H2C4H2C2H2C4H2
_chemical_formula_sum              "C126 H72 N18"
_cell_length_a       46.3091
_cell_length_b       46.3091
_cell_length_c       14.7517
_cell_angle_alpha    90
_cell_angle_beta     90
_cell_angle_gamma    120

_space_group_name_H-M_alt    "P 1"
_space_group_IT_number       1

loop_
  _space_group_symop_operation_xyz
  'x, y, z'

loop_
  _atom_site_type_symbol
  _atom_site_label
  _atom_site_symmetry_multiplicity
  _atom_site_fract_x
  _atom_site_fract_y
  _atom_site_fract_z
  _atom_site_occupancy
  C   C1        1.0  0.03066  0.51745  0.35016  1.0000
  C   C2        1.0  0.10308  0.55364  0.35012  1.0000
  C   C3        1.0  0.08449  0.51955  0.32523  1.0000
  C   C4        1.0  0.04930  0.50202  0.32487  1.0000
  H   H1        1.0  0.09644  0.50704  0.30552  1.0000
  H   H2        1.0  0.03737  0.47770  0.30398  1.0000
  C   C5        1.0  0.13892  0.57154  0.35016  1.0000
  C   C6        1.0  0.04932  0.55153  0.37537  1.0000
  C   C7        1.0  0.08451  0.56917  0.37500  1.0000
  H   H3        1.0  0.03740  0.56392  0.39637  1.0000
  H   H4        1.0  0.09648  0.59362  0.39475  1.0000
  C   C8        1.0  0.21056  0.55682  0.33670  1.0000
  C   C9        1.0  0.23331  0.56558  0.26397  1.0000
  C   C10       1.0  0.25983  0.55897  0.26761  1.0000
  C   C11       1.0  0.26517  0.54428  0.34531  1.0000
  C   C12       1.0  0.30967  0.53436  0.28448  1.0000
  H   H5        1.0  0.29625  0.52420  0.22649  1.0000
  H   H6        1.0  0.23209  0.57891  0.21018  1.0000
  H   H7        1.0  0.27704  0.56796  0.21638  1.0000
  C   C13       1.0  0.31606  0.76115  0.26747  1.0000
  C   C14       1.0  0.29600  0.75584  0.34508  1.0000
  C   C15       1.0  0.24160  0.71131  0.28416  1.0000
  C   C16       1.0  0.21458  0.67832  0.28842  1.0000
  H   H8        1.0  0.24489  0.72471  0.22611  1.0000
  H   H9        1.0  0.19971  0.66844  0.23255  1.0000
  H   H10       1.0  0.30786  0.74392  0.21628  1.0000
  C   C17       1.0  0.19062  0.62283  0.35733  1.0000
  N   N1        1.0  0.15667  0.60562  0.35626  1.0000
  N   N2        1.0  0.15663  0.55518  0.34413  1.0000
  C   C18       1.0  0.19058  0.57188  0.34322  1.0000
  N   N3        1.0  0.20690  0.60549  0.35030  1.0000
  C   C19       1.0  0.24170  0.53466  0.41690  1.0000
  C   C20       1.0  0.21466  0.54061  0.41257  1.0000
  H   H11       1.0  0.24512  0.52478  0.47522  1.0000
  H   H12       1.0  0.19993  0.53583  0.46867  1.0000
  C   C21       1.0  0.29596  0.54431  0.35565  1.0000
  C   C22       1.0  0.31615  0.55941  0.43285  1.0000
  H   H13       1.0  0.30804  0.56861  0.48379  1.0000
  C   C23       1.0  0.30981  0.77934  0.41659  1.0000
  H   H14       1.0  0.29648  0.77594  0.47485  1.0000
  C   C24       1.0  0.26523  0.72505  0.35539  1.0000
  C   C25       1.0  0.21063  0.65787  0.36385  1.0000
  C   C26       1.0  0.23355  0.67176  0.43627  1.0000
  C   C27       1.0  0.26010  0.70488  0.43267  1.0000
  H   H15       1.0  0.23247  0.65713  0.48972  1.0000
  H   H16       1.0  0.27739  0.71301  0.48367  1.0000
  C   C28       1.0  0.34267  0.54035  0.28870  1.0000
  H   H17       1.0  0.35253  0.53531  0.23287  1.0000
  C   C29       1.0  0.36315  0.81048  0.33652  1.0000
  C   C30       1.0  0.34919  0.78768  0.26388  1.0000
  H   H18       1.0  0.36375  0.78888  0.21014  1.0000
  C   C31       1.0  0.39816  0.57195  0.35743  1.0000
  C   C32       1.0  0.39819  0.83048  0.34302  1.0000
  C   C33       1.0  0.36312  0.55692  0.36404  1.0000
  C   C34       1.0  0.34928  0.56600  0.43646  1.0000
  H   H19       1.0  0.36393  0.57960  0.48981  1.0000
  C   C35       1.0  0.34279  0.80638  0.41228  1.0000
  H   H20       1.0  0.35271  0.82114  0.46834  1.0000
  C   C36       1.0  0.97594  0.51483  0.32484  1.0000
  C   C37       1.0  0.94075  0.49728  0.32526  1.0000
  H   H21       1.0  0.98786  0.53912  0.30379  1.0000
  H   H22       1.0  0.92878  0.50976  0.30542  1.0000
  C   C38       1.0  0.50618  0.46532  0.32505  1.0000
  C   C39       1.0  0.52372  0.44766  0.32545  1.0000
  H   H23       1.0  0.48186  0.45292  0.30423  1.0000
  H   H24       1.0  0.51121  0.42321  0.30579  1.0000
  C   C40       1.0  0.50359  0.51744  0.35017  1.0000
  C   C41       1.0  0.46738  0.55365  0.35017  1.0000
  C   C42       1.0  0.50145  0.56914  0.32501  1.0000
  C   C43       1.0  0.51899  0.55149  0.32461  1.0000
  H   H25       1.0  0.51392  0.59356  0.30501  1.0000
  H   H26       1.0  0.54326  0.56384  0.30343  1.0000
  C   C44       1.0  0.55568  0.04514  0.32456  1.0000
  C   C45       1.0  0.57333  0.08033  0.32496  1.0000
  H   H27       1.0  0.56804  0.03322  0.30339  1.0000
  H   H28       1.0  0.59775  0.09229  0.30500  1.0000
  C   C46       1.0  0.50361  0.99042  0.35014  1.0000
  C   C47       1.0  0.46741  0.91800  0.35012  1.0000
  C   C48       1.0  0.45187  0.93658  0.32540  1.0000
  C   C49       1.0  0.46952  0.97177  0.32503  1.0000
  H   H29       1.0  0.42740  0.92462  0.30582  1.0000
  H   H30       1.0  0.45711  0.98369  0.30427  1.0000
  C   C50       1.0  0.46414  0.65793  0.33651  1.0000
  C   C51       1.0  0.45506  0.67177  0.26408  1.0000
  C   C52       1.0  0.46165  0.70489  0.26759  1.0000
  C   C53       1.0  0.47670  0.72509  0.34480  1.0000
  C   C54       1.0  0.48637  0.77936  0.28348  1.0000
  C   C55       1.0  0.48033  0.80633  0.28767  1.0000
  H   H31       1.0  0.49622  0.77590  0.22514  1.0000
  H   H32       1.0  0.48517  0.82110  0.23162  1.0000
  H   H33       1.0  0.44154  0.65713  0.21062  1.0000
  H   H34       1.0  0.45247  0.71300  0.21658  1.0000
  C   C56       1.0  0.81460  0.45985  0.33648  1.0000
  C   C57       1.0  0.79169  0.45078  0.26404  1.0000
  C   C58       1.0  0.76516  0.45737  0.26757  1.0000
  C   C59       1.0  0.76003  0.47244  0.34478  1.0000
  C   C60       1.0  0.71545  0.48213  0.28348  1.0000
  C   C61       1.0  0.68244  0.47611  0.28769  1.0000
  H   H35       1.0  0.72875  0.49198  0.22514  1.0000
  H   H36       1.0  0.67252  0.48096  0.23163  1.0000
  H   H37       1.0  0.79281  0.43725  0.21058  1.0000
  H   H38       1.0  0.74787  0.44820  0.21656  1.0000
  C   C62       1.0  0.56110  0.35894  0.33656  1.0000
  C   C63       1.0  0.56991  0.34497  0.26391  1.0000
  C   C64       1.0  0.56329  0.31183  0.26754  1.0000
  C   C65       1.0  0.54852  0.29178  0.34516  1.0000
  C   C66       1.0  0.53862  0.23737  0.28426  1.0000
  C   C67       1.0  0.54458  0.21034  0.28851  1.0000
  H   H39       1.0  0.52851  0.24066  0.22621  1.0000
  H   H40       1.0  0.53958  0.19546  0.23264  1.0000
  H   H41       1.0  0.58329  0.35953  0.21018  1.0000
  H   H42       1.0  0.57231  0.30362  0.21637  1.0000
  C   C68       1.0  0.66210  0.20642  0.33652  1.0000
  C   C69       1.0  0.67594  0.22938  0.26416  1.0000
  C   C70       1.0  0.70908  0.25590  0.26768  1.0000
  C   C71       1.0  0.72928  0.26099  0.34483  1.0000
  C   C72       1.0  0.78354  0.30558  0.28351  1.0000
  C   C73       1.0  0.81053  0.33859  0.28773  1.0000
  H   H43       1.0  0.78007  0.29230  0.22512  1.0000
  H   H44       1.0  0.82527  0.34853  0.23165  1.0000
  H   H45       1.0  0.66130  0.22829  0.21074  1.0000
  H   H46       1.0  0.71718  0.27321  0.21672  1.0000
  N   N4        1.0  0.41539  0.55523  0.35638  1.0000
  C   C74       1.0  0.44947  0.57157  0.35019  1.0000
  N   N5        1.0  0.46581  0.60565  0.34404  1.0000
  C   C75       1.0  0.44910  0.62289  0.34308  1.0000
  N   N6        1.0  0.41549  0.60557  0.35028  1.0000
  C   C76       1.0  0.44913  0.83049  0.35704  1.0000
  N   N7        1.0  0.46584  0.86443  0.35612  1.0000
  C   C77       1.0  0.44949  0.88216  0.35010  1.0000
  N   N8        1.0  0.41541  0.86443  0.34405  1.0000
  N   N9        1.0  0.41551  0.81418  0.35002  1.0000
  C   C78       1.0  0.83469  0.39393  0.35718  1.0000
  N   N10       1.0  0.86863  0.41119  0.35631  1.0000
  C   C79       1.0  0.88634  0.44527  0.35026  1.0000
  N   N11       1.0  0.86858  0.46159  0.34414  1.0000
  C   C80       1.0  0.83464  0.44484  0.34308  1.0000
  N   N12       1.0  0.81837  0.41122  0.35009  1.0000
  C   C81       1.0  0.62707  0.44491  0.35710  1.0000
  N   N13       1.0  0.60984  0.46163  0.35617  1.0000
  C   C82       1.0  0.57575  0.44528  0.35016  1.0000
  N   N14       1.0  0.55941  0.41120  0.34411  1.0000
  C   C83       1.0  0.57613  0.39397  0.34310  1.0000
  N   N15       1.0  0.60975  0.41129  0.35008  1.0000
  C   C84       1.0  0.57612  0.18642  0.35740  1.0000
  N   N16       1.0  0.55941  0.15247  0.35637  1.0000
  C   C85       1.0  0.57575  0.13474  0.35022  1.0000
  N   N17       1.0  0.60983  0.15247  0.34408  1.0000
  C   C86       1.0  0.62706  0.18642  0.34309  1.0000
  N   N18       1.0  0.60974  0.20271  0.35026  1.0000
  C   C87       1.0  0.92218  0.46320  0.35030  1.0000
  C   C88       1.0  0.94076  0.44771  0.37532  1.0000
  C   C89       1.0  0.97596  0.46536  0.37566  1.0000
  C   C90       1.0  0.99460  0.49942  0.35023  1.0000
  H   H47       1.0  0.92882  0.42327  0.39519  1.0000
  H   H48       1.0  0.98788  0.45300  0.39672  1.0000
  C   C91       1.0  0.55783  0.46320  0.35017  1.0000
  C   C92       1.0  0.57336  0.49731  0.37490  1.0000
  C   C93       1.0  0.55571  0.51485  0.37527  1.0000
  C   C94       1.0  0.52162  0.49941  0.35017  1.0000
  C   C95       1.0  0.46955  0.50204  0.37574  1.0000
  C   C96       1.0  0.45189  0.51959  0.37534  1.0000
  H   H49       1.0  0.45719  0.47776  0.39689  1.0000
  H   H50       1.0  0.42747  0.50712  0.39531  1.0000
  H   H51       1.0  0.59782  0.50982  0.39454  1.0000
  H   H52       1.0  0.56810  0.53917  0.39614  1.0000
  C   C97       1.0  0.55784  0.09890  0.35019  1.0000
  C   C98       1.0  0.52378  0.08032  0.37539  1.0000
  C   C99       1.0  0.50624  0.04513  0.37575  1.0000
  C   C100      1.0  0.52164  0.02648  0.35016  1.0000
  C   C101      1.0  0.51906  0.97178  0.37520  1.0000
  C   C102      1.0  0.50152  0.93658  0.37484  1.0000
  H   H53       1.0  0.54338  0.98370  0.39606  1.0000
  H   H54       1.0  0.51403  0.92463  0.39445  1.0000
  H   H55       1.0  0.51131  0.09227  0.39540  1.0000
  H   H56       1.0  0.48196  0.03320  0.39696  1.0000
  C   C103      1.0  0.48663  0.71139  0.41606  1.0000
  C   C104      1.0  0.48062  0.67838  0.41192  1.0000
  H   H57       1.0  0.49677  0.72482  0.47404  1.0000
  H   H58       1.0  0.48571  0.66854  0.46772  1.0000
  C   C105      1.0  0.47671  0.75587  0.35506  1.0000
  C   C106      1.0  0.46416  0.81048  0.36357  1.0000
  C   C107      1.0  0.45539  0.78774  0.43630  1.0000
  C   C108      1.0  0.46195  0.76118  0.43263  1.0000
  H   H59       1.0  0.44213  0.78902  0.49020  1.0000
  H   H60       1.0  0.45307  0.74405  0.48406  1.0000
  C   C109      1.0  0.78366  0.48236  0.41604  1.0000
  C   C110      1.0  0.81066  0.47635  0.41190  1.0000
  H   H61       1.0  0.78038  0.49251  0.47402  1.0000
  H   H62       1.0  0.82559  0.48144  0.46769  1.0000
  C   C111      1.0  0.72926  0.47246  0.35504  1.0000
  C   C112      1.0  0.66210  0.45995  0.36357  1.0000
  C   C113      1.0  0.67608  0.45115  0.43627  1.0000
  C   C114      1.0  0.70918  0.45769  0.43261  1.0000
  H   H63       1.0  0.66153  0.43790  0.49016  1.0000
  H   H64       1.0  0.71743  0.44880  0.48402  1.0000
  C   C115      1.0  0.53884  0.30561  0.41665  1.0000
  C   C116      1.0  0.54480  0.33860  0.41233  1.0000
  H   H65       1.0  0.52890  0.29228  0.47491  1.0000
  H   H66       1.0  0.53997  0.34853  0.46838  1.0000
  C   C117      1.0  0.54852  0.26100  0.35550  1.0000
  C   C118      1.0  0.56108  0.20642  0.36396  1.0000
  C   C119      1.0  0.57011  0.22931  0.43644  1.0000
  C   C120      1.0  0.56354  0.25586  0.43279  1.0000
  H   H67       1.0  0.58367  0.22823  0.48986  1.0000
  H   H68       1.0  0.57271  0.27316  0.48379  1.0000
  C   C121      1.0  0.71558  0.23733  0.41602  1.0000
  C   C122      1.0  0.68257  0.21035  0.41186  1.0000
  H   H69       1.0  0.72902  0.24059  0.47397  1.0000
  H   H70       1.0  0.67273  0.19540  0.46762  1.0000
  C   C123      1.0  0.76008  0.29175  0.35512  1.0000
  C   C124      1.0  0.81471  0.35889  0.36370  1.0000
  C   C125      1.0  0.79198  0.34491  0.43646  1.0000
  C   C126      1.0  0.76541  0.31180  0.43276  1.0000
  H   H71       1.0  0.79328  0.35944  0.49040  1.0000
  H   H72       1.0  0.74829  0.30353  0.48421  1.0000
