data_image0
_chemical_formula_structural       C18H17C4HC3NHNO2C4HC2NHNO2C3NC3NC5NC4NC35H25CNC2H2NO2CNC3H2NO2
_chemical_formula_sum              "C88 H50 N12 O8"
_cell_length_a       34.1695
_cell_length_b       34.1693
_cell_length_c       14.8578
_cell_angle_alpha    90
_cell_angle_beta     90
_cell_angle_gamma    89.9372

_space_group_name_H-M_alt    "P 1"
_space_group_IT_number       1

loop_
  _space_group_symop_operation_xyz
  'x, y, z'

loop_
  _atom_site_type_symbol
  _atom_site_label
  _atom_site_symmetry_multiplicity
  _atom_site_fract_x
  _atom_site_fract_y
  _atom_site_fract_z
  _atom_site_occupancy
  C   C1        1.0  0.08598  0.04210  0.34350  1.0000
  C   C2        1.0  0.99128  0.21170  0.26508  1.0000
  C   C3        1.0  0.99196  0.17050  0.26487  1.0000
  C   C4        1.0  0.96789  0.29586  0.31387  1.0000
  C   C5        1.0  0.96719  0.33706  0.31543  1.0000
  C   C6        1.0  0.00020  0.35864  0.34417  1.0000
  C   C7        1.0  0.20881  0.00754  0.26226  1.0000
  C   C8        1.0  0.16761  0.00793  0.26235  1.0000
  C   C9        1.0  0.33511  0.02946  0.28917  1.0000
  C   C10       1.0  0.29390  0.02988  0.28976  1.0000
  C   C11       1.0  0.00557  0.83928  0.26305  1.0000
  C   C12       1.0  0.00569  0.79807  0.26270  1.0000
  C   C13       1.0  0.02868  0.67187  0.28895  1.0000
  C   C14       1.0  0.02881  0.71308  0.28981  1.0000
  C   C15       1.0  0.83616  0.99433  0.26605  1.0000
  C   C16       1.0  0.79497  0.99359  0.26650  1.0000
  C   C17       1.0  0.71118  0.96955  0.31608  1.0000
  C   C18       1.0  0.66999  0.96854  0.31783  1.0000
  H   H1        1.0  0.65605  0.94370  0.29646  1.0000
  H   H2        1.0  0.72599  0.94514  0.29512  1.0000
  H   H3        1.0  0.78064  0.98607  0.20851  1.0000
  H   H4        1.0  0.85072  0.98696  0.20823  1.0000
  H   H5        1.0  0.00801  0.85398  0.20325  1.0000
  H   H6        1.0  0.00775  0.78401  0.20207  1.0000
  H   H7        1.0  0.08155  0.13645  0.33874  1.0000
  H   H8        1.0  0.15300  0.01059  0.20247  1.0000
  H   H9        1.0  0.22297  0.00946  0.20173  1.0000
  H   H10       1.0  0.27979  0.05063  0.25205  1.0000
  H   H11       1.0  0.34929  0.04996  0.25104  1.0000
  H   H12       1.0  0.98469  0.15590  0.20705  1.0000
  H   H13       1.0  0.98389  0.22599  0.20694  1.0000
  H   H14       1.0  0.94245  0.35122  0.29405  1.0000
  H   H15       1.0  0.94337  0.28127  0.29295  1.0000
  H   H16       1.0  0.04949  0.72735  0.25233  1.0000
  H   H17       1.0  0.04933  0.65783  0.25088  1.0000
  C   C19       1.0  0.00114  0.60818  0.33909  1.0000
  C   C20       1.0  0.99945  0.52488  0.33748  1.0000
  C   C21       1.0  0.00658  0.54544  0.25611  1.0000
  C   C22       1.0  0.00718  0.58691  0.25845  1.0000
  H   H18       1.0  0.01112  0.60167  0.19921  1.0000
  C   C23       1.0  0.99798  0.48329  0.34341  1.0000
  C   C24       1.0  0.99948  0.40031  0.34536  1.0000
  C   C25       1.0  0.02802  0.42256  0.29970  1.0000
  N   N1        1.0  0.02599  0.46220  0.29983  1.0000
  H   H19       1.0  0.04992  0.40931  0.26400  1.0000
  N   N2        1.0  0.01134  0.52472  0.17432  1.0000
  O   O1        1.0  0.04410  0.53162  0.13937  1.0000
  O   O2        1.0  0.98504  0.53330  0.11859  1.0000
  C   C26       1.0  0.39860  0.00157  0.33990  1.0000
  C   C27       1.0  0.48190  0.99976  0.33880  1.0000
  C   C28       1.0  0.46143  0.00668  0.25720  1.0000
  C   C29       1.0  0.41995  0.00733  0.25930  1.0000
  H   H20       1.0  0.40526  0.01121  0.19993  1.0000
  C   C30       1.0  0.52349  0.99847  0.34498  1.0000
  C   C31       1.0  0.58403  0.02885  0.30166  1.0000
  N   N3        1.0  0.54441  0.02661  0.30158  1.0000
  H   H21       1.0  0.59714  0.05085  0.26615  1.0000
  N   N4        1.0  0.48224  0.01121  0.17548  1.0000
  O   O3        1.0  0.47533  0.04388  0.14001  1.0000
  O   O4        1.0  0.47376  0.98476  0.12008  1.0000
  C   C32       1.0  0.90070  0.07753  0.34374  1.0000
  C   C33       1.0  0.92925  0.10606  0.34460  1.0000
  C   C34       1.0  0.96584  0.08772  0.34391  1.0000
  N   N5        1.0  0.95796  0.04879  0.34409  1.0000
  C   C35       1.0  0.91901  0.04094  0.34430  1.0000
  C   C36       1.0  0.89912  0.00429  0.34459  1.0000
  C   C37       1.0  0.91805  0.96721  0.34512  1.0000
  N   N6        1.0  0.95691  0.95964  0.34432  1.0000
  C   C38       1.0  0.96455  0.92079  0.34547  1.0000
  C   C39       1.0  0.92818  0.90220  0.34707  1.0000
  C   C40       1.0  0.89959  0.93075  0.34749  1.0000
  C   C41       1.0  0.00162  0.90191  0.34500  1.0000
  C   C42       1.0  0.03829  0.92166  0.34456  1.0000
  N   N7        1.0  0.04612  0.96057  0.34472  1.0000
  C   C43       1.0  0.08504  0.96836  0.34456  1.0000
  C   C44       1.0  0.10340  0.93179  0.34426  1.0000
  C   C45       1.0  0.07484  0.90325  0.34447  1.0000
  C   C46       1.0  0.10483  0.00501  0.34409  1.0000
  N   N8        1.0  0.04714  0.04978  0.34449  1.0000
  C   C47       1.0  0.03958  0.08864  0.34339  1.0000
  C   C48       1.0  0.07605  0.10708  0.34102  1.0000
  C   C49       1.0  0.10459  0.07846  0.34173  1.0000
  C   C50       1.0  0.00250  0.10759  0.34357  1.0000
  C   C51       1.0  0.00219  0.14947  0.34335  1.0000
  C   C52       1.0  0.01222  0.17072  0.42164  1.0000
  C   C53       1.0  0.01234  0.21192  0.42116  1.0000
  C   C54       1.0  0.00168  0.23311  0.34304  1.0000
  C   C55       1.0  0.00128  0.27487  0.34305  1.0000
  C   C56       1.0  0.03381  0.33772  0.37210  1.0000
  C   C57       1.0  0.03415  0.29650  0.37261  1.0000
  C   C58       1.0  0.14662  0.00460  0.34384  1.0000
  C   C59       1.0  0.16773  0.00072  0.42504  1.0000
  C   C60       1.0  0.20894  0.00011  0.42461  1.0000
  C   C61       1.0  0.23035  0.00359  0.34331  1.0000
  C   C62       1.0  0.27229  0.00319  0.34298  1.0000
  C   C63       1.0  0.29371  0.97610  0.39569  1.0000
  C   C64       1.0  0.33493  0.97561  0.39485  1.0000
  C   C65       1.0  0.35661  0.00224  0.34147  1.0000
  C   C66       1.0  0.00194  0.86013  0.34467  1.0000
  C   C67       1.0  0.00194  0.77641  0.34359  1.0000
  C   C68       1.0  0.99821  0.79768  0.42504  1.0000
  C   C69       1.0  0.99833  0.83889  0.42575  1.0000
  C   C70       1.0  0.00188  0.73448  0.34296  1.0000
  C   C71       1.0  0.97484  0.71287  0.39526  1.0000
  C   C72       1.0  0.97464  0.67165  0.39412  1.0000
  C   C73       1.0  0.00153  0.65017  0.34088  1.0000
  C   C74       1.0  0.85725  0.00458  0.34442  1.0000
  C   C75       1.0  0.83607  0.01455  0.42285  1.0000
  C   C76       1.0  0.79485  0.01462  0.42262  1.0000
  C   C77       1.0  0.77361  0.00387  0.34466  1.0000
  C   C78       1.0  0.73187  0.00312  0.34504  1.0000
  C   C79       1.0  0.64811  0.00141  0.34649  1.0000
  C   C80       1.0  0.66873  0.03519  0.37427  1.0000
  C   C81       1.0  0.70994  0.03584  0.37466  1.0000
  H   H22       1.0  0.65386  0.05941  0.39621  1.0000
  H   H23       1.0  0.72384  0.06081  0.39527  1.0000
  H   H24       1.0  0.78045  0.02167  0.48083  1.0000
  H   H25       1.0  0.85055  0.02188  0.48077  1.0000
  H   H26       1.0  0.87133  0.08322  0.34337  1.0000
  H   H27       1.0  0.92357  0.13543  0.34518  1.0000
  H   H28       1.0  0.97784  0.02890  0.34392  1.0000
  H   H29       1.0  0.02624  0.98047  0.34498  1.0000
  H   H30       1.0  0.87021  0.92526  0.34952  1.0000
  H   H31       1.0  0.92282  0.87279  0.34848  1.0000
  H   H32       1.0  0.99575  0.85330  0.48588  1.0000
  H   H33       1.0  0.99609  0.78331  0.48527  1.0000
  H   H34       1.0  0.08039  0.87385  0.34454  1.0000
  H   H35       1.0  0.13279  0.92620  0.34384  1.0000
  H   H36       1.0  0.13401  0.08379  0.34026  1.0000
  H   H37       1.0  0.15322  0.99837  0.48510  1.0000
  H   H38       1.0  0.22321  0.99786  0.48495  1.0000
  H   H39       1.0  0.34898  0.95476  0.43235  1.0000
  H   H40       1.0  0.27943  0.95568  0.43388  1.0000
  H   H41       1.0  0.05900  0.28238  0.39338  1.0000
  H   H42       1.0  0.05812  0.35237  0.39410  1.0000
  H   H43       1.0  0.01954  0.22636  0.47921  1.0000
  H   H44       1.0  0.01967  0.15627  0.47956  1.0000
  H   H45       1.0  0.95424  0.72700  0.43331  1.0000
  H   H46       1.0  0.95381  0.65746  0.43130  1.0000
  C   C82       1.0  0.99441  0.58575  0.41754  1.0000
  N   N9        1.0  0.99390  0.54610  0.41387  1.0000
  C   C83       1.0  0.96895  0.46261  0.39257  1.0000
  C   C84       1.0  0.96995  0.42112  0.39170  1.0000
  H   H47       1.0  0.94895  0.40601  0.42643  1.0000
  H   H48       1.0  0.99047  0.59879  0.47876  1.0000
  N   N10       1.0  0.93909  0.48320  0.43862  1.0000
  O   O5        1.0  0.93988  0.47600  0.52154  1.0000
  O   O6        1.0  0.90577  0.47476  0.40869  1.0000
  C   C85       1.0  0.42095  0.99492  0.41855  1.0000
  N   N11       1.0  0.46061  0.99437  0.41513  1.0000
  C   C86       1.0  0.54433  0.96954  0.39422  1.0000
  C   C87       1.0  0.58581  0.97077  0.39363  1.0000
  C   C88       1.0  0.60645  0.00044  0.34747  1.0000
  H   H49       1.0  0.60104  0.94983  0.42839  1.0000
  H   H50       1.0  0.40784  0.99118  0.47975  1.0000
  N   N12       1.0  0.52388  0.93956  0.44003  1.0000
  O   O7        1.0  0.53099  0.94032  0.52300  1.0000
  O   O8        1.0  0.53261  0.90629  0.41005  1.0000
