data_image0
_chemical_formula_structural       C2HC2HN2C3HCH3CHC3HCH3CHC4OC4OH4N2C3H2CHC3H2CHC2HC2HN2C3HCH3CHC3HCH3CHC4OC4OH4N2C3H2CHC3H2CHC2HC2HN2C3HCH3CHC3HCH3CHC4OC4OH4N2C3H2CHC3H2CHC2HC2HN2C3HCH3CHC3HCH3CHC4OC4OH4N2C3H2CHC3H2CH
_chemical_formula_sum              "C120 H88 N16 O8"
_cell_length_a       31.6212
_cell_length_b       31.6212
_cell_length_c       14.9728
_cell_angle_alpha    90
_cell_angle_beta     90
_cell_angle_gamma    90

_space_group_name_H-M_alt    "P 1"
_space_group_IT_number       1

loop_
  _space_group_symop_operation_xyz
  'x, y, z'

loop_
  _atom_site_type_symbol
  _atom_site_label
  _atom_site_symmetry_multiplicity
  _atom_site_fract_x
  _atom_site_fract_y
  _atom_site_fract_z
  _atom_site_occupancy
  C   C1        1.0  0.49951  0.43487  0.31061  1.0000
  C   C2        1.0  0.46771  0.40334  0.30952  1.0000
  H   H1        1.0  0.02981  0.42440  0.30598  1.0000
  C   C3        1.0  0.04334  0.08789  0.31245  1.0000
  C   C4        1.0  0.01267  0.05548  0.31002  1.0000
  H   H2        1.0  0.48246  0.06532  0.30101  1.0000
  N   N1        1.0  0.03476  0.12983  0.30900  1.0000
  N   N2        1.0  0.47473  0.36112  0.30672  1.0000
  C   C5        1.0  0.00145  0.19826  0.30306  1.0000
  C   C6        1.0  0.96373  0.22200  0.30027  1.0000
  C   C7        1.0  0.96351  0.26686  0.30071  1.0000
  H   H3        1.0  0.93554  0.20602  0.29843  1.0000
  C   C8        1.0  0.92136  0.28782  0.29802  1.0000
  H   H4        1.0  0.89493  0.26564  0.29467  1.0000
  H   H5        1.0  0.91931  0.30794  0.23901  1.0000
  H   H6        1.0  0.41700  0.30666  0.35833  1.0000
  C   C9        1.0  0.99949  0.15366  0.30375  1.0000
  H   H7        1.0  0.97072  0.13888  0.30205  1.0000
  C   C10       1.0  0.30355  0.00039  0.32719  1.0000
  C   C11       1.0  0.27981  0.03814  0.32824  1.0000
  C   C12       1.0  0.23496  0.03836  0.32785  1.0000
  H   H8        1.0  0.29580  0.06634  0.32866  1.0000
  C   C13       1.0  0.21400  0.08053  0.32823  1.0000
  H   H9        1.0  0.23619  0.10700  0.32935  1.0000
  H   H10       1.0  0.19420  0.08344  0.38754  1.0000
  H   H11       1.0  0.19485  0.58403  0.26811  1.0000
  C   C14       1.0  0.34815  0.00234  0.32645  1.0000
  H   H12       1.0  0.36294  0.03111  0.32706  1.0000
  C   C15       1.0  0.49034  0.47912  0.31555  1.0000
  C   C16       1.0  0.42492  0.41555  0.31182  1.0000
  C   C17       1.0  0.41391  0.45845  0.31870  1.0000
  C   C18       1.0  0.44631  0.48912  0.32110  1.0000
  O   O1        1.0  0.39372  0.38570  0.31103  1.0000
  C   C19       1.0  0.02268  0.01146  0.31581  1.0000
  C   C20       1.0  0.06692  0.00230  0.32091  1.0000
  C   C21       1.0  0.09845  0.03410  0.32191  1.0000
  C   C22       1.0  0.08623  0.07689  0.31952  1.0000
  O   O2        1.0  0.11608  0.10810  0.32026  1.0000
  H   H13       1.0  0.38394  0.38366  0.24881  1.0000
  H   H14       1.0  0.11812  0.11789  0.38248  1.0000
  H   H15       1.0  0.43646  0.01934  0.32998  1.0000
  H   H16       1.0  0.07739  0.47200  0.32558  1.0000
  N   N3        1.0  0.14067  0.02709  0.32445  1.0000
  N   N4        1.0  0.37197  0.46703  0.32195  1.0000
  C   C23       1.0  0.00285  0.28941  0.30363  1.0000
  C   C24       1.0  0.04059  0.26518  0.30565  1.0000
  C   C25       1.0  0.04001  0.22075  0.30565  1.0000
  H   H17       1.0  0.06954  0.27971  0.30787  1.0000
  H   H18       1.0  0.06828  0.20504  0.30768  1.0000
  C   C26       1.0  0.00765  0.33410  0.30512  1.0000
  H   H19       1.0  0.03730  0.34706  0.30692  1.0000
  C   C27       1.0  0.21240  0.99900  0.32705  1.0000
  C   C28       1.0  0.23662  0.96124  0.32657  1.0000
  C   C29       1.0  0.28105  0.96182  0.32636  1.0000
  H   H20       1.0  0.22209  0.93228  0.32588  1.0000
  H   H21       1.0  0.29675  0.93352  0.32567  1.0000
  C   C30       1.0  0.16771  0.99419  0.32623  1.0000
  H   H22       1.0  0.15475  0.96453  0.32543  1.0000
  C   C31       1.0  0.49951  0.93487  0.31061  1.0000
  C   C32       1.0  0.46771  0.90334  0.30952  1.0000
  H   H23       1.0  0.02981  0.92441  0.30598  1.0000
  C   C33       1.0  0.04334  0.58789  0.31245  1.0000
  C   C34       1.0  0.01267  0.55548  0.31002  1.0000
  H   H24       1.0  0.48246  0.56533  0.30101  1.0000
  N   N5        1.0  0.03476  0.62983  0.30900  1.0000
  N   N6        1.0  0.47473  0.86112  0.30672  1.0000
  C   C35       1.0  0.00145  0.69826  0.30306  1.0000
  C   C36       1.0  0.96373  0.72201  0.30027  1.0000
  C   C37       1.0  0.96351  0.76686  0.30071  1.0000
  H   H25       1.0  0.93554  0.70602  0.29843  1.0000
  C   C38       1.0  0.92136  0.78782  0.29802  1.0000
  H   H26       1.0  0.89493  0.76564  0.29467  1.0000
  H   H27       1.0  0.91931  0.80794  0.23901  1.0000
  H   H28       1.0  0.41700  0.80666  0.35833  1.0000
  C   C39       1.0  0.99949  0.65366  0.30375  1.0000
  H   H29       1.0  0.97072  0.63888  0.30205  1.0000
  C   C40       1.0  0.30355  0.50039  0.32719  1.0000
  C   C41       1.0  0.27981  0.53814  0.32824  1.0000
  C   C42       1.0  0.23496  0.53836  0.32785  1.0000
  H   H30       1.0  0.29580  0.56634  0.32866  1.0000
  C   C43       1.0  0.21400  0.58053  0.32823  1.0000
  H   H31       1.0  0.23619  0.60700  0.32935  1.0000
  H   H32       1.0  0.19420  0.58344  0.38754  1.0000
  H   H33       1.0  0.19485  0.08403  0.26811  1.0000
  C   C44       1.0  0.34815  0.50234  0.32645  1.0000
  H   H34       1.0  0.36294  0.53111  0.32706  1.0000
  C   C45       1.0  0.49034  0.97912  0.31555  1.0000
  C   C46       1.0  0.42492  0.91555  0.31182  1.0000
  C   C47       1.0  0.41391  0.95845  0.31870  1.0000
  C   C48       1.0  0.44631  0.98913  0.32110  1.0000
  O   O3        1.0  0.39372  0.88570  0.31103  1.0000
  C   C49       1.0  0.02268  0.51146  0.31581  1.0000
  C   C50       1.0  0.06692  0.50231  0.32091  1.0000
  C   C51       1.0  0.09845  0.53410  0.32191  1.0000
  C   C52       1.0  0.08623  0.57689  0.31952  1.0000
  O   O4        1.0  0.11608  0.60810  0.32026  1.0000
  H   H35       1.0  0.38394  0.88367  0.24881  1.0000
  H   H36       1.0  0.11812  0.61789  0.38248  1.0000
  H   H37       1.0  0.43646  0.51934  0.32998  1.0000
  H   H38       1.0  0.07739  0.97200  0.32558  1.0000
  N   N7        1.0  0.14067  0.52709  0.32445  1.0000
  N   N8        1.0  0.37197  0.96703  0.32195  1.0000
  C   C53       1.0  0.00285  0.78942  0.30363  1.0000
  C   C54       1.0  0.04059  0.76518  0.30565  1.0000
  C   C55       1.0  0.04001  0.72075  0.30565  1.0000
  H   H39       1.0  0.06954  0.77971  0.30787  1.0000
  H   H40       1.0  0.06828  0.70505  0.30768  1.0000
  C   C56       1.0  0.00765  0.83410  0.30512  1.0000
  H   H41       1.0  0.03730  0.84706  0.30692  1.0000
  C   C57       1.0  0.21240  0.49900  0.32705  1.0000
  C   C58       1.0  0.23662  0.46124  0.32657  1.0000
  C   C59       1.0  0.28105  0.46182  0.32636  1.0000
  H   H42       1.0  0.22209  0.43228  0.32588  1.0000
  H   H43       1.0  0.29675  0.43352  0.32567  1.0000
  C   C60       1.0  0.16771  0.49419  0.32623  1.0000
  H   H44       1.0  0.15475  0.46452  0.32543  1.0000
  C   C61       1.0  0.99951  0.43487  0.31061  1.0000
  C   C62       1.0  0.96771  0.40334  0.30952  1.0000
  H   H45       1.0  0.52982  0.42440  0.30598  1.0000
  C   C63       1.0  0.54334  0.08789  0.31245  1.0000
  C   C64       1.0  0.51267  0.05548  0.31002  1.0000
  H   H46       1.0  0.98246  0.06532  0.30101  1.0000
  N   N9        1.0  0.53476  0.12983  0.30900  1.0000
  N   N10       1.0  0.97473  0.36112  0.30672  1.0000
  C   C65       1.0  0.50145  0.19826  0.30306  1.0000
  C   C66       1.0  0.46372  0.22200  0.30027  1.0000
  C   C67       1.0  0.46351  0.26686  0.30071  1.0000
  H   H47       1.0  0.43554  0.20602  0.29843  1.0000
  C   C68       1.0  0.42136  0.28782  0.29802  1.0000
  H   H48       1.0  0.39493  0.26564  0.29467  1.0000
  H   H49       1.0  0.41931  0.30794  0.23901  1.0000
  H   H50       1.0  0.91701  0.30666  0.35833  1.0000
  C   C69       1.0  0.49949  0.15366  0.30375  1.0000
  H   H51       1.0  0.47073  0.13888  0.30205  1.0000
  C   C70       1.0  0.80355  0.00039  0.32719  1.0000
  C   C71       1.0  0.77981  0.03814  0.32824  1.0000
  C   C72       1.0  0.73496  0.03836  0.32785  1.0000
  H   H52       1.0  0.79580  0.06634  0.32866  1.0000
  C   C73       1.0  0.71400  0.08053  0.32823  1.0000
  H   H53       1.0  0.73620  0.10700  0.32935  1.0000
  H   H54       1.0  0.69420  0.08344  0.38754  1.0000
  H   H55       1.0  0.69485  0.58403  0.26811  1.0000
  C   C74       1.0  0.84815  0.00234  0.32645  1.0000
  H   H56       1.0  0.86294  0.03111  0.32706  1.0000
  C   C75       1.0  0.99034  0.47912  0.31555  1.0000
  C   C76       1.0  0.92492  0.41555  0.31182  1.0000
  C   C77       1.0  0.91391  0.45845  0.31870  1.0000
  C   C78       1.0  0.94632  0.48912  0.32110  1.0000
  O   O5        1.0  0.89372  0.38570  0.31103  1.0000
  C   C79       1.0  0.52268  0.01146  0.31581  1.0000
  C   C80       1.0  0.56693  0.00230  0.32091  1.0000
  C   C81       1.0  0.59845  0.03410  0.32191  1.0000
  C   C82       1.0  0.58623  0.07689  0.31952  1.0000
  O   O6        1.0  0.61609  0.10810  0.32026  1.0000
  H   H57       1.0  0.88394  0.38366  0.24881  1.0000
  H   H58       1.0  0.61812  0.11789  0.38248  1.0000
  H   H59       1.0  0.93646  0.01934  0.32998  1.0000
  H   H60       1.0  0.57739  0.47200  0.32558  1.0000
  N   N11       1.0  0.64067  0.02709  0.32445  1.0000
  N   N12       1.0  0.87197  0.46703  0.32195  1.0000
  C   C83       1.0  0.50285  0.28941  0.30363  1.0000
  C   C84       1.0  0.54059  0.26518  0.30565  1.0000
  C   C85       1.0  0.54001  0.22075  0.30565  1.0000
  H   H61       1.0  0.56954  0.27971  0.30787  1.0000
  H   H62       1.0  0.56829  0.20504  0.30768  1.0000
  C   C86       1.0  0.50765  0.33410  0.30512  1.0000
  H   H63       1.0  0.53730  0.34706  0.30692  1.0000
  C   C87       1.0  0.71240  0.99900  0.32705  1.0000
  C   C88       1.0  0.73662  0.96124  0.32657  1.0000
  C   C89       1.0  0.78105  0.96182  0.32636  1.0000
  H   H64       1.0  0.72209  0.93228  0.32588  1.0000
  H   H65       1.0  0.79676  0.93352  0.32567  1.0000
  C   C90       1.0  0.66771  0.99419  0.32623  1.0000
  H   H66       1.0  0.65475  0.96453  0.32543  1.0000
  C   C91       1.0  0.99951  0.93487  0.31061  1.0000
  C   C92       1.0  0.96771  0.90334  0.30952  1.0000
  H   H67       1.0  0.52982  0.92441  0.30598  1.0000
  C   C93       1.0  0.54334  0.58789  0.31245  1.0000
  C   C94       1.0  0.51267  0.55548  0.31002  1.0000
  H   H68       1.0  0.98246  0.56533  0.30101  1.0000
  N   N13       1.0  0.53476  0.62983  0.30900  1.0000
  N   N14       1.0  0.97473  0.86112  0.30672  1.0000
  C   C95       1.0  0.50145  0.69826  0.30306  1.0000
  C   C96       1.0  0.46372  0.72201  0.30027  1.0000
  C   C97       1.0  0.46351  0.76686  0.30071  1.0000
  H   H69       1.0  0.43554  0.70602  0.29843  1.0000
  C   C98       1.0  0.42136  0.78782  0.29802  1.0000
  H   H70       1.0  0.39493  0.76564  0.29467  1.0000
  H   H71       1.0  0.41931  0.80794  0.23901  1.0000
  H   H72       1.0  0.91701  0.80666  0.35833  1.0000
  C   C99       1.0  0.49949  0.65366  0.30375  1.0000
  H   H73       1.0  0.47073  0.63888  0.30205  1.0000
  C   C100      1.0  0.80355  0.50039  0.32719  1.0000
  C   C101      1.0  0.77981  0.53814  0.32824  1.0000
  C   C102      1.0  0.73496  0.53836  0.32785  1.0000
  H   H74       1.0  0.79580  0.56634  0.32866  1.0000
  C   C103      1.0  0.71400  0.58053  0.32823  1.0000
  H   H75       1.0  0.73620  0.60700  0.32935  1.0000
  H   H76       1.0  0.69420  0.58344  0.38754  1.0000
  H   H77       1.0  0.69485  0.08403  0.26811  1.0000
  C   C104      1.0  0.84815  0.50234  0.32645  1.0000
  H   H78       1.0  0.86294  0.53111  0.32706  1.0000
  C   C105      1.0  0.99034  0.97912  0.31555  1.0000
  C   C106      1.0  0.92492  0.91555  0.31182  1.0000
  C   C107      1.0  0.91391  0.95845  0.31870  1.0000
  C   C108      1.0  0.94632  0.98913  0.32110  1.0000
  O   O7        1.0  0.89372  0.88570  0.31103  1.0000
  C   C109      1.0  0.52268  0.51146  0.31581  1.0000
  C   C110      1.0  0.56693  0.50231  0.32091  1.0000
  C   C111      1.0  0.59845  0.53410  0.32191  1.0000
  C   C112      1.0  0.58623  0.57689  0.31952  1.0000
  O   O8        1.0  0.61609  0.60810  0.32026  1.0000
  H   H79       1.0  0.88394  0.88367  0.24881  1.0000
  H   H80       1.0  0.61812  0.61789  0.38248  1.0000
  H   H81       1.0  0.93646  0.51934  0.32998  1.0000
  H   H82       1.0  0.57739  0.97200  0.32558  1.0000
  N   N15       1.0  0.64067  0.52709  0.32445  1.0000
  N   N16       1.0  0.87197  0.96703  0.32195  1.0000
  C   C113      1.0  0.50285  0.78942  0.30363  1.0000
  C   C114      1.0  0.54059  0.76518  0.30565  1.0000
  C   C115      1.0  0.54001  0.72075  0.30565  1.0000
  H   H83       1.0  0.56954  0.77971  0.30787  1.0000
  H   H84       1.0  0.56829  0.70505  0.30768  1.0000
  C   C116      1.0  0.50765  0.83410  0.30512  1.0000
  H   H85       1.0  0.53730  0.84706  0.30692  1.0000
  C   C117      1.0  0.71240  0.49900  0.32705  1.0000
  C   C118      1.0  0.73662  0.46124  0.32657  1.0000
  C   C119      1.0  0.78105  0.46182  0.32636  1.0000
  H   H86       1.0  0.72209  0.43228  0.32588  1.0000
  H   H87       1.0  0.79676  0.43352  0.32567  1.0000
  C   C120      1.0  0.66771  0.49419  0.32623  1.0000
  H   H88       1.0  0.65475  0.46452  0.32543  1.0000
