data_image0
_chemical_formula_structural       NCHNCHNCH2NC18H12NC18H12C2NC3H3OC2NC3H3OC2NC3H2ONCHNCHNCH2NC18H12NC18H12C2NC3H3OC2NC3H3OC2NC3H2ONCHNCHNCH2NC18H12NC18H12C2NC3H3OC2NC3H3OC2NC3H2ONCHNCHNCH2NC18H12NC18H12C2NC3H3OC2NC3H3OC2NC3H2O
_chemical_formula_sum              "N32 C216 H144 O12"
_cell_length_a       50.0112
_cell_length_b       50.0112
_cell_length_c       14.5293
_cell_angle_alpha    90
_cell_angle_beta     90
_cell_angle_gamma    120

_space_group_name_H-M_alt    "P 1"
_space_group_IT_number       1

loop_
  _space_group_symop_operation_xyz
  'x, y, z'

loop_
  _atom_site_type_symbol
  _atom_site_label
  _atom_site_symmetry_multiplicity
  _atom_site_fract_x
  _atom_site_fract_y
  _atom_site_fract_z
  _atom_site_occupancy
  N   N1        1.0  0.28157  0.25877  0.29368  1.0000
  C   C1        1.0  0.26647  0.27491  0.28306  1.0000
  H   H1        1.0  0.26391  0.28095  0.21806  1.0000
  N   N2        1.0  0.27235  0.03310  0.29951  1.0000
  C   C2        1.0  0.25562  0.50189  0.28905  1.0000
  H   H2        1.0  0.24455  0.49351  0.22801  1.0000
  N   N3        1.0  0.50316  0.26116  0.29447  1.0000
  C   C3        1.0  0.03442  0.27715  0.28443  1.0000
  H   H3        1.0  0.04309  0.28546  0.22070  1.0000
  H   H4        1.0  0.49155  0.24918  0.01141  1.0000
  N   N4        1.0  0.18730  0.34867  0.36281  1.0000
  C   C4        1.0  0.20385  0.33219  0.36187  1.0000
  C   C5        1.0  0.20376  0.38171  0.36184  1.0000
  C   C6        1.0  0.15428  0.33209  0.36206  1.0000
  C   C7        1.0  0.13719  0.32321  0.44472  1.0000
  C   C8        1.0  0.10455  0.30685  0.44379  1.0000
  C   C9        1.0  0.08731  0.29881  0.36044  1.0000
  C   C10       1.0  0.10498  0.30791  0.27796  1.0000
  C   C11       1.0  0.13761  0.32401  0.27864  1.0000
  C   C12       1.0  0.21996  0.33169  0.28275  1.0000
  C   C13       1.0  0.23638  0.31547  0.28189  1.0000
  C   C14       1.0  0.23759  0.29898  0.36000  1.0000
  C   C15       1.0  0.22144  0.29999  0.43931  1.0000
  C   C16       1.0  0.20494  0.31611  0.44029  1.0000
  C   C17       1.0  0.22046  0.39876  0.43964  1.0000
  C   C18       1.0  0.23672  0.43140  0.43889  1.0000
  C   C19       1.0  0.23720  0.44873  0.36055  1.0000
  C   C20       1.0  0.22035  0.43109  0.28277  1.0000
  C   C21       1.0  0.20409  0.39847  0.28328  1.0000
  H   H5        1.0  0.24787  0.31637  0.22290  1.0000
  H   H6        1.0  0.21980  0.34325  0.22490  1.0000
  H   H7        1.0  0.19378  0.31620  0.49912  1.0000
  H   H8        1.0  0.22124  0.28867  0.49816  1.0000
  H   H9        1.0  0.14853  0.32873  0.50643  1.0000
  H   H10       1.0  0.09347  0.30116  0.50594  1.0000
  H   H11       1.0  0.22075  0.38738  0.49777  1.0000
  H   H12       1.0  0.24829  0.44239  0.49755  1.0000
  H   H13       1.0  0.21961  0.44165  0.22358  1.0000
  H   H14       1.0  0.19251  0.38691  0.22532  1.0000
  H   H15       1.0  0.14926  0.32983  0.21746  1.0000
  H   H16       1.0  0.09440  0.30256  0.21523  1.0000
  N   N5        1.0  0.35433  0.18216  0.36257  1.0000
  C   C22       1.0  0.33735  0.19835  0.36613  1.0000
  C   C23       1.0  0.33847  0.14909  0.36616  1.0000
  C   C24       1.0  0.38740  0.19879  0.36660  1.0000
  C   C25       1.0  0.40341  0.21664  0.44419  1.0000
  C   C26       1.0  0.43603  0.23320  0.44708  1.0000
  C   C27       1.0  0.45427  0.23234  0.37340  1.0000
  C   C28       1.0  0.43787  0.21476  0.29518  1.0000
  C   C29       1.0  0.40526  0.19839  0.29182  1.0000
  C   C30       1.0  0.31649  0.19369  0.43823  1.0000
  C   C31       1.0  0.29947  0.20922  0.44026  1.0000
  C   C32       1.0  0.30334  0.23150  0.37305  1.0000
  C   C33       1.0  0.32432  0.23591  0.30066  1.0000
  C   C34       1.0  0.34068  0.21962  0.29681  1.0000
  C   C35       1.0  0.32946  0.13324  0.45091  1.0000
  C   C36       1.0  0.31265  0.10068  0.45451  1.0000
  C   C37       1.0  0.30535  0.08208  0.37420  1.0000
  C   C38       1.0  0.31485  0.09847  0.28942  1.0000
  C   C39       1.0  0.33074  0.13109  0.28529  1.0000
  H   H17       1.0  0.28343  0.20309  0.49115  1.0000
  H   H18       1.0  0.31292  0.17832  0.48946  1.0000
  H   H19       1.0  0.35550  0.22368  0.24326  1.0000
  H   H20       1.0  0.32820  0.25145  0.24939  1.0000
  H   H21       1.0  0.39125  0.21794  0.49891  1.0000
  H   H22       1.0  0.44631  0.24670  0.50339  1.0000
  H   H23       1.0  0.33454  0.14544  0.51102  1.0000
  H   H24       1.0  0.30505  0.09095  0.51762  1.0000
  H   H25       1.0  0.31033  0.08670  0.22857  1.0000
  H   H26       1.0  0.33677  0.14176  0.22258  1.0000
  H   H27       1.0  0.39452  0.18607  0.23396  1.0000
  H   H28       1.0  0.44961  0.21332  0.23952  1.0000
  C   C40       1.0  0.28659  0.24832  0.37509  1.0000
  C   C41       1.0  0.25429  0.28220  0.36089  1.0000
  N   N6        1.0  0.25948  0.27194  0.44205  1.0000
  C   C42       1.0  0.27449  0.25568  0.45399  1.0000
  C   C43       1.0  0.27828  0.24912  0.54384  1.0000
  C   C44       1.0  0.30488  0.27239  0.59369  1.0000
  H   H29       1.0  0.30778  0.26277  0.65800  1.0000
  H   H30       1.0  0.30201  0.29216  0.60992  1.0000
  H   H31       1.0  0.32596  0.28038  0.55325  1.0000
  O   O1        1.0  0.25455  0.23505  0.58900  1.0000
  C   C45       1.0  0.28858  0.04849  0.37612  1.0000
  C   C46       1.0  0.25400  0.48225  0.36174  1.0000
  N   N7        1.0  0.27040  0.49765  0.43781  1.0000
  C   C47       1.0  0.28717  0.02891  0.44966  1.0000
  C   C48       1.0  0.30323  0.03914  0.53144  1.0000
  C   C49       1.0  0.33341  0.04178  0.53614  1.0000
  H   H32       1.0  0.34752  0.05453  0.47692  1.0000
  H   H33       1.0  0.33124  0.01892  0.53768  1.0000
  H   H34       1.0  0.34551  0.05432  0.59826  1.0000
  O   O2        1.0  0.28764  0.02984  0.60156  1.0000
  C   C50       1.0  0.48772  0.24896  0.37490  1.0000
  C   C51       1.0  0.05379  0.28223  0.36140  1.0000
  N   N8        1.0  0.03820  0.26974  0.44130  1.0000
  C   C52       1.0  0.50689  0.25386  0.45293  1.0000
  C   C53       1.0  0.49572  0.24126  0.53873  1.0000
  C   C54       1.0  0.50625  0.26111  0.61902  1.0000
  H   H35       1.0  0.50509  0.28208  0.60688  1.0000
  H   H36       1.0  0.53004  0.26760  0.63602  1.0000
  O   O3        1.0  0.49203  0.21532  0.54853  1.0000
  N   N9        1.0  0.28157  0.75877  0.29368  1.0000
  C   C55       1.0  0.26648  0.77491  0.28306  1.0000
  H   H37       1.0  0.26391  0.78095  0.21806  1.0000
  N   N10       1.0  0.27235  0.53310  0.29951  1.0000
  C   C56       1.0  0.25562  0.00189  0.28905  1.0000
  H   H38       1.0  0.24455  0.99351  0.22801  1.0000
  N   N11       1.0  0.50316  0.76117  0.29447  1.0000
  C   C57       1.0  0.03442  0.77715  0.28443  1.0000
  H   H39       1.0  0.04309  0.78546  0.22070  1.0000
  H   H40       1.0  0.49155  0.74918  0.01141  1.0000
  N   N12       1.0  0.18730  0.84867  0.36281  1.0000
  C   C58       1.0  0.20385  0.83219  0.36187  1.0000
  C   C59       1.0  0.20376  0.88171  0.36184  1.0000
  C   C60       1.0  0.15428  0.83209  0.36206  1.0000
  C   C61       1.0  0.13719  0.82321  0.44472  1.0000
  C   C62       1.0  0.10455  0.80685  0.44379  1.0000
  C   C63       1.0  0.08730  0.79881  0.36044  1.0000
  C   C64       1.0  0.10498  0.80791  0.27796  1.0000
  C   C65       1.0  0.13761  0.82401  0.27864  1.0000
  C   C66       1.0  0.21996  0.83169  0.28275  1.0000
  C   C67       1.0  0.23638  0.81546  0.28189  1.0000
  C   C68       1.0  0.23759  0.79898  0.36000  1.0000
  C   C69       1.0  0.22144  0.79999  0.43931  1.0000
  C   C70       1.0  0.20495  0.81611  0.44029  1.0000
  C   C71       1.0  0.22046  0.89876  0.43964  1.0000
  C   C72       1.0  0.23673  0.93140  0.43889  1.0000
  C   C73       1.0  0.23720  0.94873  0.36055  1.0000
  C   C74       1.0  0.22035  0.93109  0.28277  1.0000
  C   C75       1.0  0.20409  0.89847  0.28328  1.0000
  H   H41       1.0  0.24787  0.81637  0.22290  1.0000
  H   H42       1.0  0.21980  0.84325  0.22490  1.0000
  H   H43       1.0  0.19378  0.81620  0.49912  1.0000
  H   H44       1.0  0.22124  0.78867  0.49816  1.0000
  H   H45       1.0  0.14853  0.82873  0.50643  1.0000
  H   H46       1.0  0.09347  0.80116  0.50594  1.0000
  H   H47       1.0  0.22075  0.88738  0.49777  1.0000
  H   H48       1.0  0.24829  0.94239  0.49755  1.0000
  H   H49       1.0  0.21962  0.94165  0.22358  1.0000
  H   H50       1.0  0.19251  0.88691  0.22532  1.0000
  H   H51       1.0  0.14926  0.82983  0.21746  1.0000
  H   H52       1.0  0.09441  0.80256  0.21523  1.0000
  N   N13       1.0  0.35433  0.68216  0.36257  1.0000
  C   C76       1.0  0.33735  0.69835  0.36613  1.0000
  C   C77       1.0  0.33847  0.64909  0.36616  1.0000
  C   C78       1.0  0.38740  0.69879  0.36660  1.0000
  C   C79       1.0  0.40341  0.71664  0.44419  1.0000
  C   C80       1.0  0.43603  0.73320  0.44708  1.0000
  C   C81       1.0  0.45427  0.73234  0.37340  1.0000
  C   C82       1.0  0.43787  0.71476  0.29518  1.0000
  C   C83       1.0  0.40526  0.69839  0.29182  1.0000
  C   C84       1.0  0.31649  0.69369  0.43823  1.0000
  C   C85       1.0  0.29947  0.70922  0.44026  1.0000
  C   C86       1.0  0.30334  0.73150  0.37305  1.0000
  C   C87       1.0  0.32432  0.73591  0.30066  1.0000
  C   C88       1.0  0.34068  0.71962  0.29681  1.0000
  C   C89       1.0  0.32946  0.63324  0.45091  1.0000
  C   C90       1.0  0.31265  0.60068  0.45451  1.0000
  C   C91       1.0  0.30535  0.58208  0.37420  1.0000
  C   C92       1.0  0.31485  0.59847  0.28942  1.0000
  C   C93       1.0  0.33074  0.63109  0.28529  1.0000
  H   H53       1.0  0.28343  0.70309  0.49115  1.0000
  H   H54       1.0  0.31292  0.67832  0.48946  1.0000
  H   H55       1.0  0.35550  0.72368  0.24326  1.0000
  H   H56       1.0  0.32820  0.75145  0.24939  1.0000
  H   H57       1.0  0.39125  0.71794  0.49891  1.0000
  H   H58       1.0  0.44631  0.74670  0.50339  1.0000
  H   H59       1.0  0.33454  0.64544  0.51102  1.0000
  H   H60       1.0  0.30505  0.59095  0.51762  1.0000
  H   H61       1.0  0.31033  0.58670  0.22857  1.0000
  H   H62       1.0  0.33677  0.64176  0.22258  1.0000
  H   H63       1.0  0.39452  0.68607  0.23396  1.0000
  H   H64       1.0  0.44962  0.71332  0.23952  1.0000
  C   C94       1.0  0.28659  0.74832  0.37509  1.0000
  C   C95       1.0  0.25429  0.78220  0.36089  1.0000
  N   N14       1.0  0.25948  0.77194  0.44205  1.0000
  C   C96       1.0  0.27449  0.75568  0.45399  1.0000
  C   C97       1.0  0.27828  0.74912  0.54384  1.0000
  C   C98       1.0  0.30488  0.77239  0.59369  1.0000
  H   H65       1.0  0.30778  0.76277  0.65800  1.0000
  H   H66       1.0  0.30201  0.79216  0.60992  1.0000
  H   H67       1.0  0.32596  0.78038  0.55326  1.0000
  O   O4        1.0  0.25455  0.73504  0.58900  1.0000
  C   C99       1.0  0.28858  0.54849  0.37612  1.0000
  C   C100      1.0  0.25400  0.98226  0.36174  1.0000
  N   N15       1.0  0.27040  0.99765  0.43781  1.0000
  C   C101      1.0  0.28717  0.52891  0.44966  1.0000
  C   C102      1.0  0.30323  0.53914  0.53144  1.0000
  C   C103      1.0  0.33341  0.54178  0.53614  1.0000
  H   H68       1.0  0.34752  0.55453  0.47692  1.0000
  H   H69       1.0  0.33124  0.51892  0.53768  1.0000
  H   H70       1.0  0.34551  0.55432  0.59826  1.0000
  O   O5        1.0  0.28764  0.52984  0.60155  1.0000
  C   C104      1.0  0.48772  0.74896  0.37490  1.0000
  C   C105      1.0  0.05379  0.78223  0.36140  1.0000
  N   N16       1.0  0.03820  0.76973  0.44130  1.0000
  C   C106      1.0  0.50690  0.75387  0.45293  1.0000
  C   C107      1.0  0.49572  0.74126  0.53873  1.0000
  C   C108      1.0  0.50625  0.76111  0.61902  1.0000
  H   H71       1.0  0.50509  0.78208  0.60688  1.0000
  H   H72       1.0  0.53004  0.76760  0.63602  1.0000
  O   O6        1.0  0.49203  0.71532  0.54853  1.0000
  N   N17       1.0  0.78156  0.25877  0.29368  1.0000
  C   C109      1.0  0.76647  0.27491  0.28306  1.0000
  H   H73       1.0  0.76391  0.28095  0.21806  1.0000
  N   N18       1.0  0.77235  0.03310  0.29951  1.0000
  C   C110      1.0  0.75562  0.50189  0.28905  1.0000
  H   H74       1.0  0.74455  0.49351  0.22801  1.0000
  N   N19       1.0  0.00316  0.26116  0.29447  1.0000
  C   C111      1.0  0.53441  0.27715  0.28443  1.0000
  H   H75       1.0  0.54309  0.28546  0.22070  1.0000
  H   H76       1.0  0.99155  0.24918  0.01141  1.0000
  N   N20       1.0  0.68730  0.34867  0.36281  1.0000
  C   C112      1.0  0.70385  0.33219  0.36187  1.0000
  C   C113      1.0  0.70376  0.38171  0.36184  1.0000
  C   C114      1.0  0.65428  0.33209  0.36206  1.0000
  C   C115      1.0  0.63719  0.32321  0.44472  1.0000
  C   C116      1.0  0.60455  0.30685  0.44379  1.0000
  C   C117      1.0  0.58730  0.29881  0.36044  1.0000
  C   C118      1.0  0.60498  0.30791  0.27796  1.0000
  C   C119      1.0  0.63761  0.32401  0.27864  1.0000
  C   C120      1.0  0.71996  0.33169  0.28275  1.0000
  C   C121      1.0  0.73638  0.31547  0.28189  1.0000
  C   C122      1.0  0.73759  0.29898  0.36000  1.0000
  C   C123      1.0  0.72144  0.29999  0.43931  1.0000
  C   C124      1.0  0.70495  0.31611  0.44029  1.0000
  C   C125      1.0  0.72046  0.39876  0.43964  1.0000
  C   C126      1.0  0.73672  0.43140  0.43889  1.0000
  C   C127      1.0  0.73720  0.44873  0.36055  1.0000
  C   C128      1.0  0.72035  0.43109  0.28277  1.0000
  C   C129      1.0  0.70409  0.39847  0.28328  1.0000
  H   H77       1.0  0.74787  0.31637  0.22290  1.0000
  H   H78       1.0  0.71979  0.34325  0.22490  1.0000
  H   H79       1.0  0.69378  0.31620  0.49912  1.0000
  H   H80       1.0  0.72124  0.28867  0.49816  1.0000
  H   H81       1.0  0.64853  0.32873  0.50643  1.0000
  H   H82       1.0  0.59347  0.30116  0.50594  1.0000
  H   H83       1.0  0.72074  0.38738  0.49777  1.0000
  H   H84       1.0  0.74829  0.44239  0.49755  1.0000
  H   H85       1.0  0.71962  0.44165  0.22358  1.0000
  H   H86       1.0  0.69251  0.38691  0.22532  1.0000
  H   H87       1.0  0.64926  0.32983  0.21746  1.0000
  H   H88       1.0  0.59440  0.30256  0.21523  1.0000
  N   N21       1.0  0.85433  0.18216  0.36257  1.0000
  C   C130      1.0  0.83734  0.19835  0.36613  1.0000
  C   C131      1.0  0.83847  0.14909  0.36616  1.0000
  C   C132      1.0  0.88740  0.19879  0.36660  1.0000
  C   C133      1.0  0.90341  0.21664  0.44419  1.0000
  C   C134      1.0  0.93603  0.23320  0.44708  1.0000
  C   C135      1.0  0.95427  0.23234  0.37340  1.0000
  C   C136      1.0  0.93787  0.21476  0.29518  1.0000
  C   C137      1.0  0.90526  0.19839  0.29182  1.0000
  C   C138      1.0  0.81649  0.19369  0.43823  1.0000
  C   C139      1.0  0.79947  0.20922  0.44026  1.0000
  C   C140      1.0  0.80334  0.23150  0.37305  1.0000
  C   C141      1.0  0.82432  0.23591  0.30066  1.0000
  C   C142      1.0  0.84068  0.21962  0.29681  1.0000
  C   C143      1.0  0.82946  0.13324  0.45091  1.0000
  C   C144      1.0  0.81264  0.10068  0.45451  1.0000
  C   C145      1.0  0.80534  0.08208  0.37420  1.0000
  C   C146      1.0  0.81485  0.09847  0.28942  1.0000
  C   C147      1.0  0.83074  0.13109  0.28529  1.0000
  H   H89       1.0  0.78343  0.20309  0.49115  1.0000
  H   H90       1.0  0.81292  0.17832  0.48946  1.0000
  H   H91       1.0  0.85550  0.22368  0.24326  1.0000
  H   H92       1.0  0.82820  0.25145  0.24939  1.0000
  H   H93       1.0  0.89125  0.21794  0.49891  1.0000
  H   H94       1.0  0.94631  0.24670  0.50339  1.0000
  H   H95       1.0  0.83454  0.14544  0.51102  1.0000
  H   H96       1.0  0.80505  0.09095  0.51762  1.0000
  H   H97       1.0  0.81033  0.08670  0.22857  1.0000
  H   H98       1.0  0.83677  0.14176  0.22258  1.0000
  H   H99       1.0  0.89451  0.18607  0.23396  1.0000
  H   H100      1.0  0.94961  0.21332  0.23952  1.0000
  C   C148      1.0  0.78659  0.24832  0.37509  1.0000
  C   C149      1.0  0.75429  0.28220  0.36089  1.0000
  N   N22       1.0  0.75948  0.27194  0.44205  1.0000
  C   C150      1.0  0.77449  0.25568  0.45399  1.0000
  C   C151      1.0  0.77828  0.24912  0.54384  1.0000
  C   C152      1.0  0.80488  0.27239  0.59369  1.0000
  H   H101      1.0  0.80778  0.26277  0.65800  1.0000
  H   H102      1.0  0.80201  0.29216  0.60992  1.0000
  H   H103      1.0  0.82596  0.28038  0.55325  1.0000
  O   O7        1.0  0.75455  0.23505  0.58900  1.0000
  C   C153      1.0  0.78858  0.04849  0.37612  1.0000
  C   C154      1.0  0.75400  0.48225  0.36174  1.0000
  N   N23       1.0  0.77040  0.49765  0.43781  1.0000
  C   C155      1.0  0.78717  0.02891  0.44966  1.0000
  C   C156      1.0  0.80323  0.03914  0.53144  1.0000
  C   C157      1.0  0.83341  0.04178  0.53614  1.0000
  H   H104      1.0  0.84752  0.05453  0.47692  1.0000
  H   H105      1.0  0.83124  0.01892  0.53768  1.0000
  H   H106      1.0  0.84551  0.05432  0.59826  1.0000
  O   O8        1.0  0.78764  0.02984  0.60156  1.0000
  C   C158      1.0  0.98772  0.24896  0.37490  1.0000
  C   C159      1.0  0.55379  0.28223  0.36140  1.0000
  N   N24       1.0  0.53820  0.26974  0.44130  1.0000
  C   C160      1.0  0.00690  0.25386  0.45293  1.0000
  C   C161      1.0  0.99572  0.24126  0.53873  1.0000
  C   C162      1.0  0.00625  0.26111  0.61902  1.0000
  H   H107      1.0  0.00509  0.28208  0.60688  1.0000
  H   H108      1.0  0.03003  0.26760  0.63602  1.0000
  O   O9        1.0  0.99203  0.21532  0.54853  1.0000
  N   N25       1.0  0.78157  0.75877  0.29368  1.0000
  C   C163      1.0  0.76648  0.77491  0.28306  1.0000
  H   H109      1.0  0.76391  0.78095  0.21806  1.0000
  N   N26       1.0  0.77235  0.53310  0.29951  1.0000
  C   C164      1.0  0.75562  0.00189  0.28905  1.0000
  H   H110      1.0  0.74455  0.99351  0.22801  1.0000
  N   N27       1.0  0.00316  0.76117  0.29447  1.0000
  C   C165      1.0  0.53442  0.77715  0.28443  1.0000
  H   H111      1.0  0.54309  0.78546  0.22070  1.0000
  H   H112      1.0  0.99155  0.74918  0.01141  1.0000
  N   N28       1.0  0.68730  0.84867  0.36281  1.0000
  C   C166      1.0  0.70385  0.83219  0.36187  1.0000
  C   C167      1.0  0.70376  0.88171  0.36184  1.0000
  C   C168      1.0  0.65428  0.83209  0.36206  1.0000
  C   C169      1.0  0.63719  0.82321  0.44472  1.0000
  C   C170      1.0  0.60455  0.80685  0.44379  1.0000
  C   C171      1.0  0.58730  0.79881  0.36044  1.0000
  C   C172      1.0  0.60498  0.80791  0.27796  1.0000
  C   C173      1.0  0.63761  0.82401  0.27864  1.0000
  C   C174      1.0  0.71996  0.83169  0.28275  1.0000
  C   C175      1.0  0.73638  0.81546  0.28189  1.0000
  C   C176      1.0  0.73759  0.79898  0.36000  1.0000
  C   C177      1.0  0.72144  0.79999  0.43931  1.0000
  C   C178      1.0  0.70495  0.81611  0.44029  1.0000
  C   C179      1.0  0.72046  0.89876  0.43964  1.0000
  C   C180      1.0  0.73672  0.93140  0.43889  1.0000
  C   C181      1.0  0.73720  0.94873  0.36055  1.0000
  C   C182      1.0  0.72035  0.93109  0.28277  1.0000
  C   C183      1.0  0.70409  0.89847  0.28328  1.0000
  H   H113      1.0  0.74787  0.81637  0.22290  1.0000
  H   H114      1.0  0.71979  0.84325  0.22490  1.0000
  H   H115      1.0  0.69378  0.81620  0.49912  1.0000
  H   H116      1.0  0.72124  0.78867  0.49816  1.0000
  H   H117      1.0  0.64853  0.82873  0.50643  1.0000
  H   H118      1.0  0.59347  0.80116  0.50594  1.0000
  H   H119      1.0  0.72074  0.88738  0.49777  1.0000
  H   H120      1.0  0.74829  0.94239  0.49755  1.0000
  H   H121      1.0  0.71962  0.94165  0.22358  1.0000
  H   H122      1.0  0.69251  0.88691  0.22532  1.0000
  H   H123      1.0  0.64926  0.82983  0.21746  1.0000
  H   H124      1.0  0.59440  0.80256  0.21523  1.0000
  N   N29       1.0  0.85433  0.68216  0.36257  1.0000
  C   C184      1.0  0.83734  0.69835  0.36613  1.0000
  C   C185      1.0  0.83847  0.64909  0.36616  1.0000
  C   C186      1.0  0.88740  0.69879  0.36660  1.0000
  C   C187      1.0  0.90341  0.71664  0.44419  1.0000
  C   C188      1.0  0.93603  0.73320  0.44708  1.0000
  C   C189      1.0  0.95427  0.73234  0.37340  1.0000
  C   C190      1.0  0.93787  0.71476  0.29518  1.0000
  C   C191      1.0  0.90526  0.69839  0.29182  1.0000
  C   C192      1.0  0.81649  0.69369  0.43823  1.0000
  C   C193      1.0  0.79947  0.70922  0.44026  1.0000
  C   C194      1.0  0.80334  0.73150  0.37305  1.0000
  C   C195      1.0  0.82432  0.73591  0.30066  1.0000
  C   C196      1.0  0.84068  0.71962  0.29681  1.0000
  C   C197      1.0  0.82946  0.63324  0.45091  1.0000
  C   C198      1.0  0.81265  0.60068  0.45451  1.0000
  C   C199      1.0  0.80535  0.58208  0.37420  1.0000
  C   C200      1.0  0.81485  0.59847  0.28942  1.0000
  C   C201      1.0  0.83074  0.63109  0.28529  1.0000
  H   H125      1.0  0.78343  0.70309  0.49115  1.0000
  H   H126      1.0  0.81292  0.67832  0.48946  1.0000
  H   H127      1.0  0.85550  0.72368  0.24326  1.0000
  H   H128      1.0  0.82820  0.75145  0.24939  1.0000
  H   H129      1.0  0.89125  0.71794  0.49891  1.0000
  H   H130      1.0  0.94631  0.74670  0.50339  1.0000
  H   H131      1.0  0.83454  0.64544  0.51102  1.0000
  H   H132      1.0  0.80505  0.59095  0.51762  1.0000
  H   H133      1.0  0.81033  0.58670  0.22857  1.0000
  H   H134      1.0  0.83677  0.64176  0.22258  1.0000
  H   H135      1.0  0.89452  0.68607  0.23396  1.0000
  H   H136      1.0  0.94962  0.71332  0.23952  1.0000
  C   C202      1.0  0.78658  0.74832  0.37509  1.0000
  C   C203      1.0  0.75429  0.78220  0.36089  1.0000
  N   N30       1.0  0.75948  0.77194  0.44205  1.0000
  C   C204      1.0  0.77449  0.75568  0.45399  1.0000
  C   C205      1.0  0.77828  0.74912  0.54384  1.0000
  C   C206      1.0  0.80488  0.77239  0.59369  1.0000
  H   H137      1.0  0.80778  0.76277  0.65800  1.0000
  H   H138      1.0  0.80201  0.79216  0.60992  1.0000
  H   H139      1.0  0.82596  0.78038  0.55326  1.0000
  O   O10       1.0  0.75455  0.73504  0.58900  1.0000
  C   C207      1.0  0.78858  0.54849  0.37612  1.0000
  C   C208      1.0  0.75400  0.98226  0.36174  1.0000
  N   N31       1.0  0.77040  0.99765  0.43781  1.0000
  C   C209      1.0  0.78717  0.52891  0.44966  1.0000
  C   C210      1.0  0.80323  0.53914  0.53144  1.0000
  C   C211      1.0  0.83341  0.54178  0.53614  1.0000
  H   H140      1.0  0.84752  0.55453  0.47692  1.0000
  H   H141      1.0  0.83124  0.51892  0.53768  1.0000
  H   H142      1.0  0.84551  0.55432  0.59826  1.0000
  O   O11       1.0  0.78765  0.52984  0.60155  1.0000
  C   C212      1.0  0.98772  0.74896  0.37490  1.0000
  C   C213      1.0  0.55379  0.78223  0.36140  1.0000
  N   N32       1.0  0.53820  0.76973  0.44130  1.0000
  C   C214      1.0  0.00690  0.75387  0.45293  1.0000
  C   C215      1.0  0.99572  0.74126  0.53873  1.0000
  C   C216      1.0  0.00625  0.76111  0.61902  1.0000
  H   H143      1.0  0.00509  0.78208  0.60688  1.0000
  H   H144      1.0  0.03004  0.76760  0.63602  1.0000
  O   O12       1.0  0.99203  0.71532  0.54853  1.0000
