data_image0
_chemical_formula_structural       C3HNC3HNO2NCHCNCNCNC3H3CHC3HNO2NC3NO2NC2NO2NC3HNC3HNO2NCHCNCNCNC3H3CHC3HNO2NC3NO2NC2NO2N2O2C2NO2NCNCNCNC2H3CHNO2C2NO2NCNCNCNC2H3CHCHC2NO2NCHC2NO2NHNO2CNCNCNC2H2CNO2NHNO2CNCNCNC2H2CNO2NC3HNO2NC3NC2NO2NCHCNCNCNC3H3C2HC3HNO2NCHC3HNO2NC3NC2NO2NCHCNCNCNC3H3C2HC3HNO2NCH
_chemical_formula_sum              "C120 H48 N72 O48"
_cell_length_a       45.2309
_cell_length_b       45.2309
_cell_length_c       14.5408
_cell_angle_alpha    90
_cell_angle_beta     90
_cell_angle_gamma    120

_space_group_name_H-M_alt    "P 1"
_space_group_IT_number       1

loop_
  _space_group_symop_operation_xyz
  'x, y, z'

loop_
  _atom_site_type_symbol
  _atom_site_label
  _atom_site_symmetry_multiplicity
  _atom_site_fract_x
  _atom_site_fract_y
  _atom_site_fract_z
  _atom_site_occupancy
  C   C1        1.0  0.29385  0.24918  0.36499  1.0000
  C   C2        1.0  0.30970  0.28537  0.36072  1.0000
  C   C3        1.0  0.28959  0.30132  0.36190  1.0000
  H   H1        1.0  0.30174  0.32737  0.35839  1.0000
  N   N1        1.0  0.31391  0.23445  0.36410  1.0000
  C   C4        1.0  0.29030  0.05257  0.36498  1.0000
  C   C5        1.0  0.25411  0.03222  0.36071  1.0000
  C   C6        1.0  0.23815  0.49616  0.36189  1.0000
  H   H2        1.0  0.21210  0.48226  0.35837  1.0000
  N   N2        1.0  0.23200  0.04584  0.35441  1.0000
  O   O1        1.0  0.23481  0.06397  0.42298  1.0000
  O   O2        1.0  0.23739  0.06324  0.28254  1.0000
  N   N3        1.0  0.30503  0.08736  0.36409  1.0000
  C   C7        1.0  0.04331  0.24988  0.36189  1.0000
  H   H3        1.0  0.05722  0.23774  0.35839  1.0000
  C   C8        1.0  0.20025  0.38332  0.36685  1.0000
  N   N4        1.0  0.16655  0.35879  0.36680  1.0000
  C   C9        1.0  0.15616  0.32483  0.36684  1.0000
  N   N5        1.0  0.18069  0.31566  0.36680  1.0000
  C   C10       1.0  0.21465  0.33922  0.36684  1.0000
  N   N6        1.0  0.22382  0.37293  0.36680  1.0000
  C   C11       1.0  0.24015  0.32998  0.36639  1.0000
  C   C12       1.0  0.20950  0.41807  0.36640  1.0000
  C   C13       1.0  0.12141  0.29933  0.36639  1.0000
  H   H4        1.0  0.11581  0.27446  0.36535  1.0000
  H   H5        1.0  0.19024  0.42367  0.36535  1.0000
  H   H6        1.0  0.26502  0.34924  0.36535  1.0000
  C   C14       1.0  0.30723  0.20161  0.36570  1.0000
  H   H7        1.0  0.28236  0.18234  0.36674  1.0000
  C   C15       1.0  0.25352  0.28241  0.36710  1.0000
  C   C16       1.0  0.23767  0.24621  0.37136  1.0000
  C   C17       1.0  0.25778  0.23026  0.37020  1.0000
  H   H8        1.0  0.24563  0.20421  0.37369  1.0000
  N   N7        1.0  0.20195  0.22411  0.37764  1.0000
  O   O3        1.0  0.18663  0.22691  0.30907  1.0000
  O   O4        1.0  0.18993  0.22949  0.44950  1.0000
  N   N8        1.0  0.23346  0.29714  0.36799  1.0000
  C   C18       1.0  0.25707  0.47901  0.36711  1.0000
  C   C19       1.0  0.29327  0.49936  0.37138  1.0000
  C   C20       1.0  0.30922  0.03542  0.37022  1.0000
  N   N9        1.0  0.31537  0.48574  0.37768  1.0000
  O   O5        1.0  0.31257  0.46762  0.30910  1.0000
  O   O6        1.0  0.30998  0.46834  0.44954  1.0000
  N   N10       1.0  0.24234  0.44422  0.36799  1.0000
  C   C21       1.0  0.06047  0.28596  0.36710  1.0000
  C   C22       1.0  0.04012  0.30181  0.37137  1.0000
  N   N11       1.0  0.05374  0.33753  0.37766  1.0000
  O   O7        1.0  0.07186  0.35284  0.30908  1.0000
  O   O8        1.0  0.07114  0.34954  0.44952  1.0000
  N   N12       1.0  0.09526  0.30602  0.36799  1.0000
  C   C23       1.0  0.29385  0.74917  0.36499  1.0000
  C   C24       1.0  0.30970  0.78537  0.36072  1.0000
  C   C25       1.0  0.28959  0.80133  0.36190  1.0000
  H   H9        1.0  0.30174  0.82737  0.35839  1.0000
  N   N13       1.0  0.31391  0.73444  0.36410  1.0000
  C   C26       1.0  0.29030  0.55258  0.36498  1.0000
  C   C27       1.0  0.25410  0.53222  0.36071  1.0000
  C   C28       1.0  0.23815  0.99616  0.36189  1.0000
  H   H10       1.0  0.21210  0.98226  0.35837  1.0000
  N   N14       1.0  0.23200  0.54584  0.35441  1.0000
  O   O9        1.0  0.23481  0.56397  0.42298  1.0000
  O   O10       1.0  0.23739  0.56324  0.28254  1.0000
  N   N15       1.0  0.30503  0.58736  0.36409  1.0000
  C   C29       1.0  0.04331  0.74988  0.36189  1.0000
  H   H11       1.0  0.05722  0.73774  0.35839  1.0000
  C   C30       1.0  0.20025  0.88332  0.36685  1.0000
  N   N16       1.0  0.16655  0.85879  0.36680  1.0000
  C   C31       1.0  0.15616  0.82483  0.36684  1.0000
  N   N17       1.0  0.18069  0.81566  0.36680  1.0000
  C   C32       1.0  0.21465  0.83922  0.36684  1.0000
  N   N18       1.0  0.22382  0.87293  0.36680  1.0000
  C   C33       1.0  0.24015  0.82997  0.36639  1.0000
  C   C34       1.0  0.20950  0.91807  0.36640  1.0000
  C   C35       1.0  0.12141  0.79933  0.36639  1.0000
  H   H12       1.0  0.11581  0.77446  0.36535  1.0000
  H   H13       1.0  0.19023  0.92367  0.36535  1.0000
  H   H14       1.0  0.26501  0.84924  0.36535  1.0000
  C   C36       1.0  0.30722  0.70161  0.36570  1.0000
  H   H15       1.0  0.28236  0.68234  0.36674  1.0000
  C   C37       1.0  0.25352  0.78241  0.36710  1.0000
  C   C38       1.0  0.23767  0.74621  0.37136  1.0000
  C   C39       1.0  0.25778  0.73026  0.37020  1.0000
  H   H16       1.0  0.24563  0.70421  0.37369  1.0000
  N   N19       1.0  0.20195  0.72411  0.37764  1.0000
  O   O11       1.0  0.18663  0.72691  0.30907  1.0000
  O   O12       1.0  0.18993  0.72949  0.44950  1.0000
  N   N20       1.0  0.23346  0.79714  0.36799  1.0000
  C   C40       1.0  0.25707  0.97901  0.36711  1.0000
  C   C41       1.0  0.29327  0.99936  0.37138  1.0000
  C   C42       1.0  0.30922  0.53542  0.37022  1.0000
  N   N21       1.0  0.31537  0.98574  0.37768  1.0000
  O   O13       1.0  0.31257  0.96762  0.30910  1.0000
  O   O14       1.0  0.30998  0.96834  0.44954  1.0000
  N   N22       1.0  0.24234  0.94422  0.36799  1.0000
  C   C43       1.0  0.06047  0.78596  0.36710  1.0000
  C   C44       1.0  0.04012  0.80181  0.37137  1.0000
  N   N23       1.0  0.05374  0.83752  0.37766  1.0000
  O   O15       1.0  0.07186  0.85285  0.30908  1.0000
  O   O16       1.0  0.07114  0.84954  0.44952  1.0000
  N   N24       1.0  0.09526  0.80602  0.36799  1.0000
  N   N25       1.0  0.34542  0.30747  0.35445  1.0000
  O   O17       1.0  0.36074  0.30467  0.42302  1.0000
  O   O18       1.0  0.35744  0.30209  0.28259  1.0000
  C   C45       1.0  0.48690  0.24562  0.36499  1.0000
  C   C46       1.0  0.50725  0.22978  0.36072  1.0000
  N   N26       1.0  0.49363  0.19406  0.35443  1.0000
  O   O19       1.0  0.47551  0.17874  0.42300  1.0000
  O   O20       1.0  0.47623  0.18204  0.28257  1.0000
  N   N27       1.0  0.45211  0.22556  0.36410  1.0000
  C   C47       1.0  0.34712  0.14826  0.36524  1.0000
  N   N28       1.0  0.38082  0.17280  0.36528  1.0000
  C   C48       1.0  0.39121  0.20675  0.36526  1.0000
  N   N29       1.0  0.36668  0.21592  0.36529  1.0000
  C   C49       1.0  0.33272  0.19236  0.36525  1.0000
  N   N30       1.0  0.32356  0.15866  0.36528  1.0000
  C   C50       1.0  0.33787  0.11351  0.36569  1.0000
  C   C51       1.0  0.42596  0.23225  0.36570  1.0000
  H   H17       1.0  0.43156  0.25712  0.36675  1.0000
  H   H18       1.0  0.35714  0.10791  0.36675  1.0000
  H   H19       1.0  0.33527  0.04932  0.37371  1.0000
  C   C52       1.0  0.50406  0.28170  0.37021  1.0000
  H   H20       1.0  0.49016  0.29384  0.37370  1.0000
  N   N31       1.0  0.34542  0.80747  0.35445  1.0000
  O   O21       1.0  0.36074  0.80467  0.42302  1.0000
  O   O22       1.0  0.35744  0.80209  0.28259  1.0000
  C   C53       1.0  0.48690  0.74562  0.36499  1.0000
  C   C54       1.0  0.50725  0.72977  0.36072  1.0000
  N   N32       1.0  0.49363  0.69406  0.35443  1.0000
  O   O23       1.0  0.47551  0.67873  0.42300  1.0000
  O   O24       1.0  0.47623  0.68204  0.28257  1.0000
  N   N33       1.0  0.45211  0.72557  0.36410  1.0000
  C   C55       1.0  0.34712  0.64826  0.36524  1.0000
  N   N34       1.0  0.38082  0.67280  0.36528  1.0000
  C   C56       1.0  0.39121  0.70675  0.36526  1.0000
  N   N35       1.0  0.36668  0.71592  0.36529  1.0000
  C   C57       1.0  0.33272  0.69236  0.36525  1.0000
  N   N36       1.0  0.32355  0.65866  0.36528  1.0000
  C   C58       1.0  0.33787  0.61351  0.36569  1.0000
  C   C59       1.0  0.42596  0.73225  0.36570  1.0000
  H   H21       1.0  0.43156  0.75712  0.36675  1.0000
  H   H22       1.0  0.35714  0.60791  0.36675  1.0000
  H   H23       1.0  0.33527  0.54932  0.37371  1.0000
  C   C60       1.0  0.50406  0.78170  0.37021  1.0000
  H   H24       1.0  0.49016  0.79384  0.37370  1.0000
  C   C61       1.0  0.54331  0.24988  0.36189  1.0000
  H   H25       1.0  0.55722  0.23774  0.35839  1.0000
  C   C62       1.0  0.56047  0.28596  0.36710  1.0000
  C   C63       1.0  0.54012  0.30181  0.37137  1.0000
  N   N37       1.0  0.55374  0.33753  0.37766  1.0000
  O   O25       1.0  0.57186  0.35284  0.30908  1.0000
  O   O26       1.0  0.57114  0.34954  0.44952  1.0000
  N   N38       1.0  0.59526  0.30602  0.36799  1.0000
  C   C64       1.0  0.54331  0.74988  0.36189  1.0000
  H   H26       1.0  0.55722  0.73774  0.35839  1.0000
  C   C65       1.0  0.56047  0.78596  0.36710  1.0000
  C   C66       1.0  0.54012  0.80181  0.37137  1.0000
  N   N39       1.0  0.55374  0.83752  0.37766  1.0000
  O   O27       1.0  0.57186  0.85285  0.30908  1.0000
  O   O28       1.0  0.57114  0.84954  0.44952  1.0000
  N   N40       1.0  0.59526  0.80602  0.36799  1.0000
  H   H27       1.0  0.71210  0.48226  0.35837  1.0000
  N   N41       1.0  0.73201  0.04584  0.35441  1.0000
  O   O29       1.0  0.73481  0.06397  0.42298  1.0000
  O   O30       1.0  0.73739  0.06324  0.28254  1.0000
  C   C67       1.0  0.70025  0.38332  0.36685  1.0000
  N   N42       1.0  0.66655  0.35879  0.36680  1.0000
  C   C68       1.0  0.65616  0.32483  0.36684  1.0000
  N   N43       1.0  0.68069  0.31566  0.36680  1.0000
  C   C69       1.0  0.71465  0.33922  0.36684  1.0000
  N   N44       1.0  0.72382  0.37293  0.36680  1.0000
  C   C70       1.0  0.70950  0.41807  0.36640  1.0000
  C   C71       1.0  0.62141  0.29933  0.36639  1.0000
  H   H28       1.0  0.61581  0.27446  0.36535  1.0000
  H   H29       1.0  0.69024  0.42367  0.36535  1.0000
  C   C72       1.0  0.73767  0.24621  0.37136  1.0000
  N   N45       1.0  0.70195  0.22411  0.37764  1.0000
  O   O31       1.0  0.68664  0.22691  0.30907  1.0000
  O   O32       1.0  0.68993  0.22949  0.44950  1.0000
  N   N46       1.0  0.73346  0.29714  0.36799  1.0000
  H   H30       1.0  0.71210  0.98226  0.35837  1.0000
  N   N47       1.0  0.73201  0.54584  0.35441  1.0000
  O   O33       1.0  0.73480  0.56397  0.42298  1.0000
  O   O34       1.0  0.73739  0.56324  0.28254  1.0000
  C   C73       1.0  0.70025  0.88332  0.36685  1.0000
  N   N48       1.0  0.66655  0.85879  0.36680  1.0000
  C   C74       1.0  0.65616  0.82483  0.36684  1.0000
  N   N49       1.0  0.68069  0.81566  0.36680  1.0000
  C   C75       1.0  0.71464  0.83922  0.36684  1.0000
  N   N50       1.0  0.72382  0.87293  0.36680  1.0000
  C   C76       1.0  0.70950  0.91807  0.36640  1.0000
  C   C77       1.0  0.62141  0.79933  0.36639  1.0000
  H   H31       1.0  0.61581  0.77446  0.36535  1.0000
  H   H32       1.0  0.69023  0.92367  0.36535  1.0000
  C   C78       1.0  0.73767  0.74621  0.37136  1.0000
  N   N51       1.0  0.70195  0.72411  0.37764  1.0000
  O   O35       1.0  0.68663  0.72691  0.30907  1.0000
  O   O36       1.0  0.68993  0.72949  0.44950  1.0000
  N   N52       1.0  0.73346  0.79714  0.36799  1.0000
  C   C79       1.0  0.79385  0.24918  0.36499  1.0000
  C   C80       1.0  0.80970  0.28537  0.36072  1.0000
  C   C81       1.0  0.78959  0.30132  0.36190  1.0000
  H   H33       1.0  0.80174  0.32737  0.35839  1.0000
  N   N53       1.0  0.84542  0.30747  0.35445  1.0000
  O   O37       1.0  0.86074  0.30467  0.42302  1.0000
  O   O38       1.0  0.85744  0.30209  0.28259  1.0000
  N   N54       1.0  0.81391  0.23445  0.36410  1.0000
  C   C82       1.0  0.79030  0.05257  0.36498  1.0000
  C   C83       1.0  0.75411  0.03222  0.36071  1.0000
  C   C84       1.0  0.73815  0.49616  0.36189  1.0000
  N   N55       1.0  0.80503  0.08736  0.36409  1.0000
  C   C85       1.0  0.98690  0.24562  0.36499  1.0000
  C   C86       1.0  0.00725  0.22978  0.36072  1.0000
  N   N56       1.0  0.99363  0.19406  0.35443  1.0000
  O   O39       1.0  0.97551  0.17874  0.42300  1.0000
  O   O40       1.0  0.97623  0.18204  0.28257  1.0000
  N   N57       1.0  0.95211  0.22556  0.36410  1.0000
  C   C87       1.0  0.74015  0.32998  0.36639  1.0000
  H   H34       1.0  0.76501  0.34924  0.36535  1.0000
  C   C88       1.0  0.84712  0.14826  0.36524  1.0000
  N   N58       1.0  0.88082  0.17280  0.36528  1.0000
  C   C89       1.0  0.89121  0.20675  0.36526  1.0000
  N   N59       1.0  0.86668  0.21592  0.36529  1.0000
  C   C90       1.0  0.83273  0.19236  0.36525  1.0000
  N   N60       1.0  0.82356  0.15866  0.36528  1.0000
  C   C91       1.0  0.80722  0.20161  0.36570  1.0000
  C   C92       1.0  0.83787  0.11351  0.36569  1.0000
  C   C93       1.0  0.92596  0.23225  0.36570  1.0000
  H   H35       1.0  0.93156  0.25712  0.36675  1.0000
  H   H36       1.0  0.85714  0.10791  0.36675  1.0000
  H   H37       1.0  0.78236  0.18234  0.36674  1.0000
  C   C94       1.0  0.75352  0.28241  0.36710  1.0000
  C   C95       1.0  0.75778  0.23026  0.37020  1.0000
  H   H38       1.0  0.74563  0.20421  0.37369  1.0000
  C   C96       1.0  0.75707  0.47901  0.36711  1.0000
  C   C97       1.0  0.79327  0.49936  0.37138  1.0000
  C   C98       1.0  0.80922  0.03542  0.37022  1.0000
  H   H39       1.0  0.83527  0.04932  0.37371  1.0000
  N   N61       1.0  0.81537  0.48574  0.37768  1.0000
  O   O41       1.0  0.81257  0.46762  0.30910  1.0000
  O   O42       1.0  0.80998  0.46834  0.44954  1.0000
  N   N62       1.0  0.74234  0.44422  0.36799  1.0000
  C   C99       1.0  0.00406  0.28170  0.37021  1.0000
  H   H40       1.0  0.99016  0.29384  0.37370  1.0000
  C   C100      1.0  0.79385  0.74917  0.36499  1.0000
  C   C101      1.0  0.80970  0.78537  0.36072  1.0000
  C   C102      1.0  0.78959  0.80133  0.36190  1.0000
  H   H41       1.0  0.80174  0.82737  0.35839  1.0000
  N   N63       1.0  0.84542  0.80747  0.35445  1.0000
  O   O43       1.0  0.86074  0.80467  0.42302  1.0000
  O   O44       1.0  0.85744  0.80209  0.28259  1.0000
  N   N64       1.0  0.81391  0.73444  0.36410  1.0000
  C   C103      1.0  0.79030  0.55258  0.36498  1.0000
  C   C104      1.0  0.75410  0.53222  0.36071  1.0000
  C   C105      1.0  0.73815  0.99616  0.36189  1.0000
  N   N65       1.0  0.80503  0.58736  0.36409  1.0000
  C   C106      1.0  0.98690  0.74562  0.36499  1.0000
  C   C107      1.0  0.00725  0.72977  0.36072  1.0000
  N   N66       1.0  0.99363  0.69406  0.35443  1.0000
  O   O45       1.0  0.97551  0.67873  0.42300  1.0000
  O   O46       1.0  0.97623  0.68204  0.28257  1.0000
  N   N67       1.0  0.95211  0.72557  0.36410  1.0000
  C   C108      1.0  0.74015  0.82997  0.36639  1.0000
  H   H42       1.0  0.76501  0.84924  0.36535  1.0000
  C   C109      1.0  0.84712  0.64826  0.36524  1.0000
  N   N68       1.0  0.88082  0.67280  0.36528  1.0000
  C   C110      1.0  0.89121  0.70675  0.36526  1.0000
  N   N69       1.0  0.86668  0.71592  0.36529  1.0000
  C   C111      1.0  0.83273  0.69236  0.36525  1.0000
  N   N70       1.0  0.82356  0.65866  0.36528  1.0000
  C   C112      1.0  0.80722  0.70161  0.36570  1.0000
  C   C113      1.0  0.83787  0.61351  0.36569  1.0000
  C   C114      1.0  0.92596  0.73225  0.36570  1.0000
  H   H43       1.0  0.93156  0.75712  0.36675  1.0000
  H   H44       1.0  0.85714  0.60791  0.36675  1.0000
  H   H45       1.0  0.78236  0.68234  0.36674  1.0000
  C   C115      1.0  0.75352  0.78241  0.36710  1.0000
  C   C116      1.0  0.75778  0.73026  0.37020  1.0000
  H   H46       1.0  0.74563  0.70421  0.37369  1.0000
  C   C117      1.0  0.75707  0.97901  0.36711  1.0000
  C   C118      1.0  0.79327  0.99936  0.37138  1.0000
  C   C119      1.0  0.80922  0.53542  0.37022  1.0000
  H   H47       1.0  0.83527  0.54932  0.37371  1.0000
  N   N71       1.0  0.81537  0.98574  0.37768  1.0000
  O   O47       1.0  0.81257  0.96762  0.30910  1.0000
  O   O48       1.0  0.80998  0.96834  0.44954  1.0000
  N   N72       1.0  0.74234  0.94422  0.36799  1.0000
  C   C120      1.0  0.00406  0.78170  0.37021  1.0000
  H   H48       1.0  0.99015  0.79384  0.37370  1.0000
