data_image0
_chemical_formula_structural       C2HCHCHC2HC3H2C3HCHC3H3C3HC3H3C3HC3H3C2NC2NCH3C2NC3NHCH3NC3NHC2NC3NHCH3C2NC3NHCH3C2NC3NHCH3C3N2H3C3NC3NH4C3NC3NH4C2HC3H2C2HC5H3C6H3C2HC5H3C2HC5H3C2HC5H3
_chemical_formula_sum              "C114 H72 N18"
_cell_length_a       31.5965
_cell_length_b       31.5966
_cell_length_c       14.8386
_cell_angle_alpha    90
_cell_angle_beta     90
_cell_angle_gamma    120

_space_group_name_H-M_alt    "P 1"
_space_group_IT_number       1

loop_
  _space_group_symop_operation_xyz
  'x, y, z'

loop_
  _atom_site_type_symbol
  _atom_site_label
  _atom_site_symmetry_multiplicity
  _atom_site_fract_x
  _atom_site_fract_y
  _atom_site_fract_z
  _atom_site_occupancy
  C   C1        1.0  0.03526  0.51898  0.34288  1.0000
  C   C2        1.0  0.06372  0.57115  0.34125  1.0000
  H   H1        1.0  0.04704  0.59158  0.34006  1.0000
  C   C3        1.0  0.06368  0.49523  0.34438  1.0000
  H   H2        1.0  0.04695  0.45812  0.34686  1.0000
  C   C4        1.0  0.11554  0.59780  0.34042  1.0000
  H   H3        1.0  0.11539  0.62149  0.16688  1.0000
  C   C5        1.0  0.11550  0.52032  0.34299  1.0000
  C   C6        1.0  0.16109  0.48688  0.26514  1.0000
  H   H4        1.0  0.15012  0.49248  0.20365  1.0000
  C   C7        1.0  0.14107  0.65022  0.34055  1.0000
  C   C8        1.0  0.16217  0.67747  0.26041  1.0000
  C   C9        1.0  0.14773  0.65782  0.16799  1.0000
  H   H5        1.0  0.17773  0.65581  0.13581  1.0000
  H   H6        1.0  0.13964  0.68210  0.12863  1.0000
  C   C10       1.0  0.14223  0.57239  0.34078  1.0000
  C   C11       1.0  0.14093  0.49346  0.34538  1.0000
  C   C12       1.0  0.16099  0.48928  0.42795  1.0000
  H   H7        1.0  0.14944  0.49712  0.48691  1.0000
  C   C13       1.0  0.16033  0.67400  0.42392  1.0000
  H   H8        1.0  0.14788  0.65440  0.48255  1.0000
  C   C14       1.0  0.98109  0.49195  0.34288  1.0000
  C   C15       1.0  0.95262  0.43978  0.34129  1.0000
  C   C16       1.0  0.90080  0.41313  0.34046  1.0000
  H   H9        1.0  0.96930  0.41934  0.34017  1.0000
  H   H10       1.0  0.21153  0.63281  0.33755  1.0000
  H   H11       1.0  0.80481  0.37811  0.33785  1.0000
  C   C17       1.0  0.52166  0.49185  0.34286  1.0000
  C   C18       1.0  0.57382  0.51555  0.34119  1.0000
  C   C19       1.0  0.60047  0.49038  0.34043  1.0000
  H   H12       1.0  0.59426  0.55266  0.33997  1.0000
  C   C20       1.0  0.49462  0.51899  0.34287  1.0000
  C   C21       1.0  0.41582  0.52047  0.34051  1.0000
  C   C22       1.0  0.44246  0.49530  0.34130  1.0000
  H   H13       1.0  0.42202  0.45818  0.34018  1.0000
  H   H14       1.0  0.38081  0.58146  0.33788  1.0000
  H   H15       1.0  0.63548  0.42939  0.33791  1.0000
  C   C23       1.0  0.52171  0.03254  0.34290  1.0000
  C   C24       1.0  0.49800  0.06099  0.34100  1.0000
  C   C25       1.0  0.52316  0.11281  0.34028  1.0000
  H   H16       1.0  0.46089  0.04430  0.33954  1.0000
  C   C26       1.0  0.49459  0.97837  0.34290  1.0000
  C   C27       1.0  0.49315  0.89810  0.34032  1.0000
  C   C28       1.0  0.51830  0.94992  0.34107  1.0000
  H   H17       1.0  0.55542  0.96661  0.33967  1.0000
  H   H18       1.0  0.43220  0.80211  0.33757  1.0000
  H   H19       1.0  0.58413  0.20880  0.33780  1.0000
  C   C29       1.0  0.36340  0.49362  0.34094  1.0000
  C   C30       1.0  0.33621  0.48742  0.26066  1.0000
  N   N1        1.0  0.29029  0.48091  0.26698  1.0000
  C   C31       1.0  0.26710  0.47857  0.34557  1.0000
  C   C32       1.0  0.22217  0.47850  0.34636  1.0000
  N   N2        1.0  0.20071  0.48076  0.26837  1.0000
  C   C33       1.0  0.35589  0.49265  0.16825  1.0000
  H   H20       1.0  0.39220  0.49661  0.16715  1.0000
  H   H21       1.0  0.35792  0.52467  0.13608  1.0000
  H   H22       1.0  0.33160  0.46029  0.12887  1.0000
  C   C34       1.0  0.52004  0.87258  0.34048  1.0000
  C   C35       1.0  0.52620  0.85148  0.26034  1.0000
  N   N3        1.0  0.53270  0.81208  0.26670  1.0000
  C   C36       1.0  0.53504  0.79127  0.34533  1.0000
  C   C37       1.0  0.53511  0.74641  0.34624  1.0000
  C   C38       1.0  0.52675  0.67692  0.26520  1.0000
  N   N4        1.0  0.53286  0.72265  0.26832  1.0000
  H   H23       1.0  0.52117  0.66034  0.20372  1.0000
  C   C39       1.0  0.52094  0.86590  0.16792  1.0000
  H   H24       1.0  0.51695  0.89824  0.16680  1.0000
  H   H25       1.0  0.48891  0.83588  0.13579  1.0000
  H   H26       1.0  0.55329  0.87398  0.12852  1.0000
  N   N5        1.0  0.20157  0.72337  0.26683  1.0000
  C   C40       1.0  0.22238  0.74651  0.34548  1.0000
  C   C41       1.0  0.26723  0.79145  0.34640  1.0000
  C   C42       1.0  0.33672  0.85259  0.26533  1.0000
  N   N6        1.0  0.29100  0.81297  0.26847  1.0000
  H   H27       1.0  0.35332  0.86364  0.20388  1.0000
  C   C43       1.0  0.65288  0.51723  0.34074  1.0000
  C   C44       1.0  0.68011  0.52337  0.26053  1.0000
  N   N7        1.0  0.72603  0.52988  0.26685  1.0000
  C   C45       1.0  0.74921  0.53226  0.34545  1.0000
  C   C46       1.0  0.79416  0.53236  0.34633  1.0000
  C   C47       1.0  0.85527  0.52400  0.26515  1.0000
  N   N8        1.0  0.81562  0.53008  0.26835  1.0000
  H   H28       1.0  0.86626  0.51840  0.20368  1.0000
  C   C48       1.0  0.66043  0.51813  0.16812  1.0000
  H   H29       1.0  0.62412  0.51417  0.16701  1.0000
  H   H30       1.0  0.65840  0.48610  0.13598  1.0000
  H   H31       1.0  0.68472  0.55048  0.12872  1.0000
  C   C49       1.0  0.49627  0.13834  0.34045  1.0000
  C   C50       1.0  0.49024  0.15949  0.26026  1.0000
  N   N9        1.0  0.48372  0.19888  0.26672  1.0000
  C   C51       1.0  0.48134  0.21963  0.34541  1.0000
  C   C52       1.0  0.48124  0.26448  0.34640  1.0000
  C   C53       1.0  0.48964  0.33402  0.26545  1.0000
  N   N10       1.0  0.48355  0.28830  0.26850  1.0000
  H   H32       1.0  0.49525  0.35065  0.20401  1.0000
  C   C54       1.0  0.49542  0.14501  0.16785  1.0000
  H   H33       1.0  0.49939  0.11266  0.16676  1.0000
  H   H34       1.0  0.52744  0.17500  0.13564  1.0000
  H   H35       1.0  0.46304  0.13693  0.12852  1.0000
  C   C55       1.0  0.87526  0.36072  0.34082  1.0000
  C   C56       1.0  0.85410  0.33348  0.26064  1.0000
  N   N11       1.0  0.81471  0.28757  0.26703  1.0000
  C   C57       1.0  0.79393  0.26442  0.34567  1.0000
  C   C58       1.0  0.74908  0.21947  0.34662  1.0000
  C   C59       1.0  0.67955  0.15833  0.26561  1.0000
  N   N12       1.0  0.72526  0.19798  0.26873  1.0000
  H   H36       1.0  0.66286  0.14736  0.20422  1.0000
  C   C60       1.0  0.86860  0.35311  0.16821  1.0000
  H   H37       1.0  0.90096  0.38942  0.16709  1.0000
  H   H38       1.0  0.83862  0.35514  0.13596  1.0000
  H   H39       1.0  0.87667  0.32879  0.12893  1.0000
  C   C61       1.0  0.87412  0.43854  0.34084  1.0000
  C   C62       1.0  0.90085  0.49061  0.34298  1.0000
  C   C63       1.0  0.95267  0.51570  0.34435  1.0000
  N   N13       1.0  0.82395  0.41346  0.33960  1.0000
  N   N14       1.0  0.19239  0.59747  0.33941  1.0000
  H   H40       1.0  0.21153  0.58125  0.33958  1.0000
  H   H41       1.0  0.80481  0.42968  0.33976  1.0000
  H   H42       1.0  0.96940  0.55280  0.34681  1.0000
  C   C64       1.0  0.57506  0.43829  0.34094  1.0000
  C   C65       1.0  0.52299  0.41295  0.34311  1.0000
  C   C66       1.0  0.49790  0.43968  0.34445  1.0000
  N   N15       1.0  0.60013  0.41319  0.33974  1.0000
  C   C67       1.0  0.51838  0.57116  0.34434  1.0000
  C   C68       1.0  0.49330  0.59790  0.34300  1.0000
  C   C69       1.0  0.44123  0.57256  0.34089  1.0000
  N   N16       1.0  0.41616  0.59766  0.33964  1.0000
  H   H43       1.0  0.43238  0.63302  0.33980  1.0000
  H   H44       1.0  0.58391  0.37783  0.34003  1.0000
  H   H45       1.0  0.46080  0.41931  0.34702  1.0000
  H   H46       1.0  0.55549  0.59153  0.34679  1.0000
  C   C70       1.0  0.57525  0.13950  0.34092  1.0000
  C   C71       1.0  0.60060  0.11277  0.34324  1.0000
  C   C72       1.0  0.57388  0.06096  0.34468  1.0000
  N   N17       1.0  0.60034  0.18967  0.33971  1.0000
  C   C73       1.0  0.44242  0.94993  0.34460  1.0000
  C   C74       1.0  0.41570  0.89812  0.34317  1.0000
  C   C75       1.0  0.44106  0.87140  0.34084  1.0000
  N   N18       1.0  0.41598  0.82124  0.33949  1.0000
  H   H47       1.0  0.38062  0.80208  0.33976  1.0000
  H   H48       1.0  0.63570  0.20881  0.34011  1.0000
  H   H49       1.0  0.59425  0.04423  0.34746  1.0000
  H   H50       1.0  0.42204  0.96666  0.34733  1.0000
  C   C76       1.0  0.29171  0.48199  0.42768  1.0000
  C   C77       1.0  0.33950  0.48885  0.42424  1.0000
  H   H51       1.0  0.35913  0.49622  0.48286  1.0000
  C   C78       1.0  0.20181  0.48214  0.42952  1.0000
  C   C79       1.0  0.22544  0.48320  0.51097  1.0000
  C   C80       1.0  0.26988  0.48305  0.51006  1.0000
  H   H52       1.0  0.21184  0.48670  0.57138  1.0000
  H   H53       1.0  0.28748  0.48646  0.56985  1.0000
  C   C81       1.0  0.53160  0.81248  0.42740  1.0000
  C   C82       1.0  0.52473  0.85340  0.42383  1.0000
  H   H54       1.0  0.51738  0.86569  0.48245  1.0000
  C   C83       1.0  0.52017  0.65018  0.34546  1.0000
  C   C84       1.0  0.52434  0.67448  0.42795  1.0000
  C   C85       1.0  0.53146  0.72244  0.42943  1.0000
  C   C86       1.0  0.53038  0.74503  0.51083  1.0000
  C   C87       1.0  0.53057  0.78965  0.50984  1.0000
  H   H55       1.0  0.52686  0.72795  0.57127  1.0000
  H   H56       1.0  0.52707  0.80381  0.56958  1.0000
  H   H57       1.0  0.51649  0.65512  0.48694  1.0000
  C   C88       1.0  0.20118  0.72183  0.42754  1.0000
  C   C89       1.0  0.36340  0.87267  0.34566  1.0000
  C   C90       1.0  0.33919  0.85249  0.42818  1.0000
  C   C91       1.0  0.29119  0.81173  0.42963  1.0000
  C   C92       1.0  0.26856  0.78808  0.51103  1.0000
  C   C93       1.0  0.22398  0.74363  0.51000  1.0000
  H   H58       1.0  0.28568  0.80157  0.57146  1.0000
  H   H59       1.0  0.20983  0.72593  0.56973  1.0000
  H   H60       1.0  0.35851  0.86415  0.48720  1.0000
  C   C94       1.0  0.72462  0.52890  0.42756  1.0000
  C   C95       1.0  0.67680  0.52193  0.42402  1.0000
  H   H61       1.0  0.65724  0.51482  0.48269  1.0000
  C   C96       1.0  0.87541  0.51748  0.34545  1.0000
  C   C97       1.0  0.85531  0.52158  0.42799  1.0000
  C   C98       1.0  0.81454  0.52880  0.42952  1.0000
  C   C99       1.0  0.79091  0.52779  0.51094  1.0000
  C   C100      1.0  0.74649  0.52799  0.51000  1.0000
  H   H62       1.0  0.80451  0.52435  0.57138  1.0000
  H   H63       1.0  0.72886  0.52454  0.56976  1.0000
  H   H64       1.0  0.86702  0.51397  0.48701  1.0000
  C   C101      1.0  0.48470  0.19835  0.42745  1.0000
  C   C102      1.0  0.49158  0.15745  0.42387  1.0000
  H   H65       1.0  0.49876  0.14498  0.48244  1.0000
  C   C103      1.0  0.49612  0.36066  0.34583  1.0000
  C   C104      1.0  0.49192  0.33633  0.42825  1.0000
  C   C105      1.0  0.48477  0.28836  0.42964  1.0000
  C   C106      1.0  0.48578  0.26570  0.51101  1.0000
  C   C107      1.0  0.48567  0.22112  0.50994  1.0000
  H   H66       1.0  0.48917  0.28269  0.57150  1.0000
  H   H67       1.0  0.48897  0.20683  0.56969  1.0000
  H   H68       1.0  0.49963  0.35562  0.48731  1.0000
  C   C108      1.0  0.81520  0.28904  0.42773  1.0000
  C   C109      1.0  0.85610  0.33683  0.42415  1.0000
  H   H69       1.0  0.86853  0.35646  0.48274  1.0000
  C   C110      1.0  0.65289  0.13821  0.34599  1.0000
  C   C111      1.0  0.67722  0.15832  0.42844  1.0000
  C   C112      1.0  0.72518  0.19911  0.42986  1.0000
  C   C113      1.0  0.74784  0.22277  0.51124  1.0000
  C   C114      1.0  0.79242  0.26722  0.51019  1.0000
  H   H70       1.0  0.73084  0.20916  0.57172  1.0000
  H   H71       1.0  0.80670  0.28481  0.56995  1.0000
  H   H72       1.0  0.65786  0.14669  0.48743  1.0000
