data_image0
_chemical_formula_structural       CHCOC4H2C3H2C2HC24H15C24H15C3HOHC3HOHCH2
_chemical_formula_sum              "C66 H42 O3"
_cell_length_a       30.0522
_cell_length_b       30.0522
_cell_length_c       14.9166
_cell_angle_alpha    90
_cell_angle_beta     90
_cell_angle_gamma    120

_space_group_name_H-M_alt    "P 1"
_space_group_IT_number       1

loop_
  _space_group_symop_operation_xyz
  'x, y, z'

loop_
  _atom_site_type_symbol
  _atom_site_label
  _atom_site_symmetry_multiplicity
  _atom_site_fract_x
  _atom_site_fract_y
  _atom_site_fract_z
  _atom_site_occupancy
  C   C1        1.0  0.03154  0.51647  0.25911  1.0000
  H   H1        1.0  0.05089  0.52614  0.19932  1.0000
  C   C2        1.0  0.03087  0.51614  0.42335  1.0000
  O   O1        1.0  0.05188  0.52664  0.50775  1.0000
  C   C3        1.0  0.05873  0.53007  0.34116  1.0000
  C   C4        1.0  0.53150  0.47550  0.33900  1.0000
  C   C5        1.0  0.51753  0.48946  0.25799  1.0000
  C   C6        1.0  0.49052  0.51647  0.25912  1.0000
  H   H2        1.0  0.48085  0.52614  0.19933  1.0000
  H   H3        1.0  0.52692  0.48007  0.19768  1.0000
  C   C7        1.0  0.53149  0.05740  0.33899  1.0000
  C   C8        1.0  0.51753  0.02947  0.25799  1.0000
  C   C9        1.0  0.49052  0.97545  0.25912  1.0000
  H   H4        1.0  0.48084  0.95610  0.19933  1.0000
  H   H5        1.0  0.52692  0.04824  0.19767  1.0000
  C   C10       1.0  0.94959  0.47550  0.33899  1.0000
  C   C11       1.0  0.97752  0.48946  0.25799  1.0000
  H   H6        1.0  0.95874  0.48007  0.19767  1.0000
  C   C12       1.0  0.28141  0.64140  0.33756  1.0000
  C   C13       1.0  0.31104  0.61649  0.33756  1.0000
  C   C14       1.0  0.36559  0.64140  0.33756  1.0000
  C   C15       1.0  0.39050  0.69595  0.33756  1.0000
  C   C16       1.0  0.36559  0.72558  0.33756  1.0000
  C   C17       1.0  0.31104  0.69595  0.33757  1.0000
  C   C18       1.0  0.39391  0.61308  0.33763  1.0000
  C   C19       1.0  0.36889  0.55823  0.33778  1.0000
  C   C20       1.0  0.39571  0.53095  0.33832  1.0000
  C   C21       1.0  0.44971  0.55727  0.33864  1.0000
  C   C22       1.0  0.47604  0.61128  0.33832  1.0000
  C   C23       1.0  0.44876  0.63809  0.33778  1.0000
  C   C24       1.0  0.22476  0.61308  0.33763  1.0000
  C   C25       1.0  0.19492  0.55823  0.33778  1.0000
  C   C26       1.0  0.14083  0.53095  0.33831  1.0000
  C   C27       1.0  0.11316  0.55728  0.33863  1.0000
  C   C28       1.0  0.14083  0.61128  0.33831  1.0000
  C   C29       1.0  0.19492  0.63809  0.33778  1.0000
  C   C30       1.0  0.39391  0.78222  0.33763  1.0000
  C   C31       1.0  0.36889  0.81206  0.33778  1.0000
  C   C32       1.0  0.39571  0.86615  0.33831  1.0000
  C   C33       1.0  0.44971  0.89384  0.33864  1.0000
  C   C34       1.0  0.47603  0.86615  0.33832  1.0000
  C   C35       1.0  0.44876  0.81206  0.33778  1.0000
  H   H7        1.0  0.12174  0.49160  0.33895  1.0000
  H   H8        1.0  0.21136  0.53579  0.33782  1.0000
  H   H9        1.0  0.12174  0.63154  0.33894  1.0000
  H   H10       1.0  0.21136  0.67697  0.33780  1.0000
  H   H11       1.0  0.33002  0.79563  0.33779  1.0000
  H   H12       1.0  0.37545  0.88525  0.33894  1.0000
  H   H13       1.0  0.47120  0.79563  0.33781  1.0000
  H   H14       1.0  0.51539  0.88525  0.33896  1.0000
  H   H15       1.0  0.47120  0.67696  0.33780  1.0000
  H   H16       1.0  0.51539  0.63154  0.33894  1.0000
  H   H17       1.0  0.37545  0.49160  0.33894  1.0000
  H   H18       1.0  0.33002  0.53579  0.33779  1.0000
  H   H19       1.0  0.29179  0.57798  0.33752  1.0000
  H   H20       1.0  0.29179  0.71520  0.33754  1.0000
  H   H21       1.0  0.42901  0.71520  0.33751  1.0000
  C   C36       1.0  0.72698  0.36419  0.33864  1.0000
  C   C37       1.0  0.69734  0.38910  0.33864  1.0000
  C   C38       1.0  0.64280  0.36419  0.33863  1.0000
  C   C39       1.0  0.61789  0.30965  0.33864  1.0000
  C   C40       1.0  0.64280  0.28001  0.33864  1.0000
  C   C41       1.0  0.69734  0.30965  0.33864  1.0000
  C   C42       1.0  0.61448  0.39251  0.33850  1.0000
  C   C43       1.0  0.63949  0.44736  0.33845  1.0000
  C   C44       1.0  0.61267  0.47463  0.33835  1.0000
  C   C45       1.0  0.55868  0.44831  0.33821  1.0000
  C   C46       1.0  0.53235  0.39431  0.33835  1.0000
  C   C47       1.0  0.55963  0.36750  0.33845  1.0000
  C   C48       1.0  0.78362  0.39251  0.33851  1.0000
  C   C49       1.0  0.81346  0.44736  0.33846  1.0000
  C   C50       1.0  0.86755  0.47463  0.33835  1.0000
  C   C51       1.0  0.89522  0.44831  0.33820  1.0000
  C   C52       1.0  0.86755  0.39431  0.33835  1.0000
  C   C53       1.0  0.81346  0.36750  0.33846  1.0000
  C   C54       1.0  0.61448  0.22337  0.33851  1.0000
  C   C55       1.0  0.63949  0.19353  0.33846  1.0000
  C   C56       1.0  0.61267  0.13944  0.33835  1.0000
  C   C57       1.0  0.55868  0.11177  0.33819  1.0000
  C   C58       1.0  0.53235  0.13944  0.33835  1.0000
  C   C59       1.0  0.55963  0.19353  0.33846  1.0000
  H   H22       1.0  0.88664  0.51399  0.33852  1.0000
  H   H23       1.0  0.79702  0.46980  0.33860  1.0000
  H   H24       1.0  0.88664  0.37405  0.33852  1.0000
  H   H25       1.0  0.79702  0.32862  0.33860  1.0000
  H   H26       1.0  0.67836  0.20996  0.33860  1.0000
  H   H27       1.0  0.63294  0.12035  0.33852  1.0000
  H   H28       1.0  0.53719  0.20996  0.33860  1.0000
  H   H29       1.0  0.49300  0.12035  0.33852  1.0000
  H   H30       1.0  0.53719  0.32862  0.33859  1.0000
  H   H31       1.0  0.49300  0.37405  0.33852  1.0000
  H   H32       1.0  0.63294  0.51399  0.33851  1.0000
  H   H33       1.0  0.67836  0.46980  0.33859  1.0000
  H   H34       1.0  0.71660  0.42760  0.33861  1.0000
  H   H35       1.0  0.71660  0.29039  0.33861  1.0000
  H   H36       1.0  0.57938  0.29039  0.33861  1.0000
  C   C60       1.0  0.47692  0.53006  0.34117  1.0000
  C   C61       1.0  0.49085  0.51614  0.42336  1.0000
  C   C62       1.0  0.51796  0.48903  0.42099  1.0000
  H   H37       1.0  0.52796  0.47903  0.48015  1.0000
  O   O2        1.0  0.48035  0.52663  0.50776  1.0000
  H   H38       1.0  0.46154  0.54547  0.50666  1.0000
  C   C63       1.0  0.47692  0.94826  0.34116  1.0000
  C   C64       1.0  0.49086  0.97612  0.42335  1.0000
  C   C65       1.0  0.51796  0.03033  0.42098  1.0000
  H   H39       1.0  0.52796  0.05033  0.48015  1.0000
  O   O3        1.0  0.48036  0.95512  0.50776  1.0000
  H   H40       1.0  0.46152  0.91747  0.50665  1.0000
  C   C66       1.0  0.97666  0.48903  0.42098  1.0000
  H   H41       1.0  0.95666  0.47903  0.48015  1.0000
  H   H42       1.0  0.08952  0.54544  0.50664  1.0000
