data_image0
_chemical_formula_structural       C15H12C4NC2NHNHC4NC2NHNHC2NC2NC5NC3NC17H14C2H2CH3C2H2CH3C15H12C4NC2NHNHC4NC2NHNHC2NC2NC5NC3NC17H14C2H2CH3C2H2CH3C15H12C4NC2NHNHC4NC2NHNHC2NC2NC5NC3NC17H14C2H2CH3C2H2CH3C15H12C4NC2NHNHC4NC2NHNHC2NC2NC5NC3NC17H14C2H2CH3C2H2CH3
_chemical_formula_sum              "C248 H160 N40"
_cell_length_a       42.998
_cell_length_b       42.998
_cell_length_c       15.0033
_cell_angle_alpha    90
_cell_angle_beta     90
_cell_angle_gamma    90

_space_group_name_H-M_alt    "P 1"
_space_group_IT_number       1

loop_
  _space_group_symop_operation_xyz
  'x, y, z'

loop_
  _atom_site_type_symbol
  _atom_site_label
  _atom_site_symmetry_multiplicity
  _atom_site_fract_x
  _atom_site_fract_y
  _atom_site_fract_z
  _atom_site_occupancy
  C   C1        1.0  0.43600  0.47138  0.35313  1.0000
  C   C2        1.0  0.03154  0.43408  0.32532  1.0000
  C   C3        1.0  0.50057  0.08247  0.34064  1.0000
  C   C4        1.0  0.47145  0.06689  0.34992  1.0000
  C   C5        1.0  0.41990  0.05871  0.35433  1.0000
  C   C6        1.0  0.44251  0.08126  0.35928  1.0000
  C   C7        1.0  0.33783  0.48047  0.27896  1.0000
  C   C8        1.0  0.37045  0.48234  0.28203  1.0000
  C   C9        1.0  0.50071  0.11599  0.33717  1.0000
  C   C10       1.0  0.48164  0.16487  0.27311  1.0000
  C   C11       1.0  0.48284  0.13223  0.27338  1.0000
  C   C12       1.0  0.13299  0.01001  0.24187  1.0000
  C   C13       1.0  0.16574  0.01041  0.24253  1.0000
  C   C14       1.0  0.01050  0.36951  0.24895  1.0000
  C   C15       1.0  0.01131  0.33679  0.24681  1.0000
  H   H1        1.0  0.01881  0.32634  0.18951  1.0000
  H   H2        1.0  0.01659  0.38165  0.19290  1.0000
  H   H3        1.0  0.44053  0.39644  0.36062  1.0000
  H   H4        1.0  0.12146  0.01704  0.18569  1.0000
  H   H5        1.0  0.17690  0.01854  0.18705  1.0000
  H   H6        1.0  0.06202  0.10398  0.29906  1.0000
  H   H7        1.0  0.39671  0.06363  0.35540  1.0000
  H   H8        1.0  0.43769  0.10445  0.36358  1.0000
  H   H9        1.0  0.46903  0.12033  0.22946  1.0000
  H   H10       1.0  0.46513  0.17457  0.23327  1.0000
  H   H11       1.0  0.38300  0.47004  0.23595  1.0000
  H   H12       1.0  0.32900  0.46486  0.23486  1.0000
  C   C16       1.0  0.50218  0.28515  0.31932  1.0000
  C   C17       1.0  0.49204  0.26773  0.24434  1.0000
  C   C18       1.0  0.49368  0.23456  0.24343  1.0000
  C   C19       1.0  0.50247  0.21724  0.32068  1.0000
  N   N1        1.0  0.48550  0.22038  0.16586  1.0000
  C   C20       1.0  0.47409  0.23492  0.09304  1.0000
  C   C21       1.0  0.46977  0.26727  0.09669  1.0000
  N   N2        1.0  0.47921  0.28201  0.17208  1.0000
  H   H13       1.0  0.46717  0.22214  0.03921  1.0000
  N   N3        1.0  0.45393  0.28328  0.02803  1.0000
  H   H14       1.0  0.44906  0.30561  0.04794  1.0000
  C   C22       1.0  0.21642  0.49966  0.31832  1.0000
  C   C23       1.0  0.23456  0.48979  0.24459  1.0000
  C   C24       1.0  0.26775  0.49111  0.24667  1.0000
  C   C25       1.0  0.28439  0.49932  0.32588  1.0000
  N   N4        1.0  0.28246  0.48317  0.16968  1.0000
  C   C26       1.0  0.26847  0.47243  0.09507  1.0000
  C   C27       1.0  0.23607  0.46842  0.09611  1.0000
  N   N5        1.0  0.22076  0.47757  0.17076  1.0000
  H   H15       1.0  0.28166  0.46559  0.04196  1.0000
  N   N6        1.0  0.22047  0.45320  0.02554  1.0000
  H   H16       1.0  0.19810  0.44791  0.04420  1.0000
  C   C28       1.0  0.44486  0.41974  0.35623  1.0000
  C   C29       1.0  0.42231  0.44222  0.36594  1.0000
  N   N7        1.0  0.46676  0.46542  0.34121  1.0000
  C   C30       1.0  0.47337  0.43451  0.34205  1.0000
  C   C31       1.0  0.50231  0.41880  0.33093  1.0000
  N   N8        1.0  0.03728  0.46499  0.32614  1.0000
  C   C32       1.0  0.06808  0.47117  0.32224  1.0000
  C   C33       1.0  0.08302  0.44236  0.31808  1.0000
  C   C34       1.0  0.06055  0.41954  0.32066  1.0000
  C   C35       1.0  0.08290  0.50069  0.32008  1.0000
  C   C36       1.0  0.06673  0.02958  0.32058  1.0000
  N   N9        1.0  0.03603  0.03567  0.33324  1.0000
  C   C37       1.0  0.02942  0.06654  0.32912  1.0000
  C   C38       1.0  0.05781  0.08091  0.30972  1.0000
  C   C39       1.0  0.08069  0.05854  0.30757  1.0000
  N   N10       1.0  0.46537  0.03595  0.34806  1.0000
  C   C40       1.0  0.43448  0.02970  0.35177  1.0000
  C   C41       1.0  0.41940  0.50016  0.35296  1.0000
  C   C42       1.0  0.38582  0.49915  0.34990  1.0000
  C   C43       1.0  0.36680  0.01449  0.41289  1.0000
  C   C44       1.0  0.33427  0.01576  0.40223  1.0000
  C   C45       1.0  0.31828  0.49865  0.33495  1.0000
  C   C46       1.0  0.01897  0.13399  0.39619  1.0000
  C   C47       1.0  0.02062  0.16659  0.38773  1.0000
  C   C48       1.0  0.50170  0.18339  0.32654  1.0000
  C   C49       1.0  0.11618  0.50107  0.31861  1.0000
  C   C50       1.0  0.18292  0.50020  0.31778  1.0000
  C   C51       1.0  0.16566  0.49086  0.39369  1.0000
  C   C52       1.0  0.13300  0.49178  0.39490  1.0000
  C   C53       1.0  0.50235  0.38551  0.32788  1.0000
  C   C54       1.0  0.49517  0.36781  0.40437  1.0000
  C   C55       1.0  0.49453  0.33516  0.40039  1.0000
  C   C56       1.0  0.50249  0.31870  0.32174  1.0000
  H   H17       1.0  0.48790  0.32353  0.45634  1.0000
  H   H18       1.0  0.48946  0.37862  0.46296  1.0000
  H   H19       1.0  0.39952  0.43740  0.37921  1.0000
  H   H20       1.0  0.48187  0.48120  0.32750  1.0000
  H   H21       1.0  0.02105  0.02006  0.34971  1.0000
  H   H22       1.0  0.06517  0.39623  0.32032  1.0000
  H   H23       1.0  0.10635  0.43813  0.31351  1.0000
  H   H24       1.0  0.12154  0.48490  0.45141  1.0000
  H   H25       1.0  0.17670  0.48293  0.44934  1.0000
  H   H26       1.0  0.10359  0.06325  0.29573  1.0000
  H   H27       1.0  0.03253  0.12330  0.44315  1.0000
  H   H28       1.0  0.03622  0.17778  0.42775  1.0000
  H   H29       1.0  0.32260  0.02993  0.44524  1.0000
  H   H30       1.0  0.37669  0.02654  0.46445  1.0000
  C   C57       1.0  0.01135  0.23525  0.39583  1.0000
  C   C58       1.0  0.01223  0.26790  0.39424  1.0000
  H   H31       1.0  0.02014  0.27902  0.45011  1.0000
  H   H32       1.0  0.01705  0.22492  0.45489  1.0000
  C   C59       1.0  0.47101  0.28495  0.60939  1.0000
  H   H33       1.0  0.47627  0.26176  0.58391  1.0000
  H   H34       1.0  0.99268  0.29800  0.61675  1.0000
  H   H35       1.0  0.45630  0.29659  0.56050  1.0000
  C   C60       1.0  0.26548  0.00792  0.39961  1.0000
  C   C61       1.0  0.23287  0.00915  0.39512  1.0000
  H   H36       1.0  0.22114  0.01684  0.45021  1.0000
  H   H37       1.0  0.27498  0.01315  0.46004  1.0000
  C   C62       1.0  0.21901  0.47129  0.60860  1.0000
  H   H38       1.0  0.24227  0.47726  0.58506  1.0000
  H   H39       1.0  0.20550  0.99261  0.61736  1.0000
  H   H40       1.0  0.20796  0.45700  0.55761  1.0000
  C   C63       1.0  0.43600  0.97138  0.35313  1.0000
  C   C64       1.0  0.03154  0.93408  0.32532  1.0000
  C   C65       1.0  0.50057  0.58247  0.34064  1.0000
  C   C66       1.0  0.47145  0.56689  0.34992  1.0000
  C   C67       1.0  0.41990  0.55871  0.35433  1.0000
  C   C68       1.0  0.44251  0.58126  0.35928  1.0000
  C   C69       1.0  0.33783  0.98047  0.27896  1.0000
  C   C70       1.0  0.37045  0.98234  0.28203  1.0000
  C   C71       1.0  0.50071  0.61599  0.33717  1.0000
  C   C72       1.0  0.48164  0.66487  0.27311  1.0000
  C   C73       1.0  0.48284  0.63223  0.27338  1.0000
  C   C74       1.0  0.13299  0.51001  0.24187  1.0000
  C   C75       1.0  0.16574  0.51041  0.24253  1.0000
  C   C76       1.0  0.01050  0.86951  0.24895  1.0000
  C   C77       1.0  0.01131  0.83679  0.24681  1.0000
  H   H41       1.0  0.01881  0.82634  0.18951  1.0000
  H   H42       1.0  0.01659  0.88165  0.19290  1.0000
  H   H43       1.0  0.44053  0.89644  0.36062  1.0000
  H   H44       1.0  0.12146  0.51704  0.18569  1.0000
  H   H45       1.0  0.17690  0.51854  0.18705  1.0000
  H   H46       1.0  0.06202  0.60398  0.29906  1.0000
  H   H47       1.0  0.39671  0.56363  0.35540  1.0000
  H   H48       1.0  0.43769  0.60445  0.36358  1.0000
  H   H49       1.0  0.46903  0.62033  0.22946  1.0000
  H   H50       1.0  0.46513  0.67457  0.23327  1.0000
  H   H51       1.0  0.38300  0.97004  0.23595  1.0000
  H   H52       1.0  0.32900  0.96486  0.23486  1.0000
  C   C78       1.0  0.50218  0.78515  0.31932  1.0000
  C   C79       1.0  0.49204  0.76773  0.24434  1.0000
  C   C80       1.0  0.49368  0.73456  0.24343  1.0000
  C   C81       1.0  0.50247  0.71724  0.32068  1.0000
  N   N11       1.0  0.48550  0.72038  0.16586  1.0000
  C   C82       1.0  0.47409  0.73493  0.09304  1.0000
  C   C83       1.0  0.46977  0.76727  0.09669  1.0000
  N   N12       1.0  0.47921  0.78201  0.17208  1.0000
  H   H53       1.0  0.46717  0.72215  0.03921  1.0000
  N   N13       1.0  0.45393  0.78328  0.02803  1.0000
  H   H54       1.0  0.44906  0.80561  0.04794  1.0000
  C   C84       1.0  0.21642  0.99966  0.31832  1.0000
  C   C85       1.0  0.23456  0.98979  0.24459  1.0000
  C   C86       1.0  0.26775  0.99110  0.24667  1.0000
  C   C87       1.0  0.28439  0.99932  0.32588  1.0000
  N   N14       1.0  0.28246  0.98317  0.16968  1.0000
  C   C88       1.0  0.26847  0.97243  0.09507  1.0000
  C   C89       1.0  0.23607  0.96842  0.09611  1.0000
  N   N15       1.0  0.22076  0.97757  0.17076  1.0000
  H   H55       1.0  0.28166  0.96559  0.04196  1.0000
  N   N16       1.0  0.22047  0.95320  0.02554  1.0000
  H   H56       1.0  0.19810  0.94791  0.04420  1.0000
  C   C90       1.0  0.44486  0.91974  0.35623  1.0000
  C   C91       1.0  0.42231  0.94222  0.36594  1.0000
  N   N17       1.0  0.46676  0.96542  0.34121  1.0000
  C   C92       1.0  0.47337  0.93451  0.34205  1.0000
  C   C93       1.0  0.50231  0.91880  0.33093  1.0000
  N   N18       1.0  0.03728  0.96499  0.32614  1.0000
  C   C94       1.0  0.06808  0.97117  0.32224  1.0000
  C   C95       1.0  0.08302  0.94236  0.31808  1.0000
  C   C96       1.0  0.06055  0.91954  0.32066  1.0000
  C   C97       1.0  0.08290  0.00069  0.32008  1.0000
  C   C98       1.0  0.06673  0.52958  0.32058  1.0000
  N   N19       1.0  0.03603  0.53567  0.33324  1.0000
  C   C99       1.0  0.02942  0.56654  0.32912  1.0000
  C   C100      1.0  0.05781  0.58091  0.30972  1.0000
  C   C101      1.0  0.08069  0.55854  0.30757  1.0000
  N   N20       1.0  0.46537  0.53595  0.34806  1.0000
  C   C102      1.0  0.43448  0.52970  0.35177  1.0000
  C   C103      1.0  0.41940  0.00016  0.35296  1.0000
  C   C104      1.0  0.38582  0.99915  0.34990  1.0000
  C   C105      1.0  0.36680  0.51449  0.41289  1.0000
  C   C106      1.0  0.33427  0.51575  0.40223  1.0000
  C   C107      1.0  0.31828  0.99865  0.33495  1.0000
  C   C108      1.0  0.01897  0.63399  0.39619  1.0000
  C   C109      1.0  0.02062  0.66659  0.38773  1.0000
  C   C110      1.0  0.50170  0.68339  0.32654  1.0000
  C   C111      1.0  0.11618  0.00107  0.31861  1.0000
  C   C112      1.0  0.18292  0.00020  0.31778  1.0000
  C   C113      1.0  0.16566  0.99086  0.39369  1.0000
  C   C114      1.0  0.13300  0.99178  0.39490  1.0000
  C   C115      1.0  0.50235  0.88551  0.32788  1.0000
  C   C116      1.0  0.49517  0.86781  0.40437  1.0000
  C   C117      1.0  0.49453  0.83516  0.40039  1.0000
  C   C118      1.0  0.50249  0.81869  0.32174  1.0000
  H   H57       1.0  0.48790  0.82353  0.45634  1.0000
  H   H58       1.0  0.48946  0.87862  0.46296  1.0000
  H   H59       1.0  0.39952  0.93740  0.37921  1.0000
  H   H60       1.0  0.48187  0.98120  0.32750  1.0000
  H   H61       1.0  0.02105  0.52006  0.34971  1.0000
  H   H62       1.0  0.06517  0.89623  0.32032  1.0000
  H   H63       1.0  0.10635  0.93813  0.31351  1.0000
  H   H64       1.0  0.12154  0.98490  0.45141  1.0000
  H   H65       1.0  0.17670  0.98293  0.44934  1.0000
  H   H66       1.0  0.10359  0.56325  0.29573  1.0000
  H   H67       1.0  0.03253  0.62330  0.44315  1.0000
  H   H68       1.0  0.03622  0.67778  0.42775  1.0000
  H   H69       1.0  0.32260  0.52992  0.44524  1.0000
  H   H70       1.0  0.37669  0.52654  0.46445  1.0000
  C   C119      1.0  0.01135  0.73525  0.39583  1.0000
  C   C120      1.0  0.01223  0.76790  0.39424  1.0000
  H   H71       1.0  0.02014  0.77902  0.45011  1.0000
  H   H72       1.0  0.01705  0.72492  0.45489  1.0000
  C   C121      1.0  0.47101  0.78495  0.60939  1.0000
  H   H73       1.0  0.47627  0.76176  0.58391  1.0000
  H   H74       1.0  0.99268  0.79800  0.61675  1.0000
  H   H75       1.0  0.45630  0.79659  0.56050  1.0000
  C   C122      1.0  0.26548  0.50793  0.39961  1.0000
  C   C123      1.0  0.23287  0.50915  0.39512  1.0000
  H   H76       1.0  0.22114  0.51684  0.45021  1.0000
  H   H77       1.0  0.27498  0.51315  0.46004  1.0000
  C   C124      1.0  0.21901  0.97129  0.60860  1.0000
  H   H78       1.0  0.24227  0.97726  0.58506  1.0000
  H   H79       1.0  0.20550  0.49261  0.61736  1.0000
  H   H80       1.0  0.20796  0.95700  0.55761  1.0000
  C   C125      1.0  0.93600  0.47138  0.35313  1.0000
  C   C126      1.0  0.53154  0.43408  0.32532  1.0000
  C   C127      1.0  0.00057  0.08247  0.34064  1.0000
  C   C128      1.0  0.97145  0.06689  0.34992  1.0000
  C   C129      1.0  0.91990  0.05871  0.35433  1.0000
  C   C130      1.0  0.94251  0.08126  0.35928  1.0000
  C   C131      1.0  0.83783  0.48047  0.27896  1.0000
  C   C132      1.0  0.87045  0.48234  0.28203  1.0000
  C   C133      1.0  0.00071  0.11599  0.33717  1.0000
  C   C134      1.0  0.98164  0.16487  0.27311  1.0000
  C   C135      1.0  0.98284  0.13223  0.27338  1.0000
  C   C136      1.0  0.63299  0.01001  0.24187  1.0000
  C   C137      1.0  0.66574  0.01041  0.24253  1.0000
  C   C138      1.0  0.51049  0.36951  0.24895  1.0000
  C   C139      1.0  0.51131  0.33679  0.24681  1.0000
  H   H81       1.0  0.51881  0.32634  0.18951  1.0000
  H   H82       1.0  0.51659  0.38165  0.19290  1.0000
  H   H83       1.0  0.94053  0.39644  0.36062  1.0000
  H   H84       1.0  0.62146  0.01704  0.18569  1.0000
  H   H85       1.0  0.67690  0.01854  0.18705  1.0000
  H   H86       1.0  0.56202  0.10398  0.29906  1.0000
  H   H87       1.0  0.89671  0.06363  0.35540  1.0000
  H   H88       1.0  0.93769  0.10445  0.36358  1.0000
  H   H89       1.0  0.96903  0.12033  0.22946  1.0000
  H   H90       1.0  0.96513  0.17457  0.23327  1.0000
  H   H91       1.0  0.88300  0.47004  0.23595  1.0000
  H   H92       1.0  0.82900  0.46486  0.23486  1.0000
  C   C140      1.0  0.00218  0.28515  0.31932  1.0000
  C   C141      1.0  0.99204  0.26773  0.24434  1.0000
  C   C142      1.0  0.99368  0.23456  0.24343  1.0000
  C   C143      1.0  0.00247  0.21724  0.32068  1.0000
  N   N21       1.0  0.98550  0.22038  0.16586  1.0000
  C   C144      1.0  0.97409  0.23492  0.09304  1.0000
  C   C145      1.0  0.96977  0.26727  0.09669  1.0000
  N   N22       1.0  0.97921  0.28201  0.17208  1.0000
  H   H93       1.0  0.96717  0.22214  0.03921  1.0000
  N   N23       1.0  0.95393  0.28328  0.02803  1.0000
  H   H94       1.0  0.94906  0.30561  0.04794  1.0000
  C   C146      1.0  0.71642  0.49966  0.31832  1.0000
  C   C147      1.0  0.73456  0.48979  0.24459  1.0000
  C   C148      1.0  0.76775  0.49111  0.24667  1.0000
  C   C149      1.0  0.78439  0.49932  0.32588  1.0000
  N   N24       1.0  0.78246  0.48317  0.16968  1.0000
  C   C150      1.0  0.76847  0.47243  0.09507  1.0000
  C   C151      1.0  0.73607  0.46842  0.09611  1.0000
  N   N25       1.0  0.72076  0.47757  0.17076  1.0000
  H   H95       1.0  0.78166  0.46559  0.04196  1.0000
  N   N26       1.0  0.72047  0.45320  0.02554  1.0000
  H   H96       1.0  0.69810  0.44791  0.04420  1.0000
  C   C152      1.0  0.94486  0.41974  0.35623  1.0000
  C   C153      1.0  0.92231  0.44222  0.36594  1.0000
  N   N27       1.0  0.96676  0.46542  0.34121  1.0000
  C   C154      1.0  0.97337  0.43451  0.34205  1.0000
  C   C155      1.0  0.00231  0.41880  0.33093  1.0000
  N   N28       1.0  0.53728  0.46499  0.32614  1.0000
  C   C156      1.0  0.56808  0.47117  0.32224  1.0000
  C   C157      1.0  0.58302  0.44236  0.31808  1.0000
  C   C158      1.0  0.56055  0.41954  0.32066  1.0000
  C   C159      1.0  0.58290  0.50069  0.32008  1.0000
  C   C160      1.0  0.56673  0.02958  0.32058  1.0000
  N   N29       1.0  0.53603  0.03567  0.33324  1.0000
  C   C161      1.0  0.52942  0.06654  0.32912  1.0000
  C   C162      1.0  0.55781  0.08091  0.30972  1.0000
  C   C163      1.0  0.58069  0.05854  0.30757  1.0000
  N   N30       1.0  0.96538  0.03595  0.34806  1.0000
  C   C164      1.0  0.93448  0.02970  0.35177  1.0000
  C   C165      1.0  0.91940  0.50016  0.35296  1.0000
  C   C166      1.0  0.88582  0.49915  0.34990  1.0000
  C   C167      1.0  0.86681  0.01449  0.41289  1.0000
  C   C168      1.0  0.83426  0.01576  0.40223  1.0000
  C   C169      1.0  0.81829  0.49865  0.33495  1.0000
  C   C170      1.0  0.51897  0.13399  0.39619  1.0000
  C   C171      1.0  0.52062  0.16659  0.38773  1.0000
  C   C172      1.0  0.00170  0.18339  0.32654  1.0000
  C   C173      1.0  0.61618  0.50107  0.31861  1.0000
  C   C174      1.0  0.68292  0.50020  0.31778  1.0000
  C   C175      1.0  0.66566  0.49086  0.39369  1.0000
  C   C176      1.0  0.63300  0.49178  0.39490  1.0000
  C   C177      1.0  0.00235  0.38551  0.32788  1.0000
  C   C178      1.0  0.99516  0.36781  0.40437  1.0000
  C   C179      1.0  0.99453  0.33516  0.40039  1.0000
  C   C180      1.0  0.00249  0.31870  0.32174  1.0000
  H   H97       1.0  0.98790  0.32353  0.45634  1.0000
  H   H98       1.0  0.98946  0.37862  0.46296  1.0000
  H   H99       1.0  0.89952  0.43740  0.37921  1.0000
  H   H100      1.0  0.98187  0.48120  0.32750  1.0000
  H   H101      1.0  0.52105  0.02006  0.34971  1.0000
  H   H102      1.0  0.56517  0.39623  0.32032  1.0000
  H   H103      1.0  0.60635  0.43813  0.31351  1.0000
  H   H104      1.0  0.62154  0.48490  0.45141  1.0000
  H   H105      1.0  0.67670  0.48293  0.44934  1.0000
  H   H106      1.0  0.60359  0.06325  0.29573  1.0000
  H   H107      1.0  0.53253  0.12330  0.44315  1.0000
  H   H108      1.0  0.53622  0.17778  0.42775  1.0000
  H   H109      1.0  0.82260  0.02993  0.44524  1.0000
  H   H110      1.0  0.87669  0.02654  0.46445  1.0000
  C   C181      1.0  0.51135  0.23525  0.39583  1.0000
  C   C182      1.0  0.51223  0.26790  0.39424  1.0000
  H   H111      1.0  0.52014  0.27902  0.45011  1.0000
  H   H112      1.0  0.51704  0.22492  0.45489  1.0000
  C   C183      1.0  0.97101  0.28495  0.60939  1.0000
  H   H113      1.0  0.97627  0.26176  0.58391  1.0000
  H   H114      1.0  0.49268  0.29800  0.61675  1.0000
  H   H115      1.0  0.95630  0.29659  0.56050  1.0000
  C   C184      1.0  0.76548  0.00792  0.39961  1.0000
  C   C185      1.0  0.73287  0.00915  0.39512  1.0000
  H   H116      1.0  0.72114  0.01684  0.45021  1.0000
  H   H117      1.0  0.77498  0.01315  0.46004  1.0000
  C   C186      1.0  0.71901  0.47129  0.60860  1.0000
  H   H118      1.0  0.74227  0.47726  0.58506  1.0000
  H   H119      1.0  0.70550  0.99261  0.61736  1.0000
  H   H120      1.0  0.70796  0.45700  0.55761  1.0000
  C   C187      1.0  0.93600  0.97138  0.35313  1.0000
  C   C188      1.0  0.53154  0.93408  0.32532  1.0000
  C   C189      1.0  0.00057  0.58247  0.34064  1.0000
  C   C190      1.0  0.97145  0.56689  0.34992  1.0000
  C   C191      1.0  0.91990  0.55871  0.35433  1.0000
  C   C192      1.0  0.94251  0.58126  0.35928  1.0000
  C   C193      1.0  0.83783  0.98047  0.27896  1.0000
  C   C194      1.0  0.87045  0.98234  0.28203  1.0000
  C   C195      1.0  0.00071  0.61599  0.33717  1.0000
  C   C196      1.0  0.98164  0.66487  0.27311  1.0000
  C   C197      1.0  0.98284  0.63223  0.27338  1.0000
  C   C198      1.0  0.63299  0.51001  0.24187  1.0000
  C   C199      1.0  0.66574  0.51041  0.24253  1.0000
  C   C200      1.0  0.51049  0.86951  0.24895  1.0000
  C   C201      1.0  0.51131  0.83679  0.24681  1.0000
  H   H121      1.0  0.51881  0.82634  0.18951  1.0000
  H   H122      1.0  0.51659  0.88165  0.19290  1.0000
  H   H123      1.0  0.94053  0.89644  0.36062  1.0000
  H   H124      1.0  0.62146  0.51704  0.18569  1.0000
  H   H125      1.0  0.67690  0.51854  0.18705  1.0000
  H   H126      1.0  0.56202  0.60398  0.29906  1.0000
  H   H127      1.0  0.89671  0.56363  0.35540  1.0000
  H   H128      1.0  0.93769  0.60445  0.36358  1.0000
  H   H129      1.0  0.96903  0.62033  0.22946  1.0000
  H   H130      1.0  0.96513  0.67457  0.23327  1.0000
  H   H131      1.0  0.88300  0.97004  0.23595  1.0000
  H   H132      1.0  0.82900  0.96486  0.23486  1.0000
  C   C202      1.0  0.00218  0.78515  0.31932  1.0000
  C   C203      1.0  0.99204  0.76773  0.24434  1.0000
  C   C204      1.0  0.99368  0.73456  0.24343  1.0000
  C   C205      1.0  0.00247  0.71724  0.32068  1.0000
  N   N31       1.0  0.98550  0.72038  0.16586  1.0000
  C   C206      1.0  0.97409  0.73493  0.09304  1.0000
  C   C207      1.0  0.96977  0.76727  0.09669  1.0000
  N   N32       1.0  0.97921  0.78201  0.17208  1.0000
  H   H133      1.0  0.96717  0.72215  0.03921  1.0000
  N   N33       1.0  0.95393  0.78328  0.02803  1.0000
  H   H134      1.0  0.94906  0.80561  0.04794  1.0000
  C   C208      1.0  0.71642  0.99966  0.31832  1.0000
  C   C209      1.0  0.73456  0.98979  0.24459  1.0000
  C   C210      1.0  0.76775  0.99110  0.24667  1.0000
  C   C211      1.0  0.78439  0.99932  0.32588  1.0000
  N   N34       1.0  0.78246  0.98317  0.16968  1.0000
  C   C212      1.0  0.76847  0.97243  0.09507  1.0000
  C   C213      1.0  0.73607  0.96842  0.09611  1.0000
  N   N35       1.0  0.72076  0.97757  0.17076  1.0000
  H   H135      1.0  0.78166  0.96559  0.04196  1.0000
  N   N36       1.0  0.72047  0.95320  0.02554  1.0000
  H   H136      1.0  0.69810  0.94791  0.04420  1.0000
  C   C214      1.0  0.94486  0.91974  0.35623  1.0000
  C   C215      1.0  0.92231  0.94222  0.36594  1.0000
  N   N37       1.0  0.96676  0.96542  0.34121  1.0000
  C   C216      1.0  0.97337  0.93451  0.34205  1.0000
  C   C217      1.0  0.00231  0.91880  0.33093  1.0000
  N   N38       1.0  0.53728  0.96499  0.32614  1.0000
  C   C218      1.0  0.56808  0.97117  0.32224  1.0000
  C   C219      1.0  0.58302  0.94236  0.31808  1.0000
  C   C220      1.0  0.56055  0.91954  0.32066  1.0000
  C   C221      1.0  0.58290  0.00069  0.32008  1.0000
  C   C222      1.0  0.56673  0.52958  0.32058  1.0000
  N   N39       1.0  0.53603  0.53567  0.33324  1.0000
  C   C223      1.0  0.52942  0.56654  0.32912  1.0000
  C   C224      1.0  0.55781  0.58091  0.30972  1.0000
  C   C225      1.0  0.58069  0.55854  0.30757  1.0000
  N   N40       1.0  0.96538  0.53595  0.34806  1.0000
  C   C226      1.0  0.93448  0.52970  0.35177  1.0000
  C   C227      1.0  0.91940  0.00016  0.35296  1.0000
  C   C228      1.0  0.88582  0.99915  0.34990  1.0000
  C   C229      1.0  0.86681  0.51449  0.41289  1.0000
  C   C230      1.0  0.83426  0.51575  0.40223  1.0000
  C   C231      1.0  0.81829  0.99865  0.33495  1.0000
  C   C232      1.0  0.51897  0.63399  0.39619  1.0000
  C   C233      1.0  0.52062  0.66659  0.38773  1.0000
  C   C234      1.0  0.00170  0.68339  0.32654  1.0000
  C   C235      1.0  0.61618  0.00107  0.31861  1.0000
  C   C236      1.0  0.68292  0.00020  0.31778  1.0000
  C   C237      1.0  0.66566  0.99086  0.39369  1.0000
  C   C238      1.0  0.63300  0.99178  0.39490  1.0000
  C   C239      1.0  0.00235  0.88551  0.32788  1.0000
  C   C240      1.0  0.99516  0.86781  0.40437  1.0000
  C   C241      1.0  0.99453  0.83516  0.40039  1.0000
  C   C242      1.0  0.00249  0.81869  0.32174  1.0000
  H   H137      1.0  0.98790  0.82353  0.45634  1.0000
  H   H138      1.0  0.98946  0.87862  0.46296  1.0000
  H   H139      1.0  0.89952  0.93740  0.37921  1.0000
  H   H140      1.0  0.98187  0.98120  0.32750  1.0000
  H   H141      1.0  0.52105  0.52006  0.34971  1.0000
  H   H142      1.0  0.56517  0.89623  0.32032  1.0000
  H   H143      1.0  0.60635  0.93813  0.31351  1.0000
  H   H144      1.0  0.62154  0.98490  0.45141  1.0000
  H   H145      1.0  0.67670  0.98293  0.44934  1.0000
  H   H146      1.0  0.60359  0.56325  0.29573  1.0000
  H   H147      1.0  0.53253  0.62330  0.44315  1.0000
  H   H148      1.0  0.53622  0.67778  0.42775  1.0000
  H   H149      1.0  0.82260  0.52992  0.44524  1.0000
  H   H150      1.0  0.87669  0.52654  0.46445  1.0000
  C   C243      1.0  0.51135  0.73525  0.39583  1.0000
  C   C244      1.0  0.51223  0.76790  0.39424  1.0000
  H   H151      1.0  0.52014  0.77902  0.45011  1.0000
  H   H152      1.0  0.51704  0.72492  0.45489  1.0000
  C   C245      1.0  0.97101  0.78495  0.60939  1.0000
  H   H153      1.0  0.97627  0.76176  0.58391  1.0000
  H   H154      1.0  0.49268  0.79800  0.61675  1.0000
  H   H155      1.0  0.95630  0.79659  0.56050  1.0000
  C   C246      1.0  0.76548  0.50793  0.39961  1.0000
  C   C247      1.0  0.73287  0.50915  0.39512  1.0000
  H   H156      1.0  0.72114  0.51684  0.45021  1.0000
  H   H157      1.0  0.77498  0.51315  0.46004  1.0000
  C   C248      1.0  0.71901  0.97129  0.60860  1.0000
  H   H158      1.0  0.74227  0.97726  0.58506  1.0000
  H   H159      1.0  0.70550  0.49261  0.61736  1.0000
  H   H160      1.0  0.70796  0.95700  0.55761  1.0000
