data_image0
_chemical_formula_structural       C4HC2O2C3NC2NH2NHC3NC2NH2NHC6HC5HCH3C2O2C3H2NHC3H2NHC4HC2O2C3NC2NH2NHC3NC2NH2NHC6HC5HCH3C2O2C3H2NHC3H2NHC4HC2O2C3NC2NH2NHC3NC2NH2NHC6HC5HCH3C2O2C3H2NHC3H2NHC4HC2O2C3NC2NH2NHC3NC2NH2NHC6HC5HCH3C2O2C3H2NHC3H2NH
_chemical_formula_sum              "C144 H72 O16 N32"
_cell_length_a       30.6804
_cell_length_b       30.6804
_cell_length_c       14.9932
_cell_angle_alpha    90
_cell_angle_beta     90
_cell_angle_gamma    90

_space_group_name_H-M_alt    "P 1"
_space_group_IT_number       1

loop_
  _space_group_symop_operation_xyz
  'x, y, z'

loop_
  _atom_site_type_symbol
  _atom_site_label
  _atom_site_symmetry_multiplicity
  _atom_site_fract_x
  _atom_site_fract_y
  _atom_site_fract_z
  _atom_site_occupancy
  C   C1        1.0  0.46902  0.08834  0.41259  1.0000
  C   C2        1.0  0.49848  0.05864  0.37106  1.0000
  C   C3        1.0  0.00324  0.44035  0.29824  1.0000
  C   C4        1.0  0.03314  0.41007  0.25973  1.0000
  H   H1        1.0  0.44742  0.39897  0.29736  1.0000
  C   C5        1.0  0.47627  0.13404  0.42039  1.0000
  C   C6        1.0  0.02552  0.36440  0.25064  1.0000
  O   O1        1.0  0.45537  0.15536  0.48723  1.0000
  O   O2        1.0  0.05057  0.34189  0.19179  1.0000
  C   C7        1.0  0.99260  0.20239  0.33969  1.0000
  C   C8        1.0  0.98995  0.22274  0.25456  1.0000
  C   C9        1.0  0.99291  0.26891  0.24509  1.0000
  N   N1        1.0  0.98563  0.28590  0.16248  1.0000
  C   C10       1.0  0.97772  0.26173  0.08863  1.0000
  C   C11       1.0  0.97635  0.21628  0.09736  1.0000
  N   N2        1.0  0.98189  0.19887  0.17960  1.0000
  H   H2        1.0  0.97286  0.27644  0.02836  1.0000
  H   H3        1.0  0.97021  0.19669  0.04375  1.0000
  N   N3        1.0  0.98918  0.15790  0.34776  1.0000
  H   H4        1.0  0.99210  0.14131  0.29263  1.0000
  C   C12       1.0  0.29796  0.00780  0.34011  1.0000
  C   C13       1.0  0.27763  0.01056  0.25498  1.0000
  C   C14       1.0  0.23146  0.00774  0.24550  1.0000
  N   N4        1.0  0.21449  0.01516  0.16293  1.0000
  C   C15       1.0  0.23867  0.02309  0.08913  1.0000
  C   C16       1.0  0.28412  0.02435  0.09786  1.0000
  N   N5        1.0  0.30152  0.01865  0.18007  1.0000
  H   H5        1.0  0.22398  0.02805  0.02887  1.0000
  H   H6        1.0  0.30374  0.03046  0.04427  1.0000
  N   N6        1.0  0.34246  0.01109  0.34819  1.0000
  H   H7        1.0  0.35902  0.00814  0.29303  1.0000
  C   C17       1.0  0.48566  0.01474  0.35330  1.0000
  C   C18       1.0  0.44182  0.00183  0.37128  1.0000
  C   C19       1.0  0.41210  0.03120  0.41302  1.0000
  C   C20       1.0  0.42792  0.07241  0.43994  1.0000
  C   C21       1.0  0.42973  0.45848  0.35141  1.0000
  C   C22       1.0  0.04181  0.07079  0.35115  1.0000
  H   H8        1.0  0.40604  0.09431  0.46553  1.0000
  C   C23       1.0  0.01625  0.48420  0.31636  1.0000
  C   C24       1.0  0.07475  0.42577  0.23507  1.0000
  C   C25       1.0  0.09041  0.46738  0.25986  1.0000
  C   C26       1.0  0.06008  0.49727  0.29822  1.0000
  C   C27       1.0  0.45925  0.42901  0.31399  1.0000
  H   H9        1.0  0.09683  0.40375  0.21090  1.0000
  C   C28       1.0  0.07134  0.04129  0.31384  1.0000
  H   H10       1.0  0.39915  0.44713  0.36521  1.0000
  H   H11       1.0  0.10136  0.05315  0.29720  1.0000
  H   H12       1.0  0.05311  0.10140  0.36488  1.0000
  C   C29       1.0  0.36642  0.02384  0.42072  1.0000
  C   C30       1.0  0.13609  0.47503  0.25087  1.0000
  O   O3        1.0  0.34522  0.04479  0.48771  1.0000
  O   O4        1.0  0.15861  0.45010  0.19185  1.0000
  C   C31       1.0  0.00041  0.29616  0.32021  1.0000
  C   C32       1.0  0.00149  0.27564  0.40476  1.0000
  C   C33       1.0  0.99855  0.23020  0.41405  1.0000
  H   H13       1.0  0.00338  0.21765  0.47630  1.0000
  H   H14       1.0  0.00740  0.29364  0.46098  1.0000
  N   N7        1.0  0.00658  0.34047  0.31719  1.0000
  H   H15       1.0  0.00287  0.35597  0.37363  1.0000
  C   C34       1.0  0.20419  0.00022  0.32059  1.0000
  C   C35       1.0  0.22470  0.99907  0.40514  1.0000
  C   C36       1.0  0.27014  0.00189  0.41446  1.0000
  H   H16       1.0  0.28266  0.99711  0.47675  1.0000
  H   H17       1.0  0.20666  0.99324  0.46136  1.0000
  N   N8        1.0  0.15987  0.99410  0.31752  1.0000
  H   H18       1.0  0.14434  0.99781  0.37390  1.0000
  C   C37       1.0  0.46902  0.58834  0.41259  1.0000
  C   C38       1.0  0.49848  0.55864  0.37106  1.0000
  C   C39       1.0  0.00324  0.94035  0.29824  1.0000
  C   C40       1.0  0.03314  0.91007  0.25973  1.0000
  H   H19       1.0  0.44742  0.89897  0.29736  1.0000
  C   C41       1.0  0.47627  0.63404  0.42039  1.0000
  C   C42       1.0  0.02552  0.86440  0.25064  1.0000
  O   O5        1.0  0.45537  0.65536  0.48723  1.0000
  O   O6        1.0  0.05057  0.84189  0.19179  1.0000
  C   C43       1.0  0.99260  0.70239  0.33969  1.0000
  C   C44       1.0  0.98995  0.72274  0.25456  1.0000
  C   C45       1.0  0.99291  0.76890  0.24509  1.0000
  N   N9        1.0  0.98563  0.78590  0.16248  1.0000
  C   C46       1.0  0.97772  0.76173  0.08863  1.0000
  C   C47       1.0  0.97635  0.71628  0.09736  1.0000
  N   N10       1.0  0.98189  0.69888  0.17960  1.0000
  H   H20       1.0  0.97286  0.77644  0.02836  1.0000
  H   H21       1.0  0.97021  0.69669  0.04375  1.0000
  N   N11       1.0  0.98918  0.65790  0.34776  1.0000
  H   H22       1.0  0.99210  0.64131  0.29263  1.0000
  C   C48       1.0  0.29796  0.50780  0.34011  1.0000
  C   C49       1.0  0.27763  0.51056  0.25498  1.0000
  C   C50       1.0  0.23146  0.50774  0.24550  1.0000
  N   N12       1.0  0.21449  0.51516  0.16293  1.0000
  C   C51       1.0  0.23867  0.52310  0.08913  1.0000
  C   C52       1.0  0.28412  0.52435  0.09786  1.0000
  N   N13       1.0  0.30152  0.51865  0.18007  1.0000
  H   H23       1.0  0.22398  0.52805  0.02887  1.0000
  H   H24       1.0  0.30374  0.53046  0.04427  1.0000
  N   N14       1.0  0.34246  0.51109  0.34819  1.0000
  H   H25       1.0  0.35902  0.50814  0.29303  1.0000
  C   C53       1.0  0.48566  0.51475  0.35330  1.0000
  C   C54       1.0  0.44182  0.50184  0.37128  1.0000
  C   C55       1.0  0.41210  0.53121  0.41302  1.0000
  C   C56       1.0  0.42792  0.57241  0.43994  1.0000
  C   C57       1.0  0.42973  0.95848  0.35141  1.0000
  C   C58       1.0  0.04181  0.57079  0.35115  1.0000
  H   H26       1.0  0.40604  0.59431  0.46553  1.0000
  C   C59       1.0  0.01625  0.98420  0.31636  1.0000
  C   C60       1.0  0.07475  0.92578  0.23507  1.0000
  C   C61       1.0  0.09041  0.96738  0.25986  1.0000
  C   C62       1.0  0.06008  0.99726  0.29822  1.0000
  C   C63       1.0  0.45925  0.92901  0.31399  1.0000
  H   H27       1.0  0.09683  0.90375  0.21090  1.0000
  C   C64       1.0  0.07134  0.54129  0.31384  1.0000
  H   H28       1.0  0.39915  0.94713  0.36521  1.0000
  H   H29       1.0  0.10136  0.55315  0.29720  1.0000
  H   H30       1.0  0.05311  0.60140  0.36488  1.0000
  C   C65       1.0  0.36642  0.52384  0.42072  1.0000
  C   C66       1.0  0.13609  0.97503  0.25087  1.0000
  O   O7        1.0  0.34522  0.54479  0.48771  1.0000
  O   O8        1.0  0.15861  0.95010  0.19185  1.0000
  C   C67       1.0  0.00041  0.79616  0.32021  1.0000
  C   C68       1.0  0.00149  0.77563  0.40476  1.0000
  C   C69       1.0  0.99855  0.73020  0.41405  1.0000
  H   H31       1.0  0.00338  0.71765  0.47630  1.0000
  H   H32       1.0  0.00740  0.79364  0.46098  1.0000
  N   N15       1.0  0.00658  0.84047  0.31719  1.0000
  H   H33       1.0  0.00287  0.85597  0.37363  1.0000
  C   C70       1.0  0.20419  0.50022  0.32059  1.0000
  C   C71       1.0  0.22470  0.49907  0.40514  1.0000
  C   C72       1.0  0.27014  0.50189  0.41446  1.0000
  H   H34       1.0  0.28266  0.49711  0.47675  1.0000
  H   H35       1.0  0.20666  0.49324  0.46136  1.0000
  N   N16       1.0  0.15987  0.49410  0.31752  1.0000
  H   H36       1.0  0.14434  0.49780  0.37390  1.0000
  C   C73       1.0  0.96902  0.08834  0.41259  1.0000
  C   C74       1.0  0.99848  0.05864  0.37106  1.0000
  C   C75       1.0  0.50324  0.44035  0.29824  1.0000
  C   C76       1.0  0.53314  0.41007  0.25973  1.0000
  H   H37       1.0  0.94742  0.39897  0.29736  1.0000
  C   C77       1.0  0.97628  0.13404  0.42039  1.0000
  C   C78       1.0  0.52552  0.36440  0.25064  1.0000
  O   O9        1.0  0.95537  0.15536  0.48723  1.0000
  O   O10       1.0  0.55057  0.34189  0.19179  1.0000
  C   C79       1.0  0.49259  0.20239  0.33969  1.0000
  C   C80       1.0  0.48995  0.22274  0.25456  1.0000
  C   C81       1.0  0.49291  0.26891  0.24509  1.0000
  N   N17       1.0  0.48563  0.28590  0.16248  1.0000
  C   C82       1.0  0.47772  0.26173  0.08863  1.0000
  C   C83       1.0  0.47635  0.21628  0.09736  1.0000
  N   N18       1.0  0.48189  0.19887  0.17960  1.0000
  H   H38       1.0  0.47287  0.27644  0.02836  1.0000
  H   H39       1.0  0.47021  0.19669  0.04375  1.0000
  N   N19       1.0  0.48918  0.15790  0.34776  1.0000
  H   H40       1.0  0.49210  0.14131  0.29263  1.0000
  C   C84       1.0  0.79797  0.00780  0.34011  1.0000
  C   C85       1.0  0.77763  0.01056  0.25498  1.0000
  C   C86       1.0  0.73146  0.00774  0.24550  1.0000
  N   N20       1.0  0.71449  0.01516  0.16293  1.0000
  C   C87       1.0  0.73868  0.02309  0.08913  1.0000
  C   C88       1.0  0.78412  0.02435  0.09786  1.0000
  N   N21       1.0  0.80152  0.01865  0.18007  1.0000
  H   H41       1.0  0.72398  0.02805  0.02887  1.0000
  H   H42       1.0  0.80374  0.03046  0.04427  1.0000
  N   N22       1.0  0.84246  0.01109  0.34819  1.0000
  H   H43       1.0  0.85902  0.00814  0.29303  1.0000
  C   C89       1.0  0.98566  0.01474  0.35330  1.0000
  C   C90       1.0  0.94182  0.00183  0.37128  1.0000
  C   C91       1.0  0.91210  0.03120  0.41302  1.0000
  C   C92       1.0  0.92793  0.07241  0.43994  1.0000
  C   C93       1.0  0.92973  0.45848  0.35141  1.0000
  C   C94       1.0  0.54181  0.07079  0.35115  1.0000
  H   H44       1.0  0.90604  0.09431  0.46553  1.0000
  C   C95       1.0  0.51625  0.48420  0.31636  1.0000
  C   C96       1.0  0.57475  0.42577  0.23507  1.0000
  C   C97       1.0  0.59041  0.46738  0.25986  1.0000
  C   C98       1.0  0.56008  0.49727  0.29822  1.0000
  C   C99       1.0  0.95925  0.42901  0.31399  1.0000
  H   H45       1.0  0.59683  0.40375  0.21090  1.0000
  C   C100      1.0  0.57134  0.04129  0.31384  1.0000
  H   H46       1.0  0.89915  0.44713  0.36521  1.0000
  H   H47       1.0  0.60136  0.05315  0.29720  1.0000
  H   H48       1.0  0.55311  0.10140  0.36488  1.0000
  C   C101      1.0  0.86642  0.02384  0.42072  1.0000
  C   C102      1.0  0.63609  0.47503  0.25087  1.0000
  O   O11       1.0  0.84522  0.04479  0.48771  1.0000
  O   O12       1.0  0.65861  0.45010  0.19185  1.0000
  C   C103      1.0  0.50041  0.29616  0.32021  1.0000
  C   C104      1.0  0.50149  0.27564  0.40476  1.0000
  C   C105      1.0  0.49856  0.23020  0.41405  1.0000
  H   H49       1.0  0.50338  0.21765  0.47630  1.0000
  H   H50       1.0  0.50740  0.29364  0.46098  1.0000
  N   N23       1.0  0.50658  0.34047  0.31719  1.0000
  H   H51       1.0  0.50287  0.35597  0.37363  1.0000
  C   C106      1.0  0.70419  0.00022  0.32059  1.0000
  C   C107      1.0  0.72470  0.99907  0.40514  1.0000
  C   C108      1.0  0.77014  0.00189  0.41446  1.0000
  H   H52       1.0  0.78267  0.99711  0.47675  1.0000
  H   H53       1.0  0.70666  0.99324  0.46136  1.0000
  N   N24       1.0  0.65987  0.99410  0.31752  1.0000
  H   H54       1.0  0.64434  0.99781  0.37390  1.0000
  C   C109      1.0  0.96902  0.58834  0.41259  1.0000
  C   C110      1.0  0.99848  0.55864  0.37106  1.0000
  C   C111      1.0  0.50324  0.94035  0.29824  1.0000
  C   C112      1.0  0.53314  0.91007  0.25973  1.0000
  H   H55       1.0  0.94742  0.89897  0.29736  1.0000
  C   C113      1.0  0.97628  0.63404  0.42039  1.0000
  C   C114      1.0  0.52552  0.86440  0.25064  1.0000
  O   O13       1.0  0.95537  0.65536  0.48723  1.0000
  O   O14       1.0  0.55057  0.84189  0.19179  1.0000
  C   C115      1.0  0.49259  0.70239  0.33969  1.0000
  C   C116      1.0  0.48995  0.72274  0.25456  1.0000
  C   C117      1.0  0.49291  0.76890  0.24509  1.0000
  N   N25       1.0  0.48563  0.78590  0.16248  1.0000
  C   C118      1.0  0.47772  0.76173  0.08863  1.0000
  C   C119      1.0  0.47635  0.71628  0.09736  1.0000
  N   N26       1.0  0.48189  0.69888  0.17960  1.0000
  H   H56       1.0  0.47287  0.77644  0.02836  1.0000
  H   H57       1.0  0.47021  0.69669  0.04375  1.0000
  N   N27       1.0  0.48918  0.65790  0.34776  1.0000
  H   H58       1.0  0.49210  0.64131  0.29263  1.0000
  C   C120      1.0  0.79797  0.50780  0.34011  1.0000
  C   C121      1.0  0.77763  0.51056  0.25498  1.0000
  C   C122      1.0  0.73146  0.50774  0.24550  1.0000
  N   N28       1.0  0.71449  0.51516  0.16293  1.0000
  C   C123      1.0  0.73868  0.52310  0.08913  1.0000
  C   C124      1.0  0.78412  0.52435  0.09786  1.0000
  N   N29       1.0  0.80152  0.51865  0.18007  1.0000
  H   H59       1.0  0.72398  0.52805  0.02887  1.0000
  H   H60       1.0  0.80374  0.53046  0.04427  1.0000
  N   N30       1.0  0.84246  0.51109  0.34819  1.0000
  H   H61       1.0  0.85902  0.50814  0.29303  1.0000
  C   C125      1.0  0.98566  0.51475  0.35330  1.0000
  C   C126      1.0  0.94182  0.50184  0.37128  1.0000
  C   C127      1.0  0.91210  0.53121  0.41302  1.0000
  C   C128      1.0  0.92793  0.57241  0.43994  1.0000
  C   C129      1.0  0.92973  0.95848  0.35141  1.0000
  C   C130      1.0  0.54181  0.57079  0.35115  1.0000
  H   H62       1.0  0.90604  0.59431  0.46553  1.0000
  C   C131      1.0  0.51625  0.98420  0.31636  1.0000
  C   C132      1.0  0.57475  0.92578  0.23507  1.0000
  C   C133      1.0  0.59041  0.96738  0.25986  1.0000
  C   C134      1.0  0.56008  0.99726  0.29822  1.0000
  C   C135      1.0  0.95925  0.92901  0.31399  1.0000
  H   H63       1.0  0.59683  0.90375  0.21090  1.0000
  C   C136      1.0  0.57134  0.54129  0.31384  1.0000
  H   H64       1.0  0.89915  0.94713  0.36521  1.0000
  H   H65       1.0  0.60136  0.55315  0.29720  1.0000
  H   H66       1.0  0.55311  0.60140  0.36488  1.0000
  C   C137      1.0  0.86642  0.52384  0.42072  1.0000
  C   C138      1.0  0.63609  0.97503  0.25087  1.0000
  O   O15       1.0  0.84522  0.54479  0.48771  1.0000
  O   O16       1.0  0.65861  0.95010  0.19185  1.0000
  C   C139      1.0  0.50041  0.79616  0.32021  1.0000
  C   C140      1.0  0.50149  0.77563  0.40476  1.0000
  C   C141      1.0  0.49856  0.73020  0.41405  1.0000
  H   H67       1.0  0.50338  0.71765  0.47630  1.0000
  H   H68       1.0  0.50740  0.79364  0.46098  1.0000
  N   N31       1.0  0.50658  0.84047  0.31719  1.0000
  H   H69       1.0  0.50287  0.85597  0.37363  1.0000
  C   C142      1.0  0.70419  0.50022  0.32059  1.0000
  C   C143      1.0  0.72470  0.49907  0.40514  1.0000
  C   C144      1.0  0.77014  0.50189  0.41446  1.0000
  H   H70       1.0  0.78267  0.49711  0.47675  1.0000
  H   H71       1.0  0.70666  0.49324  0.46136  1.0000
  N   N32       1.0  0.65987  0.49410  0.31752  1.0000
  H   H72       1.0  0.64434  0.49780  0.37390  1.0000
