data_image0
_chemical_formula_structural       CHNH2C6NH4C6N2H6C6N2H6CNCHNHCNCHNHCNCHNHCNCHNHCNCHNHCNCHNHC3HNC2NH2C3HNC3NH3C3HNC3NH3C4HC6H3C4HC6H3C4HC6H3C4HC6H3C4HC6H3C4HC6H3
_chemical_formula_sum              "C108 H66 N24"
_cell_length_a       31.2145
_cell_length_b       31.2145
_cell_length_c       14.9306
_cell_angle_alpha    90
_cell_angle_beta     90
_cell_angle_gamma    120

_space_group_name_H-M_alt    "P 1"
_space_group_IT_number       1

loop_
  _space_group_symop_operation_xyz
  'x, y, z'

loop_
  _atom_site_type_symbol
  _atom_site_label
  _atom_site_symmetry_multiplicity
  _atom_site_fract_x
  _atom_site_fract_y
  _atom_site_fract_z
  _atom_site_occupancy
  C   C1        1.0  0.03055  0.51698  0.32528  1.0000
  H   H1        1.0  0.00513  0.57191  0.22862  1.0000
  N   N1        1.0  0.03711  0.59125  0.25740  1.0000
  H   H2        1.0  0.05599  0.62545  0.23789  1.0000
  H   H3        1.0  0.03970  0.45781  0.37274  1.0000
  C   C2        1.0  0.05849  0.56862  0.30242  1.0000
  C   C3        1.0  0.05784  0.49439  0.35505  1.0000
  C   C4        1.0  0.97643  0.48761  0.32524  1.0000
  C   C5        1.0  0.89671  0.40821  0.32203  1.0000
  C   C6        1.0  0.94852  0.43596  0.30244  1.0000
  C   C7        1.0  0.11029  0.59636  0.32206  1.0000
  N   N2        1.0  0.97000  0.41332  0.25774  1.0000
  H   H4        1.0  0.00183  0.43279  0.22859  1.0000
  H   H5        1.0  0.95090  0.37922  0.23776  1.0000
  H   H6        1.0  0.20765  0.63181  0.33993  1.0000
  H   H7        1.0  0.79933  0.37271  0.33996  1.0000
  C   C8        1.0  0.51814  0.48996  0.32536  1.0000
  C   C9        1.0  0.59752  0.48960  0.32218  1.0000
  C   C10       1.0  0.56979  0.51367  0.30255  1.0000
  C   C11       1.0  0.48878  0.51472  0.32532  1.0000
  C   C12       1.0  0.43715  0.49099  0.30240  1.0000
  C   C13       1.0  0.40940  0.51505  0.32191  1.0000
  N   N3        1.0  0.59242  0.55768  0.25756  1.0000
  N   N4        1.0  0.41456  0.44693  0.25751  1.0000
  H   H8        1.0  0.57314  0.57041  0.22885  1.0000
  H   H9        1.0  0.62664  0.57300  0.23814  1.0000
  H   H10       1.0  0.38040  0.43179  0.23779  1.0000
  H   H11       1.0  0.43390  0.43432  0.22872  1.0000
  H   H12       1.0  0.37391  0.57695  0.33959  1.0000
  H   H13       1.0  0.63298  0.42770  0.34026  1.0000
  C   C14       1.0  0.51589  0.02942  0.32532  1.0000
  C   C15       1.0  0.51619  0.10913  0.32203  1.0000
  C   C16       1.0  0.49215  0.05732  0.30246  1.0000
  C   C17       1.0  0.49113  0.97529  0.32542  1.0000
  C   C18       1.0  0.51486  0.94737  0.30260  1.0000
  C   C19       1.0  0.49079  0.89556  0.32224  1.0000
  N   N5        1.0  0.44806  0.03589  0.25766  1.0000
  N   N6        1.0  0.55896  0.96880  0.25783  1.0000
  H   H14       1.0  0.43567  0.00401  0.22861  1.0000
  H   H15       1.0  0.43288  0.05482  0.23781  1.0000
  H   H16       1.0  0.57394  0.94972  0.23778  1.0000
  H   H17       1.0  0.57122  0.00060  0.22854  1.0000
  H   H18       1.0  0.42890  0.79819  0.34031  1.0000
  H   H19       1.0  0.57809  0.20652  0.33966  1.0000
  C   C20       1.0  0.32889  0.48624  0.24780  1.0000
  N   N7        1.0  0.28260  0.47942  0.25700  1.0000
  C   C21       1.0  0.15358  0.48619  0.27125  1.0000
  H   H20       1.0  0.34518  0.49528  0.18601  1.0000
  N   N8        1.0  0.19285  0.47885  0.26906  1.0000
  H   H21       1.0  0.14224  0.49392  0.21214  1.0000
  C   C22       1.0  0.51949  0.84385  0.24809  1.0000
  N   N9        1.0  0.52635  0.80441  0.25711  1.0000
  C   C23       1.0  0.51956  0.66861  0.27084  1.0000
  H   H22       1.0  0.51051  0.85116  0.18628  1.0000
  N   N10       1.0  0.52691  0.71522  0.26884  1.0000
  H   H23       1.0  0.51180  0.64957  0.21170  1.0000
  C   C24       1.0  0.16206  0.67688  0.24782  1.0000
  N   N11       1.0  0.20153  0.72316  0.25697  1.0000
  C   C25       1.0  0.33732  0.85220  0.27119  1.0000
  H   H24       1.0  0.15482  0.66057  0.18603  1.0000
  N   N12       1.0  0.29072  0.81292  0.26900  1.0000
  H   H25       1.0  0.35640  0.86352  0.21210  1.0000
  C   C26       1.0  0.67792  0.51828  0.24800  1.0000
  N   N13       1.0  0.72422  0.52514  0.25701  1.0000
  C   C27       1.0  0.85323  0.51834  0.27082  1.0000
  H   H26       1.0  0.66162  0.50928  0.18619  1.0000
  N   N14       1.0  0.81397  0.52569  0.26876  1.0000
  H   H27       1.0  0.86451  0.51057  0.21169  1.0000
  C   C28       1.0  0.48737  0.16086  0.24788  1.0000
  N   N15       1.0  0.48057  0.20033  0.25707  1.0000
  C   C29       1.0  0.48735  0.33614  0.27133  1.0000
  H   H28       1.0  0.49640  0.15361  0.18607  1.0000
  N   N16       1.0  0.48002  0.28953  0.26915  1.0000
  H   H29       1.0  0.49508  0.35521  0.21223  1.0000
  C   C30       1.0  0.84502  0.32778  0.24796  1.0000
  N   N17       1.0  0.80557  0.28148  0.25702  1.0000
  C   C31       1.0  0.66975  0.15249  0.27086  1.0000
  H   H30       1.0  0.85232  0.34404  0.18613  1.0000
  N   N18       1.0  0.71637  0.19174  0.26882  1.0000
  H   H31       1.0  0.65071  0.14119  0.21173  1.0000
  C   C32       1.0  0.94910  0.51022  0.35471  1.0000
  C   C33       1.0  0.89703  0.48528  0.35467  1.0000
  C   C34       1.0  0.87003  0.43309  0.34311  1.0000
  H   H32       1.0  0.96722  0.54680  0.37242  1.0000
  N   N19       1.0  0.81942  0.40791  0.35101  1.0000
  C   C35       1.0  0.13694  0.57148  0.34325  1.0000
  C   C36       1.0  0.10992  0.51930  0.35495  1.0000
  N   N20       1.0  0.18755  0.59663  0.35111  1.0000
  H   H33       1.0  0.20601  0.58050  0.36816  1.0000
  H   H34       1.0  0.80094  0.42403  0.36800  1.0000
  C   C37       1.0  0.49554  0.44008  0.35512  1.0000
  C   C38       1.0  0.52045  0.41290  0.35505  1.0000
  C   C39       1.0  0.57263  0.43807  0.34342  1.0000
  H   H35       1.0  0.45896  0.42164  0.37277  1.0000
  N   N21       1.0  0.59779  0.41261  0.35136  1.0000
  C   C40       1.0  0.43427  0.56660  0.34300  1.0000
  C   C41       1.0  0.48645  0.59178  0.35469  1.0000
  C   C42       1.0  0.51137  0.56463  0.35493  1.0000
  N   N22       1.0  0.40910  0.59205  0.35077  1.0000
  H   H36       1.0  0.54796  0.58309  0.37259  1.0000
  H   H37       1.0  0.42520  0.62664  0.36777  1.0000
  H   H38       1.0  0.58166  0.37803  0.36843  1.0000
  C   C43       1.0  0.56580  0.05674  0.35493  1.0000
  C   C44       1.0  0.59293  0.10882  0.35475  1.0000
  C   C45       1.0  0.56775  0.13582  0.34307  1.0000
  H   H39       1.0  0.58427  0.03863  0.37257  1.0000
  N   N23       1.0  0.59320  0.18643  0.35081  1.0000
  C   C46       1.0  0.43925  0.86890  0.34339  1.0000
  C   C47       1.0  0.41407  0.89591  0.35495  1.0000
  C   C48       1.0  0.44121  0.94798  0.35495  1.0000
  N   N24       1.0  0.41380  0.81830  0.35136  1.0000
  H   H40       1.0  0.42277  0.96612  0.37266  1.0000
  H   H41       1.0  0.37921  0.79983  0.36838  1.0000
  H   H42       1.0  0.62780  0.20492  0.36777  1.0000
  C   C49       1.0  0.35647  0.48849  0.32445  1.0000
  C   C50       1.0  0.25955  0.47296  0.33737  1.0000
  C   C51       1.0  0.28462  0.47262  0.41658  1.0000
  C   C52       1.0  0.33280  0.47949  0.40885  1.0000
  H   H43       1.0  0.35301  0.48407  0.46583  1.0000
  C   C53       1.0  0.21455  0.47343  0.34373  1.0000
  C   C54       1.0  0.13461  0.49129  0.35410  1.0000
  C   C55       1.0  0.15474  0.48370  0.43327  1.0000
  C   C56       1.0  0.19491  0.47472  0.42906  1.0000
  C   C57       1.0  0.21897  0.47202  0.50710  1.0000
  C   C58       1.0  0.26318  0.47055  0.50093  1.0000
  H   H44       1.0  0.20592  0.47372  0.56918  1.0000
  H   H45       1.0  0.28135  0.47152  0.55870  1.0000
  H   H46       1.0  0.14388  0.49027  0.49406  1.0000
  C   C59       1.0  0.51734  0.86918  0.32483  1.0000
  C   C60       1.0  0.53286  0.78777  0.33740  1.0000
  C   C61       1.0  0.53325  0.81316  0.41669  1.0000
  C   C62       1.0  0.52646  0.85453  0.40912  1.0000
  H   H47       1.0  0.52179  0.87001  0.46621  1.0000
  C   C63       1.0  0.53234  0.74228  0.34361  1.0000
  C   C64       1.0  0.51440  0.64449  0.35362  1.0000
  C   C65       1.0  0.52201  0.67211  0.43293  1.0000
  C   C66       1.0  0.53106  0.72128  0.42888  1.0000
  C   C67       1.0  0.53383  0.74801  0.50701  1.0000
  C   C68       1.0  0.53528  0.79368  0.50096  1.0000
  H   H48       1.0  0.53216  0.73322  0.56904  1.0000
  H   H49       1.0  0.53445  0.81092  0.55878  1.0000
  H   H50       1.0  0.51557  0.65463  0.49366  1.0000
  C   C69       1.0  0.13668  0.64929  0.32442  1.0000
  C   C70       1.0  0.21811  0.74624  0.33731  1.0000
  C   C71       1.0  0.19269  0.72119  0.41652  1.0000
  C   C72       1.0  0.15138  0.67302  0.40880  1.0000
  H   H51       1.0  0.13573  0.65284  0.46579  1.0000
  C   C73       1.0  0.26357  0.79124  0.34366  1.0000
  C   C74       1.0  0.36137  0.87120  0.35406  1.0000
  C   C75       1.0  0.33363  0.85109  0.43320  1.0000
  C   C76       1.0  0.28449  0.81092  0.42898  1.0000
  C   C77       1.0  0.25771  0.78688  0.50704  1.0000
  C   C78       1.0  0.21203  0.74266  0.50086  1.0000
  H   H52       1.0  0.27244  0.79995  0.56911  1.0000
  H   H53       1.0  0.19482  0.72451  0.55864  1.0000
  H   H54       1.0  0.35104  0.86198  0.49401  1.0000
  C   C79       1.0  0.65045  0.51614  0.32474  1.0000
  C   C80       1.0  0.74738  0.53167  0.33729  1.0000
  C   C81       1.0  0.72240  0.53209  0.41658  1.0000
  C   C82       1.0  0.67424  0.52529  0.40902  1.0000
  H   H55       1.0  0.65409  0.52064  0.46611  1.0000
  C   C83       1.0  0.79235  0.53115  0.34351  1.0000
  C   C84       1.0  0.87227  0.51321  0.35357  1.0000
  C   C85       1.0  0.85221  0.52087  0.43281  1.0000
  C   C86       1.0  0.81209  0.52991  0.42876  1.0000
  C   C87       1.0  0.78814  0.53270  0.50690  1.0000
  C   C88       1.0  0.74391  0.53414  0.50085  1.0000
  H   H56       1.0  0.80127  0.53106  0.56892  1.0000
  H   H57       1.0  0.72586  0.53334  0.55867  1.0000
  H   H58       1.0  0.86325  0.51446  0.49356  1.0000
  C   C89       1.0  0.48963  0.13550  0.32447  1.0000
  C   C90       1.0  0.47413  0.21693  0.33744  1.0000
  C   C91       1.0  0.47381  0.19153  0.41663  1.0000
  C   C92       1.0  0.48067  0.15022  0.40888  1.0000
  H   H59       1.0  0.48525  0.13459  0.46586  1.0000
  C   C93       1.0  0.47460  0.26240  0.34381  1.0000
  C   C94       1.0  0.49246  0.36020  0.35420  1.0000
  C   C95       1.0  0.48486  0.33248  0.43336  1.0000
  C   C96       1.0  0.47589  0.28334  0.42914  1.0000
  C   C97       1.0  0.47321  0.25658  0.50718  1.0000
  C   C98       1.0  0.47174  0.21090  0.50100  1.0000
  H   H60       1.0  0.47491  0.27132  0.56926  1.0000
  H   H61       1.0  0.47272  0.19370  0.55876  1.0000
  H   H62       1.0  0.49143  0.34991  0.49416  1.0000
  C   C99       1.0  0.87034  0.35528  0.32467  1.0000
  C   C100      1.0  0.78893  0.25836  0.33734  1.0000
  C   C101      1.0  0.81432  0.28338  0.41661  1.0000
  C   C102      1.0  0.85569  0.33154  0.40900  1.0000
  H   H63       1.0  0.87117  0.35172  0.46606  1.0000
  C   C103      1.0  0.74343  0.21340  0.34359  1.0000
  C   C104      1.0  0.64564  0.13356  0.35365  1.0000
  C   C105      1.0  0.67327  0.15360  0.43295  1.0000
  C   C106      1.0  0.72244  0.19371  0.42886  1.0000
  C   C107      1.0  0.74917  0.21769  0.50698  1.0000
  C   C108      1.0  0.79485  0.26192  0.50090  1.0000
  H   H64       1.0  0.73439  0.20460  0.56902  1.0000
  H   H65       1.0  0.81209  0.28000  0.55870  1.0000
  H   H66       1.0  0.65579  0.14258  0.49369  1.0000
