data_image0
_chemical_formula_structural       C6H6N2C6H6N2C3H2CHC3H2CHC3H2CHC12H5CNC2NHN2C12H5CNC2NHN2C3HNO2CHC3HNO2CHC3HNO2CH
_chemical_formula_sum              "C66 H39 N15 O6"
_cell_length_a       37.1115
_cell_length_b       37.1115
_cell_length_c       14.7395
_cell_angle_alpha    90
_cell_angle_beta     90
_cell_angle_gamma    120

_space_group_name_H-M_alt    "P 1"
_space_group_IT_number       1

loop_
  _space_group_symop_operation_xyz
  'x, y, z'

loop_
  _atom_site_type_symbol
  _atom_site_label
  _atom_site_symmetry_multiplicity
  _atom_site_fract_x
  _atom_site_fract_y
  _atom_site_fract_z
  _atom_site_occupancy
  C   C1        1.0  0.38885  0.76301  0.34874  1.0000
  C   C2        1.0  0.19163  0.62799  0.35714  1.0000
  C   C3        1.0  0.23545  0.65052  0.35735  1.0000
  C   C4        1.0  0.36727  0.78534  0.33932  1.0000
  C   C5        1.0  0.38856  0.82918  0.33852  1.0000
  C   C6        1.0  0.43217  0.85242  0.34831  1.0000
  H   H1        1.0  0.17598  0.64403  0.36250  1.0000
  H   H2        1.0  0.24985  0.68216  0.36403  1.0000
  H   H3        1.0  0.33562  0.76994  0.33217  1.0000
  H   H4        1.0  0.37181  0.84409  0.33127  1.0000
  H   H5        1.0  0.37806  0.53637  0.36250  1.0000
  H   H6        1.0  0.33993  0.57211  0.36403  1.0000
  N   N1        1.0  0.32505  0.69562  0.34895  1.0000
  N   N2        1.0  0.45027  0.89384  0.34629  1.0000
  C   C7        1.0  0.63710  0.25463  0.35180  1.0000
  C   C8        1.0  0.83469  0.38861  0.34464  1.0000
  C   C9        1.0  0.79086  0.36633  0.34441  1.0000
  C   C10       1.0  0.65850  0.23206  0.35958  1.0000
  C   C11       1.0  0.63697  0.18822  0.36023  1.0000
  C   C12       1.0  0.59326  0.16520  0.35232  1.0000
  H   H7        1.0  0.85012  0.37234  0.34012  1.0000
  H   H8        1.0  0.77627  0.33464  0.33879  1.0000
  H   H9        1.0  0.69018  0.24726  0.36571  1.0000
  H   H10       1.0  0.65360  0.17315  0.36670  1.0000
  H   H11       1.0  0.64975  0.48220  0.34010  1.0000
  H   H12       1.0  0.68745  0.44605  0.33882  1.0000
  N   N3        1.0  0.70120  0.32179  0.35180  1.0000
  N   N4        1.0  0.57517  0.12382  0.35553  1.0000
  C   C13       1.0  0.54319  0.49537  0.35115  1.0000
  C   C14       1.0  0.54336  0.52460  0.28915  1.0000
  C   C15       1.0  0.51433  0.53835  0.29608  1.0000
  H   H13       1.0  0.56477  0.53629  0.23769  1.0000
  H   H14       1.0  0.51543  0.55923  0.24925  1.0000
  C   C16       1.0  0.57387  0.48438  0.34277  1.0000
  H   H15       1.0  0.60234  0.50631  0.32485  1.0000
  C   C17       1.0  0.52672  0.05224  0.35120  1.0000
  C   C18       1.0  0.49747  0.02318  0.28922  1.0000
  C   C19       1.0  0.48373  0.98041  0.29610  1.0000
  H   H16       1.0  0.48577  0.03291  0.23779  1.0000
  H   H17       1.0  0.46284  0.96063  0.24928  1.0000
  C   C20       1.0  0.53770  0.09391  0.34287  1.0000
  H   H18       1.0  0.51575  0.10044  0.32505  1.0000
  C   C21       1.0  0.96985  0.47890  0.35121  1.0000
  C   C22       1.0  0.99892  0.47872  0.28922  1.0000
  C   C23       1.0  0.04168  0.50775  0.29614  1.0000
  H   H19       1.0  0.98919  0.45730  0.23777  1.0000
  H   H20       1.0  0.06147  0.50664  0.24932  1.0000
  C   C24       1.0  0.92818  0.44822  0.34285  1.0000
  H   H21       1.0  0.92165  0.41974  0.32496  1.0000
  C   C25       1.0  0.25908  0.63026  0.34874  1.0000
  C   C26       1.0  0.39183  0.63324  0.34875  1.0000
  C   C27       1.0  0.23675  0.58634  0.33932  1.0000
  C   C28       1.0  0.19292  0.56379  0.33855  1.0000
  C   C29       1.0  0.16967  0.58417  0.34838  1.0000
  C   C30       1.0  0.45403  0.83046  0.35712  1.0000
  C   C31       1.0  0.43275  0.78665  0.35732  1.0000
  C   C32       1.0  0.43575  0.65483  0.33933  1.0000
  C   C33       1.0  0.45830  0.63354  0.33855  1.0000
  C   C34       1.0  0.43793  0.58993  0.34838  1.0000
  C   C35       1.0  0.39410  0.56806  0.35714  1.0000
  C   C36       1.0  0.37157  0.58934  0.35736  1.0000
  H   H22       1.0  0.17800  0.53213  0.33129  1.0000
  H   H23       1.0  0.44998  0.77224  0.36401  1.0000
  H   H24       1.0  0.48573  0.84610  0.36243  1.0000
  H   H25       1.0  0.45200  0.68647  0.33213  1.0000
  H   H26       1.0  0.48996  0.65029  0.33127  1.0000
  C   C37       1.0  0.36884  0.65474  0.34897  1.0000
  N   N5        1.0  0.38824  0.69704  0.34896  1.0000
  C   C38       1.0  0.36735  0.71852  0.34897  1.0000
  C   C39       1.0  0.30358  0.65326  0.34896  1.0000
  N   N6        1.0  0.32648  0.63385  0.34896  1.0000
  H   H27       1.0  0.25215  0.57010  0.33213  1.0000
  N   N7        1.0  0.46126  0.57183  0.34633  1.0000
  N   N8        1.0  0.12825  0.56083  0.34637  1.0000
  C   C40       1.0  0.76746  0.38688  0.35178  1.0000
  C   C41       1.0  0.63521  0.38499  0.35178  1.0000
  C   C42       1.0  0.79003  0.43086  0.35958  1.0000
  C   C43       1.0  0.83387  0.45317  0.36023  1.0000
  C   C44       1.0  0.85689  0.43248  0.35232  1.0000
  C   C45       1.0  0.57160  0.18740  0.34466  1.0000
  C   C46       1.0  0.59314  0.23123  0.34442  1.0000
  C   C47       1.0  0.59123  0.36359  0.35954  1.0000
  C   C48       1.0  0.56892  0.38512  0.36017  1.0000
  C   C49       1.0  0.58961  0.42882  0.35222  1.0000
  C   C50       1.0  0.63347  0.45049  0.34464  1.0000
  C   C51       1.0  0.65576  0.42895  0.34441  1.0000
  H   H28       1.0  0.84894  0.48487  0.36672  1.0000
  H   H29       1.0  0.57604  0.24582  0.33880  1.0000
  H   H30       1.0  0.53989  0.17198  0.34012  1.0000
  H   H31       1.0  0.57475  0.33190  0.36571  1.0000
  H   H32       1.0  0.53721  0.36848  0.36665  1.0000
  C   C52       1.0  0.65794  0.36321  0.35179  1.0000
  N   N9        1.0  0.63827  0.32089  0.35180  1.0000
  C   C53       1.0  0.65888  0.29915  0.35180  1.0000
  C   C54       1.0  0.72294  0.36415  0.35179  1.0000
  N   N10       1.0  0.70029  0.38382  0.35179  1.0000
  H   H33       1.0  0.77483  0.44734  0.36573  1.0000
  N   N11       1.0  0.56632  0.44692  0.35548  1.0000
  N   N12       1.0  0.89827  0.45577  0.35555  1.0000
  C   C55       1.0  0.48411  0.52352  0.36574  1.0000
  C   C56       1.0  0.48387  0.49425  0.42758  1.0000
  C   C57       1.0  0.51302  0.48022  0.42178  1.0000
  H   H34       1.0  0.46245  0.48311  0.47908  1.0000
  N   N13       1.0  0.51274  0.45196  0.48683  1.0000
  O   O1        1.0  0.47887  0.41810  0.48607  1.0000
  O   O2        1.0  0.51916  0.46686  0.56561  1.0000
  C   C58       1.0  0.45459  0.53606  0.37372  1.0000
  H   H35       1.0  0.42788  0.51706  0.40475  1.0000
  C   C59       1.0  0.49858  0.96501  0.36571  1.0000
  C   C60       1.0  0.52787  0.99404  0.42754  1.0000
  C   C61       1.0  0.54189  0.03722  0.42178  1.0000
  H   H36       1.0  0.53902  0.98375  0.47899  1.0000
  N   N14       1.0  0.57017  0.06519  0.48681  1.0000
  O   O3        1.0  0.60402  0.06517  0.48598  1.0000
  O   O4        1.0  0.55528  0.05670  0.56560  1.0000
  C   C62       1.0  0.48605  0.92295  0.37364  1.0000
  H   H37       1.0  0.50507  0.91524  0.40459  1.0000
  C   C63       1.0  0.05708  0.53798  0.36578  1.0000
  C   C64       1.0  0.02805  0.53823  0.42760  1.0000
  C   C65       1.0  0.98487  0.50908  0.42181  1.0000
  H   H38       1.0  0.03833  0.55966  0.47909  1.0000
  N   N15       1.0  0.95689  0.50937  0.48685  1.0000
  O   O5        1.0  0.95691  0.54325  0.48606  1.0000
  O   O6        1.0  0.96537  0.50296  0.56564  1.0000
  C   C66       1.0  0.09914  0.56749  0.37377  1.0000
  H   H39       1.0  0.10685  0.59423  0.40469  1.0000
