data_image0
_chemical_formula_structural       C5H6C6H6C6H6C6H6C7H4NC6H4NC6H4NC4H2C2H2NC4H2C2H2NC4H2C2H2NC12H6C6H3C9H3C12H6C6H3C9H3C12H6C6H3C9H3C12H6C6H3C9H3C4H2C2H2NC4H2C2H2NC4H2C2H2NC6H4NC6H4NC6H4N
_chemical_formula_sum              "C204 H120 N12"
_cell_length_a       81.3339
_cell_length_b       81.3369
_cell_length_c       14.9729
_cell_angle_alpha    90
_cell_angle_beta     90
_cell_angle_gamma    119.998

_space_group_name_H-M_alt    "P 1"
_space_group_IT_number       1

loop_
  _space_group_symop_operation_xyz
  'x, y, z'

loop_
  _atom_site_type_symbol
  _atom_site_label
  _atom_site_symmetry_multiplicity
  _atom_site_fract_x
  _atom_site_fract_y
  _atom_site_fract_z
  _atom_site_occupancy
  C   C1        1.0  0.96024  0.04931  0.30750  1.0000
  C   C2        1.0  0.94253  0.91131  0.30629  1.0000
  C   C3        1.0  0.93381  0.89155  0.31910  1.0000
  C   C4        1.0  0.08039  0.03163  0.30619  1.0000
  C   C5        1.0  0.10016  0.04268  0.31897  1.0000
  H   H1        1.0  0.95441  0.07167  0.29851  1.0000
  H   H2        1.0  0.93513  0.91668  0.27396  1.0000
  H   H3        1.0  0.92026  0.88311  0.29610  1.0000
  H   H4        1.0  0.07502  0.01886  0.27380  1.0000
  H   H5        1.0  0.10859  0.03756  0.29597  1.0000
  H   H6        1.0  0.97316  0.05684  0.27656  1.0000
  C   C6        1.0  0.94916  0.05800  0.32010  1.0000
  C   C7        1.0  0.48212  0.29552  0.31774  1.0000
  C   C8        1.0  0.33922  0.17913  0.32910  1.0000
  C   C9        1.0  0.31940  0.16707  0.32428  1.0000
  C   C10       1.0  0.46815  0.16806  0.32995  1.0000
  C   C11       1.0  0.48316  0.16419  0.33823  1.0000
  H   H7        1.0  0.50817  0.32083  0.30808  1.0000
  H   H8        1.0  0.34464  0.19353  0.32678  1.0000
  H   H9        1.0  0.31101  0.17308  0.31800  1.0000
  H   H10       1.0  0.45492  0.15725  0.31292  1.0000
  H   H11       1.0  0.48038  0.15061  0.32742  1.0000
  H   H12       1.0  0.48775  0.28734  0.29717  1.0000
  C   C12       1.0  0.49414  0.31529  0.32395  1.0000
  C   C13       1.0  0.69621  0.18703  0.31799  1.0000
  C   C14       1.0  0.81262  0.16054  0.32927  1.0000
  C   C15       1.0  0.82470  0.15279  0.32444  1.0000
  C   C16       1.0  0.82370  0.30052  0.32996  1.0000
  C   C17       1.0  0.82757  0.31940  0.33816  1.0000
  H   H13       1.0  0.67090  0.18775  0.30823  1.0000
  H   H14       1.0  0.79823  0.15156  0.32693  1.0000
  H   H15       1.0  0.81869  0.13839  0.31819  1.0000
  H   H16       1.0  0.83452  0.29810  0.31324  1.0000
  H   H17       1.0  0.84116  0.33020  0.32766  1.0000
  H   H18       1.0  0.70439  0.20084  0.29744  1.0000
  C   C18       1.0  0.67643  0.17926  0.32415  1.0000
  C   C19       1.0  0.80468  0.50959  0.31789  1.0000
  C   C20       1.0  0.83119  0.65249  0.32911  1.0000
  C   C21       1.0  0.83894  0.67231  0.32432  1.0000
  C   C22       1.0  0.69120  0.52359  0.33000  1.0000
  C   C23       1.0  0.67232  0.50859  0.33833  1.0000
  H   H19       1.0  0.80395  0.48354  0.30818  1.0000
  H   H20       1.0  0.84017  0.64707  0.32683  1.0000
  H   H21       1.0  0.85335  0.68070  0.31812  1.0000
  H   H22       1.0  0.69362  0.53682  0.31302  1.0000
  H   H23       1.0  0.66152  0.51138  0.32762  1.0000
  H   H24       1.0  0.79088  0.50396  0.29724  1.0000
  C   C24       1.0  0.81244  0.49757  0.32411  1.0000
  C   C25       1.0  0.25002  0.11511  0.27292  1.0000
  C   C26       1.0  0.23006  0.10565  0.27211  1.0000
  C   C27       1.0  0.19958  0.10080  0.33261  1.0000
  C   C28       1.0  0.18923  0.09645  0.25161  1.0000
  C   C29       1.0  0.16924  0.08669  0.25141  1.0000
  C   C30       1.0  0.15896  0.08114  0.33217  1.0000
  H   H25       1.0  0.19616  0.10060  0.19167  1.0000
  H   H26       1.0  0.16222  0.08385  0.19163  1.0000
  H   H27       1.0  0.25682  0.11123  0.22739  1.0000
  H   H28       1.0  0.22300  0.09484  0.22730  1.0000
  N   N1        1.0  0.14008  0.07171  0.32748  1.0000
  C   C31       1.0  0.87672  0.13544  0.27315  1.0000
  C   C32       1.0  0.88619  0.12494  0.27228  1.0000
  C   C33       1.0  0.89094  0.09922  0.33230  1.0000
  C   C34       1.0  0.89540  0.09333  0.25123  1.0000
  C   C35       1.0  0.90516  0.08311  0.25095  1.0000
  C   C36       1.0  0.91061  0.07826  0.33169  1.0000
  H   H29       1.0  0.89133  0.09620  0.19128  1.0000
  H   H30       1.0  0.90809  0.07902  0.19112  1.0000
  H   H31       1.0  0.88066  0.14618  0.22790  1.0000
  H   H32       1.0  0.89704  0.12873  0.22772  1.0000
  N   N2        1.0  0.92004  0.06881  0.32697  1.0000
  C   C37       1.0  0.85637  0.74169  0.27301  1.0000
  C   C38       1.0  0.86687  0.76166  0.27218  1.0000
  C   C39       1.0  0.89252  0.79212  0.33261  1.0000
  C   C40       1.0  0.89851  0.80248  0.25160  1.0000
  C   C41       1.0  0.90873  0.82247  0.25139  1.0000
  C   C42       1.0  0.91347  0.83275  0.33215  1.0000
  H   H33       1.0  0.89571  0.79555  0.19164  1.0000
  H   H34       1.0  0.91289  0.82948  0.19160  1.0000
  H   H35       1.0  0.84567  0.73490  0.22753  1.0000
  H   H36       1.0  0.86312  0.76872  0.22743  1.0000
  N   N3        1.0  0.92293  0.85163  0.32745  1.0000
  C   C43       1.0  0.61796  0.15558  0.32314  1.0000
  C   C44       1.0  0.58125  0.15221  0.32427  1.0000
  C   C45       1.0  0.59439  0.16201  0.25486  1.0000
  C   C46       1.0  0.61249  0.16375  0.25465  1.0000
  H   H37       1.0  0.59132  0.16889  0.20614  1.0000
  H   H38       1.0  0.62190  0.17159  0.20538  1.0000
  C   C47       1.0  0.53655  0.15203  0.25634  1.0000
  C   C48       1.0  0.55243  0.14946  0.25301  1.0000
  H   H39       1.0  0.52900  0.15038  0.19907  1.0000
  H   H40       1.0  0.55584  0.14577  0.19337  1.0000
  N   N4        1.0  0.63592  0.15954  0.32300  1.0000
  C   C49       1.0  0.83609  0.46276  0.32334  1.0000
  C   C50       1.0  0.83955  0.42947  0.32430  1.0000
  C   C51       1.0  0.82975  0.43281  0.25487  1.0000
  C   C52       1.0  0.82798  0.44915  0.25471  1.0000
  H   H41       1.0  0.82289  0.42286  0.20608  1.0000
  H   H42       1.0  0.82014  0.45071  0.20540  1.0000
  C   C53       1.0  0.83980  0.38499  0.25628  1.0000
  C   C54       1.0  0.84234  0.40342  0.25299  1.0000
  H   H43       1.0  0.84146  0.37910  0.19900  1.0000
  H   H44       1.0  0.84605  0.41053  0.19339  1.0000
  N   N5        1.0  0.83216  0.47677  0.32310  1.0000
  C   C55       1.0  0.52896  0.37376  0.32322  1.0000
  C   C56       1.0  0.56225  0.41050  0.32423  1.0000
  C   C57       1.0  0.55893  0.39735  0.25488  1.0000
  C   C58       1.0  0.54259  0.37925  0.25467  1.0000
  H   H45       1.0  0.56890  0.40043  0.20623  1.0000
  H   H46       1.0  0.54105  0.36983  0.20549  1.0000
  C   C59       1.0  0.60677  0.45521  0.25638  1.0000
  C   C60       1.0  0.58833  0.43932  0.25299  1.0000
  H   H47       1.0  0.61269  0.46275  0.19909  1.0000
  H   H48       1.0  0.58125  0.43590  0.19331  1.0000
  N   N6        1.0  0.51495  0.35581  0.32302  1.0000
  C   C61       1.0  0.96103  0.92348  0.33899  1.0000
  C   C62       1.0  0.95372  0.03065  0.33842  1.0000
  C   C63       1.0  0.06822  0.03794  0.33902  1.0000
  C   C64       1.0  0.93137  0.04829  0.36407  1.0000
  C   C65       1.0  0.92498  0.02958  0.39462  1.0000
  C   C66       1.0  0.93597  0.02082  0.38178  1.0000
  C   C67       1.0  0.94335  0.88350  0.36488  1.0000
  C   C68       1.0  0.96190  0.89585  0.39717  1.0000
  C   C69       1.0  0.97069  0.91559  0.38425  1.0000
  C   C70       1.0  0.10820  0.06024  0.36494  1.0000
  C   C71       1.0  0.09585  0.06644  0.39734  1.0000
  C   C72       1.0  0.07611  0.05548  0.38438  1.0000
  H   H49       1.0  0.91225  0.02214  0.42719  1.0000
  H   H50       1.0  0.93094  0.00731  0.40552  1.0000
  H   H51       1.0  0.98407  0.92409  0.40924  1.0000
  H   H52       1.0  0.96921  0.89058  0.43108  1.0000
  H   H53       1.0  0.10112  0.07900  0.43134  1.0000
  H   H54       1.0  0.06761  0.06036  0.40947  1.0000
  C   C73       1.0  0.01441  0.00821  0.32169  1.0000
  C   C74       1.0  0.00513  0.98816  0.32181  1.0000
  C   C75       1.0  0.98509  0.97729  0.32169  1.0000
  C   C76       1.0  0.97433  0.98657  0.32172  1.0000
  C   C77       1.0  0.98349  0.00661  0.32161  1.0000
  C   C78       1.0  0.00354  0.01737  0.32174  1.0000
  H   H55       1.0  0.95976  0.97870  0.32284  1.0000
  H   H56       1.0  0.01300  0.98146  0.32303  1.0000
  H   H57       1.0  0.01024  0.03194  0.32284  1.0000
  C   C79       1.0  0.04984  0.02754  0.33000  1.0000
  C   C80       1.0  0.03293  0.01822  0.32469  1.0000
  C   C81       1.0  0.96415  0.02269  0.32961  1.0000
  C   C82       1.0  0.97348  0.01511  0.32446  1.0000
  C   C83       1.0  0.97659  0.95877  0.32469  1.0000
  C   C84       1.0  0.96900  0.94186  0.32998  1.0000
  C   C85       1.0  0.12753  0.07096  0.38228  1.0000
  C   C86       1.0  0.93475  0.86417  0.38218  1.0000
  C   C87       1.0  0.92061  0.05685  0.38131  1.0000
  H   H58       1.0  0.91263  0.05309  0.43615  1.0000
  H   H59       1.0  0.93836  0.85996  0.43752  1.0000
  H   H60       1.0  0.13174  0.07877  0.43766  1.0000
  C   C88       1.0  0.35135  0.17143  0.33554  1.0000
  C   C89       1.0  0.46278  0.28716  0.34129  1.0000
  C   C90       1.0  0.47135  0.18654  0.34580  1.0000
  C   C91       1.0  0.48718  0.32722  0.35375  1.0000
  C   C92       1.0  0.46773  0.31865  0.37693  1.0000
  C   C93       1.0  0.45563  0.29886  0.37071  1.0000
  C   C94       1.0  0.31124  0.14706  0.32563  1.0000
  C   C95       1.0  0.32358  0.13954  0.33250  1.0000
  C   C96       1.0  0.34338  0.15154  0.33758  1.0000
  C   C97       1.0  0.50163  0.17868  0.36257  1.0000
  C   C98       1.0  0.50462  0.19715  0.37799  1.0000
  C   C99       1.0  0.48972  0.20108  0.36959  1.0000
  H   H61       1.0  0.46217  0.32674  0.39945  1.0000
  H   H62       1.0  0.44168  0.29313  0.38898  1.0000
  H   H63       1.0  0.35185  0.14554  0.34166  1.0000
  H   H64       1.0  0.31828  0.12516  0.33323  1.0000
  H   H65       1.0  0.51776  0.20803  0.39573  1.0000
  H   H66       1.0  0.49247  0.21464  0.38165  1.0000
  C   C100      1.0  0.43621  0.20415  0.33594  1.0000
  C   C101      1.0  0.41619  0.19322  0.33668  1.0000
  C   C102      1.0  0.40517  0.20225  0.33724  1.0000
  C   C103      1.0  0.41427  0.22229  0.33711  1.0000
  C   C104      1.0  0.43429  0.23329  0.33647  1.0000
  C   C105      1.0  0.44518  0.22416  0.33596  1.0000
  H   H67       1.0  0.40631  0.22890  0.33766  1.0000
  H   H68       1.0  0.40963  0.17866  0.33702  1.0000
  H   H69       1.0  0.45976  0.23216  0.33593  1.0000
  C   C106      1.0  0.45771  0.19051  0.33979  1.0000
  C   C107      1.0  0.44664  0.19610  0.33689  1.0000
  C   C108      1.0  0.45192  0.26876  0.33862  1.0000
  C   C109      1.0  0.44291  0.25180  0.33720  1.0000
  C   C110      1.0  0.38667  0.19208  0.33775  1.0000
  C   C111      1.0  0.36975  0.18245  0.33739  1.0000
  C   C112      1.0  0.51669  0.17536  0.37388  1.0000
  C   C113      1.0  0.29180  0.13477  0.31692  1.0000
  C   C114      1.0  0.49904  0.34669  0.36460  1.0000
  H   H70       1.0  0.49518  0.35365  0.40637  1.0000
  H   H71       1.0  0.28734  0.12164  0.29508  1.0000
  H   H72       1.0  0.52754  0.18438  0.41184  1.0000
  C   C115      1.0  0.82032  0.18037  0.33570  1.0000
  C   C116      1.0  0.70457  0.17605  0.34154  1.0000
  C   C117      1.0  0.80520  0.28525  0.34549  1.0000
  C   C118      1.0  0.66451  0.16036  0.35384  1.0000
  C   C119      1.0  0.67309  0.14949  0.37699  1.0000
  C   C120      1.0  0.69288  0.15720  0.37086  1.0000
  C   C121      1.0  0.84471  0.16464  0.32581  1.0000
  C   C122      1.0  0.85221  0.18450  0.33271  1.0000
  C   C123      1.0  0.84021  0.19230  0.33776  1.0000
  C   C124      1.0  0.81307  0.32340  0.36213  1.0000
  C   C125      1.0  0.79458  0.30792  0.37722  1.0000
  C   C126      1.0  0.79065  0.28908  0.36889  1.0000
  H   H73       1.0  0.66500  0.13584  0.39948  1.0000
  H   H74       1.0  0.69861  0.14898  0.38914  1.0000
  H   H75       1.0  0.84620  0.20676  0.34190  1.0000
  H   H76       1.0  0.86659  0.19358  0.33352  1.0000
  H   H77       1.0  0.78369  0.31018  0.39472  1.0000
  H   H78       1.0  0.77707  0.27828  0.38072  1.0000
  C   C127      1.0  0.78759  0.23250  0.33601  1.0000
  C   C128      1.0  0.79852  0.22341  0.33676  1.0000
  C   C129      1.0  0.78949  0.20336  0.33741  1.0000
  C   C130      1.0  0.76945  0.19242  0.33735  1.0000
  C   C131      1.0  0.75845  0.20144  0.33668  1.0000
  C   C132      1.0  0.76758  0.22146  0.33608  1.0000
  H   H79       1.0  0.76284  0.17786  0.33796  1.0000
  H   H80       1.0  0.81308  0.23142  0.33705  1.0000
  H   H81       1.0  0.75958  0.22804  0.33602  1.0000
  C   C133      1.0  0.80123  0.26764  0.33961  1.0000
  C   C134      1.0  0.79564  0.25098  0.33684  1.0000
  C   C135      1.0  0.72298  0.18360  0.33888  1.0000
  C   C136      1.0  0.73994  0.19155  0.33745  1.0000
  C   C137      1.0  0.79966  0.19503  0.33794  1.0000
  C   C138      1.0  0.80929  0.18774  0.33757  1.0000
  C   C139      1.0  0.81639  0.34176  0.37349  1.0000
  C   C140      1.0  0.85701  0.15751  0.31719  1.0000
  C   C141      1.0  0.64503  0.15274  0.36459  1.0000
  H   H82       1.0  0.63806  0.14190  0.40628  1.0000
  H   H83       1.0  0.87015  0.16619  0.29569  1.0000
  H   H84       1.0  0.80733  0.34359  0.41113  1.0000
  C   C142      1.0  0.81136  0.64037  0.33544  1.0000
  C   C143      1.0  0.81566  0.52893  0.34140  1.0000
  C   C144      1.0  0.70647  0.52038  0.34580  1.0000
  C   C145      1.0  0.83133  0.50453  0.35388  1.0000
  C   C146      1.0  0.84220  0.52399  0.37708  1.0000
  C   C147      1.0  0.83451  0.53608  0.37084  1.0000
  C   C148      1.0  0.82710  0.68048  0.32562  1.0000
  C   C149      1.0  0.80724  0.66813  0.33244  1.0000
  C   C150      1.0  0.79943  0.64833  0.33744  1.0000
  C   C151      1.0  0.66832  0.49012  0.36269  1.0000
  C   C152      1.0  0.68380  0.48711  0.37803  1.0000
  C   C153      1.0  0.70263  0.50201  0.36957  1.0000
  H   H85       1.0  0.85585  0.52954  0.39963  1.0000
  H   H86       1.0  0.84273  0.55003  0.38913  1.0000
  H   H87       1.0  0.78497  0.63986  0.34153  1.0000
  H   H88       1.0  0.79816  0.67343  0.33318  1.0000
  H   H89       1.0  0.68153  0.47397  0.39577  1.0000
  H   H90       1.0  0.71344  0.49924  0.38158  1.0000
  C   C154      1.0  0.75922  0.55551  0.33592  1.0000
  C   C155      1.0  0.76832  0.57553  0.33663  1.0000
  C   C156      1.0  0.78836  0.58654  0.33720  1.0000
  C   C157      1.0  0.79930  0.57744  0.33710  1.0000
  C   C158      1.0  0.79028  0.55743  0.33649  1.0000
  C   C159      1.0  0.77026  0.54653  0.33597  1.0000
  H   H91       1.0  0.81387  0.58540  0.33765  1.0000
  H   H92       1.0  0.76031  0.58208  0.33696  1.0000
  H   H93       1.0  0.76368  0.53195  0.33595  1.0000
  C   C160      1.0  0.72408  0.53401  0.33978  1.0000
  C   C161      1.0  0.74075  0.54508  0.33687  1.0000
  C   C162      1.0  0.80812  0.53979  0.33870  1.0000
  C   C163      1.0  0.80017  0.54880  0.33725  1.0000
  C   C164      1.0  0.79670  0.60505  0.33769  1.0000
  C   C165      1.0  0.80398  0.62196  0.33731  1.0000
  C   C166      1.0  0.64995  0.47508  0.37407  1.0000
  C   C167      1.0  0.83424  0.69991  0.31702  1.0000
  C   C168      1.0  0.83894  0.49267  0.36476  1.0000
  H   H94       1.0  0.84974  0.49652  0.40667  1.0000
  H   H95       1.0  0.82558  0.70438  0.29531  1.0000
  H   H96       1.0  0.64812  0.46423  0.41210  1.0000
  C   C169      1.0  0.26051  0.12982  0.33492  1.0000
  C   C170      1.0  0.21989  0.11057  0.33297  1.0000
  C   C171      1.0  0.23051  0.12547  0.39414  1.0000
  C   C172      1.0  0.25049  0.13504  0.39460  1.0000
  H   H97       1.0  0.22378  0.12977  0.43816  1.0000
  H   H98       1.0  0.25770  0.14580  0.43951  1.0000
  C   C173      1.0  0.16918  0.08518  0.41327  1.0000
  C   C174      1.0  0.18915  0.09491  0.41341  1.0000
  H   H99       1.0  0.16215  0.08084  0.47288  1.0000
  H   H100      1.0  0.19602  0.09730  0.47339  1.0000
  N   N7        1.0  0.27941  0.13950  0.33848  1.0000
  C   C175      1.0  0.86193  0.13114  0.33482  1.0000
  C   C176      1.0  0.88118  0.10976  0.33273  1.0000
  C   C177      1.0  0.86620  0.10540  0.39357  1.0000
  C   C178      1.0  0.85664  0.11582  0.39408  1.0000
  H   H101      1.0  0.86185  0.09432  0.43727  1.0000
  H   H102      1.0  0.84583  0.11222  0.43874  1.0000
  C   C179      1.0  0.90645  0.08430  0.41287  1.0000
  C   C180      1.0  0.89671  0.09454  0.41308  1.0000
  H   H103      1.0  0.91070  0.08152  0.47248  1.0000
  H   H104      1.0  0.89425  0.09894  0.47313  1.0000
  N   N8        1.0  0.85225  0.14035  0.33838  1.0000
  C   C181      1.0  0.86059  0.73120  0.33497  1.0000
  C   C182      1.0  0.88198  0.77182  0.33297  1.0000
  C   C183      1.0  0.88628  0.76120  0.39406  1.0000
  C   C184      1.0  0.87585  0.74121  0.39453  1.0000
  H   H105      1.0  0.89731  0.76792  0.43802  1.0000
  H   H106      1.0  0.87941  0.73400  0.43939  1.0000
  C   C185      1.0  0.90733  0.82253  0.41327  1.0000
  C   C186      1.0  0.89709  0.80255  0.41341  1.0000
  H   H107      1.0  0.91003  0.82955  0.47287  1.0000
  H   H108      1.0  0.89262  0.79569  0.47339  1.0000
  N   N9        1.0  0.85138  0.71230  0.33848  1.0000
  C   C187      1.0  0.60479  0.14541  0.39169  1.0000
  C   C188      1.0  0.58672  0.14378  0.39217  1.0000
  C   C189      1.0  0.56386  0.15250  0.32949  1.0000
  C   C190      1.0  0.55841  0.15749  0.41029  1.0000
  C   C191      1.0  0.54260  0.16013  0.41357  1.0000
  C   C192      1.0  0.53180  0.15797  0.33589  1.0000
  H   H109      1.0  0.56648  0.16027  0.46669  1.0000
  H   H110      1.0  0.53943  0.16428  0.47249  1.0000
  H   H111      1.0  0.60847  0.13980  0.44382  1.0000
  H   H112      1.0  0.57770  0.13668  0.44389  1.0000
  N   N10       1.0  0.51784  0.16204  0.33309  1.0000
  C   C193      1.0  0.84628  0.45977  0.39186  1.0000
  C   C194      1.0  0.84795  0.44335  0.39225  1.0000
  C   C195      1.0  0.83929  0.41180  0.32948  1.0000
  C   C196      1.0  0.83430  0.40135  0.41025  1.0000
  C   C197      1.0  0.83166  0.38290  0.41347  1.0000
  C   C198      1.0  0.83383  0.37428  0.33577  1.0000
  H   H113      1.0  0.83146  0.40661  0.46661  1.0000
  H   H114      1.0  0.82746  0.37556  0.47232  1.0000
  H   H115      1.0  0.85189  0.46907  0.44399  1.0000
  H   H116      1.0  0.85505  0.44144  0.44399  1.0000
  N   N11       1.0  0.82976  0.35625  0.33294  1.0000
  C   C199      1.0  0.53193  0.38694  0.39166  1.0000
  C   C200      1.0  0.54835  0.40503  0.39208  1.0000
  C   C201      1.0  0.57993  0.42790  0.32947  1.0000
  C   C202      1.0  0.59035  0.43337  0.41033  1.0000
  C   C203      1.0  0.60879  0.44918  0.41365  1.0000
  C   C204      1.0  0.61745  0.45997  0.33596  1.0000
  H   H117      1.0  0.58507  0.42528  0.46669  1.0000
  H   H118      1.0  0.61612  0.45233  0.47255  1.0000
  H   H119      1.0  0.52262  0.38326  0.44373  1.0000
  H   H120      1.0  0.55025  0.41405  0.44377  1.0000
  N   N12       1.0  0.63548  0.47392  0.33317  1.0000
