data_image0
_chemical_formula_structural       C2HC3H2C2O2CNCHNHCNCHNHC4H2C3HC2O2C2NHNHC2NHNHC2HC3H2C2O2CNCHNHCNCHNHC4H2C3HC2O2C2NHNHC2NHNHC2HC3H2C2O2CNCHNHCNCHNHC4H2C3HC2O2C2NHNHC2NHNHC2HC3H2C2O2CNCHNHCNCHNHC4H2C3HC2O2C2NHNHC2NHNH
_chemical_formula_sum              "C96 H56 O16 N32"
_cell_length_a       30.2128
_cell_length_b       30.2128
_cell_length_c       15.0048
_cell_angle_alpha    90
_cell_angle_beta     90
_cell_angle_gamma    90

_space_group_name_H-M_alt    "P 1"
_space_group_IT_number       1

loop_
  _space_group_symop_operation_xyz
  'x, y, z'

loop_
  _atom_site_type_symbol
  _atom_site_label
  _atom_site_symmetry_multiplicity
  _atom_site_fract_x
  _atom_site_fract_y
  _atom_site_fract_z
  _atom_site_occupancy
  C   C1        1.0  0.09304  0.46623  0.40201  1.0000
  C   C2        1.0  0.06219  0.49457  0.35925  1.0000
  H   H1        1.0  0.07407  0.02289  0.33154  1.0000
  C   C3        1.0  0.44235  0.00321  0.28355  1.0000
  C   C4        1.0  0.41232  0.03246  0.24141  1.0000
  C   C5        1.0  0.42711  0.07604  0.22508  1.0000
  H   H2        1.0  0.43340  0.47077  0.28520  1.0000
  H   H3        1.0  0.40517  0.09791  0.19766  1.0000
  C   C6        1.0  0.36718  0.02186  0.22447  1.0000
  C   C7        1.0  0.13979  0.47265  0.40121  1.0000
  O   O1        1.0  0.16392  0.44837  0.45998  1.0000
  O   O2        1.0  0.34458  0.04823  0.16697  1.0000
  C   C8        1.0  0.96554  0.27897  0.31248  1.0000
  N   N1        1.0  0.96899  0.23492  0.29713  1.0000
  C   C9        1.0  0.99245  0.29875  0.37838  1.0000
  H   H4        1.0  0.94442  0.29731  0.27422  1.0000
  N   N2        1.0  0.99292  0.34370  0.38967  1.0000
  H   H5        1.0  0.97465  0.36044  0.34827  1.0000
  C   C10       1.0  0.22656  0.02284  0.25708  1.0000
  N   N3        1.0  0.27080  0.01997  0.24262  1.0000
  C   C11       1.0  0.20696  0.99668  0.32445  1.0000
  H   H6        1.0  0.20822  0.04438  0.21977  1.0000
  N   N4        1.0  0.16237  0.99788  0.34054  1.0000
  H   H7        1.0  0.14505  0.01578  0.29966  1.0000
  C   C12       1.0  0.01606  0.48518  0.35236  1.0000
  C   C13       1.0  0.00321  0.44237  0.38259  1.0000
  C   C14       1.0  0.03248  0.41232  0.42459  1.0000
  C   C15       1.0  0.07606  0.42709  0.44091  1.0000
  H   H8        1.0  0.47078  0.43339  0.38082  1.0000
  H   H9        1.0  0.09794  0.40514  0.46828  1.0000
  C   C16       1.0  0.48519  0.01605  0.31364  1.0000
  C   C17       1.0  0.46626  0.09303  0.26392  1.0000
  C   C18       1.0  0.49458  0.06218  0.30673  1.0000
  H   H10       1.0  0.02291  0.07406  0.33438  1.0000
  C   C19       1.0  0.47269  0.13977  0.26469  1.0000
  C   C20       1.0  0.02186  0.36718  0.44157  1.0000
  O   O3        1.0  0.44832  0.16392  0.20609  1.0000
  O   O4        1.0  0.04824  0.34457  0.49904  1.0000
  C   C21       1.0  0.99663  0.20695  0.34164  1.0000
  C   C22       1.0  0.02274  0.22653  0.40910  1.0000
  N   N5        1.0  0.01989  0.27078  0.42350  1.0000
  H   H11       1.0  0.04429  0.20820  0.44639  1.0000
  N   N6        1.0  0.99784  0.16236  0.32548  1.0000
  H   H12       1.0  0.01574  0.14504  0.36640  1.0000
  C   C23       1.0  0.29877  0.99249  0.28768  1.0000
  C   C24       1.0  0.27898  0.96557  0.35356  1.0000
  N   N7        1.0  0.23492  0.96901  0.36889  1.0000
  H   H13       1.0  0.29731  0.94438  0.39171  1.0000
  N   N8        1.0  0.34371  0.99289  0.27634  1.0000
  H   H14       1.0  0.36043  0.97462  0.31776  1.0000
  C   C25       1.0  0.09304  0.96623  0.40201  1.0000
  C   C26       1.0  0.06219  0.99457  0.35925  1.0000
  H   H15       1.0  0.07407  0.52289  0.33154  1.0000
  C   C27       1.0  0.44235  0.50321  0.28355  1.0000
  C   C28       1.0  0.41232  0.53246  0.24141  1.0000
  C   C29       1.0  0.42711  0.57604  0.22508  1.0000
  H   H16       1.0  0.43340  0.97078  0.28520  1.0000
  H   H17       1.0  0.40517  0.59791  0.19766  1.0000
  C   C30       1.0  0.36718  0.52185  0.22447  1.0000
  C   C31       1.0  0.13979  0.97264  0.40121  1.0000
  O   O5        1.0  0.16392  0.94837  0.45998  1.0000
  O   O6        1.0  0.34458  0.54823  0.16697  1.0000
  C   C32       1.0  0.96554  0.77897  0.31248  1.0000
  N   N9        1.0  0.96899  0.73492  0.29713  1.0000
  C   C33       1.0  0.99245  0.79875  0.37838  1.0000
  H   H18       1.0  0.94442  0.79731  0.27422  1.0000
  N   N10       1.0  0.99292  0.84370  0.38967  1.0000
  H   H19       1.0  0.97465  0.86043  0.34827  1.0000
  C   C34       1.0  0.22656  0.52285  0.25708  1.0000
  N   N11       1.0  0.27080  0.51997  0.24262  1.0000
  C   C35       1.0  0.20696  0.49668  0.32445  1.0000
  H   H20       1.0  0.20822  0.54438  0.21977  1.0000
  N   N12       1.0  0.16237  0.49787  0.34054  1.0000
  H   H21       1.0  0.14505  0.51578  0.29966  1.0000
  C   C36       1.0  0.01606  0.98519  0.35236  1.0000
  C   C37       1.0  0.00321  0.94237  0.38259  1.0000
  C   C38       1.0  0.03248  0.91232  0.42459  1.0000
  C   C39       1.0  0.07606  0.92709  0.44091  1.0000
  H   H22       1.0  0.47078  0.93339  0.38082  1.0000
  H   H23       1.0  0.09794  0.90514  0.46828  1.0000
  C   C40       1.0  0.48519  0.51605  0.31364  1.0000
  C   C41       1.0  0.46626  0.59303  0.26392  1.0000
  C   C42       1.0  0.49458  0.56218  0.30673  1.0000
  H   H24       1.0  0.02291  0.57406  0.33438  1.0000
  C   C43       1.0  0.47269  0.63978  0.26469  1.0000
  C   C44       1.0  0.02186  0.86718  0.44157  1.0000
  O   O7        1.0  0.44832  0.66391  0.20609  1.0000
  O   O8        1.0  0.04824  0.84457  0.49904  1.0000
  C   C45       1.0  0.99663  0.70695  0.34164  1.0000
  C   C46       1.0  0.02274  0.72653  0.40910  1.0000
  N   N13       1.0  0.01989  0.77078  0.42350  1.0000
  H   H25       1.0  0.04429  0.70820  0.44639  1.0000
  N   N14       1.0  0.99784  0.66236  0.32548  1.0000
  H   H26       1.0  0.01574  0.64504  0.36640  1.0000
  C   C47       1.0  0.29877  0.49249  0.28768  1.0000
  C   C48       1.0  0.27898  0.46557  0.35356  1.0000
  N   N15       1.0  0.23492  0.46901  0.36889  1.0000
  H   H27       1.0  0.29731  0.44438  0.39171  1.0000
  N   N16       1.0  0.34371  0.49289  0.27634  1.0000
  H   H28       1.0  0.36043  0.47462  0.31776  1.0000
  C   C49       1.0  0.59304  0.46623  0.40201  1.0000
  C   C50       1.0  0.56219  0.49457  0.35925  1.0000
  H   H29       1.0  0.57406  0.02289  0.33154  1.0000
  C   C51       1.0  0.94235  0.00321  0.28355  1.0000
  C   C52       1.0  0.91233  0.03246  0.24141  1.0000
  C   C53       1.0  0.92711  0.07604  0.22508  1.0000
  H   H30       1.0  0.93340  0.47077  0.28520  1.0000
  H   H31       1.0  0.90517  0.09791  0.19766  1.0000
  C   C54       1.0  0.86718  0.02186  0.22447  1.0000
  C   C55       1.0  0.63979  0.47265  0.40121  1.0000
  O   O9        1.0  0.66392  0.44837  0.45998  1.0000
  O   O10       1.0  0.84458  0.04823  0.16697  1.0000
  C   C56       1.0  0.46554  0.27897  0.31248  1.0000
  N   N17       1.0  0.46899  0.23492  0.29713  1.0000
  C   C57       1.0  0.49245  0.29875  0.37838  1.0000
  H   H32       1.0  0.44442  0.29731  0.27422  1.0000
  N   N18       1.0  0.49292  0.34370  0.38967  1.0000
  H   H33       1.0  0.47465  0.36044  0.34827  1.0000
  C   C58       1.0  0.72656  0.02284  0.25708  1.0000
  N   N19       1.0  0.77080  0.01997  0.24262  1.0000
  C   C59       1.0  0.70696  0.99668  0.32445  1.0000
  H   H34       1.0  0.70822  0.04438  0.21977  1.0000
  N   N20       1.0  0.66237  0.99788  0.34054  1.0000
  H   H35       1.0  0.64505  0.01578  0.29966  1.0000
  C   C60       1.0  0.51606  0.48518  0.35236  1.0000
  C   C61       1.0  0.50321  0.44237  0.38259  1.0000
  C   C62       1.0  0.53248  0.41232  0.42459  1.0000
  C   C63       1.0  0.57606  0.42709  0.44091  1.0000
  H   H36       1.0  0.97078  0.43339  0.38082  1.0000
  H   H37       1.0  0.59794  0.40514  0.46828  1.0000
  C   C64       1.0  0.98519  0.01605  0.31364  1.0000
  C   C65       1.0  0.96626  0.09303  0.26392  1.0000
  C   C66       1.0  0.99459  0.06218  0.30673  1.0000
  H   H38       1.0  0.52291  0.07406  0.33438  1.0000
  C   C67       1.0  0.97269  0.13977  0.26469  1.0000
  C   C68       1.0  0.52186  0.36718  0.44157  1.0000
  O   O11       1.0  0.94831  0.16392  0.20609  1.0000
  O   O12       1.0  0.54824  0.34457  0.49904  1.0000
  C   C69       1.0  0.49663  0.20695  0.34164  1.0000
  C   C70       1.0  0.52274  0.22653  0.40910  1.0000
  N   N21       1.0  0.51989  0.27078  0.42350  1.0000
  H   H39       1.0  0.54429  0.20820  0.44639  1.0000
  N   N22       1.0  0.49784  0.16236  0.32548  1.0000
  H   H40       1.0  0.51574  0.14504  0.36640  1.0000
  C   C71       1.0  0.79876  0.99249  0.28768  1.0000
  C   C72       1.0  0.77898  0.96557  0.35356  1.0000
  N   N23       1.0  0.73492  0.96901  0.36889  1.0000
  H   H41       1.0  0.79731  0.94438  0.39171  1.0000
  N   N24       1.0  0.84371  0.99289  0.27634  1.0000
  H   H42       1.0  0.86043  0.97462  0.31776  1.0000
  C   C73       1.0  0.59304  0.96623  0.40201  1.0000
  C   C74       1.0  0.56219  0.99457  0.35925  1.0000
  H   H43       1.0  0.57406  0.52289  0.33154  1.0000
  C   C75       1.0  0.94235  0.50321  0.28355  1.0000
  C   C76       1.0  0.91233  0.53246  0.24141  1.0000
  C   C77       1.0  0.92711  0.57604  0.22508  1.0000
  H   H44       1.0  0.93340  0.97078  0.28520  1.0000
  H   H45       1.0  0.90517  0.59791  0.19766  1.0000
  C   C78       1.0  0.86718  0.52185  0.22447  1.0000
  C   C79       1.0  0.63979  0.97264  0.40121  1.0000
  O   O13       1.0  0.66392  0.94837  0.45998  1.0000
  O   O14       1.0  0.84458  0.54823  0.16697  1.0000
  C   C80       1.0  0.46554  0.77897  0.31248  1.0000
  N   N25       1.0  0.46899  0.73492  0.29713  1.0000
  C   C81       1.0  0.49245  0.79875  0.37838  1.0000
  H   H46       1.0  0.44442  0.79731  0.27422  1.0000
  N   N26       1.0  0.49292  0.84370  0.38967  1.0000
  H   H47       1.0  0.47465  0.86043  0.34827  1.0000
  C   C82       1.0  0.72656  0.52285  0.25708  1.0000
  N   N27       1.0  0.77080  0.51997  0.24262  1.0000
  C   C83       1.0  0.70696  0.49668  0.32445  1.0000
  H   H48       1.0  0.70822  0.54438  0.21977  1.0000
  N   N28       1.0  0.66237  0.49787  0.34054  1.0000
  H   H49       1.0  0.64505  0.51578  0.29966  1.0000
  C   C84       1.0  0.51606  0.98519  0.35236  1.0000
  C   C85       1.0  0.50321  0.94237  0.38259  1.0000
  C   C86       1.0  0.53248  0.91232  0.42459  1.0000
  C   C87       1.0  0.57606  0.92709  0.44091  1.0000
  H   H50       1.0  0.97078  0.93339  0.38082  1.0000
  H   H51       1.0  0.59794  0.90514  0.46828  1.0000
  C   C88       1.0  0.98519  0.51605  0.31364  1.0000
  C   C89       1.0  0.96626  0.59303  0.26392  1.0000
  C   C90       1.0  0.99459  0.56218  0.30673  1.0000
  H   H52       1.0  0.52291  0.57406  0.33438  1.0000
  C   C91       1.0  0.97269  0.63978  0.26469  1.0000
  C   C92       1.0  0.52186  0.86718  0.44157  1.0000
  O   O15       1.0  0.94831  0.66391  0.20609  1.0000
  O   O16       1.0  0.54824  0.84457  0.49904  1.0000
  C   C93       1.0  0.49663  0.70695  0.34164  1.0000
  C   C94       1.0  0.52274  0.72653  0.40910  1.0000
  N   N29       1.0  0.51989  0.77078  0.42350  1.0000
  H   H53       1.0  0.54429  0.70820  0.44639  1.0000
  N   N30       1.0  0.49784  0.66236  0.32548  1.0000
  H   H54       1.0  0.51574  0.64504  0.36640  1.0000
  C   C95       1.0  0.79876  0.49249  0.28768  1.0000
  C   C96       1.0  0.77898  0.46557  0.35356  1.0000
  N   N31       1.0  0.73492  0.46901  0.36889  1.0000
  H   H55       1.0  0.79731  0.44438  0.39171  1.0000
  N   N32       1.0  0.84371  0.49289  0.27634  1.0000
  H   H56       1.0  0.86043  0.47462  0.31776  1.0000
