data_image0
_chemical_formula_structural       C17H12C17H12C2H2OC2H2OC2H2OC13H9C13H9C4NC2NH2C4NC2NH2C4NC2NH2
_chemical_formula_sum              "C84 H54 O3 N6"
_cell_length_a       37.3418
_cell_length_b       37.3165
_cell_length_c       14.833
_cell_angle_alpha    90
_cell_angle_beta     90
_cell_angle_gamma    120.036

_space_group_name_H-M_alt    "P 1"
_space_group_IT_number       1

loop_
  _space_group_symop_operation_xyz
  'x, y, z'

loop_
  _atom_site_type_symbol
  _atom_site_label
  _atom_site_symmetry_multiplicity
  _atom_site_fract_x
  _atom_site_fract_y
  _atom_site_fract_z
  _atom_site_occupancy
  C   C1        1.0  0.47973  0.89333  0.33045  1.0000
  C   C2        1.0  0.45599  0.84979  0.33395  1.0000
  C   C3        1.0  0.39152  0.75896  0.30078  1.0000
  C   C4        1.0  0.36665  0.71611  0.30819  1.0000
  C   C5        1.0  0.32294  0.69669  0.30824  1.0000
  C   C6        1.0  0.29764  0.65305  0.30883  1.0000
  C   C7        1.0  0.31706  0.62875  0.30770  1.0000
  C   C8        1.0  0.36066  0.64712  0.30782  1.0000
  C   C9        1.0  0.38498  0.69086  0.30714  1.0000
  C   C10       1.0  0.37859  0.62222  0.30055  1.0000
  C   C11       1.0  0.42822  0.60153  0.34552  1.0000
  C   C12       1.0  0.40503  0.55793  0.33577  1.0000
  C   C13       1.0  0.42477  0.53416  0.33246  1.0000
  C   C14       1.0  0.25475  0.63521  0.30253  1.0000
  C   C15       1.0  0.18446  0.58492  0.34527  1.0000
  C   C16       1.0  0.15966  0.54128  0.34112  1.0000
  C   C17       1.0  0.11620  0.52188  0.33795  1.0000
  H   H1        1.0  0.51114  0.90718  0.32309  1.0000
  H   H2        1.0  0.47093  0.83316  0.32940  1.0000
  H   H3        1.0  0.41657  0.70455  0.30372  1.0000
  H   H4        1.0  0.30931  0.71465  0.30569  1.0000
  H   H5        1.0  0.29915  0.59714  0.30467  1.0000
  H   H6        1.0  0.40710  0.50264  0.32706  1.0000
  H   H7        1.0  0.37341  0.54292  0.33296  1.0000
  H   H8        1.0  0.09912  0.49023  0.33619  1.0000
  H   H9        1.0  0.17305  0.52312  0.34105  1.0000
  H   H10       1.0  0.36741  0.60045  0.25310  1.0000
  H   H11       1.0  0.41291  0.76954  0.25253  1.0000
  H   H12       1.0  0.24405  0.64748  0.25788  1.0000
  C   C18       1.0  0.53719  0.11798  0.33386  1.0000
  C   C19       1.0  0.56098  0.16152  0.33681  1.0000
  C   C20       1.0  0.62537  0.25227  0.30128  1.0000
  C   C21       1.0  0.65025  0.29514  0.30840  1.0000
  C   C22       1.0  0.69396  0.31458  0.30837  1.0000
  C   C23       1.0  0.71925  0.35821  0.30903  1.0000
  C   C24       1.0  0.69981  0.38249  0.30800  1.0000
  C   C25       1.0  0.65621  0.36412  0.30821  1.0000
  C   C26       1.0  0.63191  0.32038  0.30746  1.0000
  C   C27       1.0  0.63829  0.38904  0.30118  1.0000
  C   C28       1.0  0.58856  0.40959  0.34608  1.0000
  C   C29       1.0  0.61185  0.45327  0.33825  1.0000
  C   C30       1.0  0.59218  0.47711  0.33549  1.0000
  C   C31       1.0  0.76214  0.37608  0.30272  1.0000
  C   C32       1.0  0.83241  0.42628  0.34593  1.0000
  C   C33       1.0  0.85724  0.46993  0.34282  1.0000
  C   C34       1.0  0.90071  0.48933  0.34015  1.0000
  H   H13       1.0  0.50570  0.10413  0.32842  1.0000
  H   H14       1.0  0.54603  0.17817  0.33373  1.0000
  H   H15       1.0  0.60032  0.30668  0.30419  1.0000
  H   H16       1.0  0.70761  0.29663  0.30577  1.0000
  H   H17       1.0  0.71772  0.41412  0.30503  1.0000
  H   H18       1.0  0.60990  0.50866  0.33151  1.0000
  H   H19       1.0  0.64349  0.46826  0.33656  1.0000
  H   H20       1.0  0.91781  0.52099  0.33918  1.0000
  H   H21       1.0  0.84387  0.48812  0.34327  1.0000
  H   H22       1.0  0.64963  0.41103  0.25419  1.0000
  H   H23       1.0  0.60370  0.24161  0.25363  1.0000
  H   H24       1.0  0.77286  0.36388  0.25793  1.0000
  C   C35       1.0  0.49821  0.51682  0.26084  1.0000
  C   C36       1.0  0.51841  0.49356  0.26183  1.0000
  H   H25       1.0  0.52530  0.48499  0.20162  1.0000
  H   H26       1.0  0.49115  0.52477  0.20006  1.0000
  O   O1        1.0  0.52741  0.48549  0.00223  1.0000
  C   C37       1.0  0.49735  0.98419  0.26124  1.0000
  C   C38       1.0  0.52062  0.02768  0.26222  1.0000
  H   H27       1.0  0.52924  0.04315  0.20201  1.0000
  H   H28       1.0  0.48941  0.96916  0.20046  1.0000
  O   O2        1.0  0.52852  0.04479  0.00262  1.0000
  C   C39       1.0  0.02986  0.51532  0.26085  1.0000
  C   C40       1.0  0.98641  0.49540  0.26186  1.0000
  H   H29       1.0  0.97093  0.48829  0.20166  1.0000
  H   H30       1.0  0.04486  0.52214  0.20007  1.0000
  O   O3        1.0  0.96943  0.48758  0.00228  1.0000
  C   C41       1.0  0.46068  0.91765  0.33993  1.0000
  C   C42       1.0  0.41255  0.82936  0.34634  1.0000
  C   C43       1.0  0.39375  0.85400  0.35583  1.0000
  C   C44       1.0  0.41745  0.89752  0.35280  1.0000
  C   C45       1.0  0.38845  0.78641  0.35445  1.0000
  C   C46       1.0  0.40948  0.62570  0.35346  1.0000
  C   C47       1.0  0.47177  0.62047  0.35268  1.0000
  C   C48       1.0  0.46823  0.55334  0.33949  1.0000
  C   C49       1.0  0.49153  0.59675  0.34973  1.0000
  C   C50       1.0  0.22729  0.60313  0.35290  1.0000
  C   C51       1.0  0.16438  0.60858  0.34701  1.0000
  C   C52       1.0  0.09637  0.54565  0.33946  1.0000
  C   C53       1.0  0.12089  0.58920  0.34418  1.0000
  H   H31       1.0  0.40294  0.91442  0.36115  1.0000
  H   H32       1.0  0.36251  0.84045  0.36607  1.0000
  H   H33       1.0  0.18123  0.64015  0.35241  1.0000
  H   H34       1.0  0.48959  0.65185  0.36101  1.0000
  H   H35       1.0  0.52303  0.61136  0.35634  1.0000
  H   H36       1.0  0.10723  0.60709  0.34712  1.0000
  H   H37       1.0  0.42066  0.64771  0.40047  1.0000
  H   H38       1.0  0.36679  0.77556  0.40219  1.0000
  H   H39       1.0  0.23791  0.59070  0.39734  1.0000
  C   C54       1.0  0.55631  0.09366  0.34142  1.0000
  C   C55       1.0  0.60455  0.18193  0.34678  1.0000
  C   C56       1.0  0.62344  0.15729  0.35425  1.0000
  C   C57       1.0  0.59970  0.11377  0.35150  1.0000
  C   C58       1.0  0.62872  0.22487  0.35460  1.0000
  C   C59       1.0  0.60723  0.38536  0.35379  1.0000
  C   C60       1.0  0.54496  0.39061  0.35166  1.0000
  C   C61       1.0  0.54866  0.45789  0.34103  1.0000
  C   C62       1.0  0.52525  0.41438  0.34901  1.0000
  C   C63       1.0  0.78957  0.40806  0.35335  1.0000
  C   C64       1.0  0.85248  0.40259  0.34698  1.0000
  C   C65       1.0  0.92052  0.46553  0.34107  1.0000
  C   C66       1.0  0.89597  0.42195  0.34448  1.0000
  H   H40       1.0  0.61426  0.09686  0.35843  1.0000
  H   H41       1.0  0.65479  0.17085  0.36271  1.0000
  H   H42       1.0  0.83560  0.37100  0.35155  1.0000
  H   H43       1.0  0.52707  0.35917  0.35860  1.0000
  H   H44       1.0  0.49370  0.39974  0.35452  1.0000
  H   H45       1.0  0.90960  0.40404  0.34688  1.0000
  H   H46       1.0  0.59587  0.36316  0.40037  1.0000
  H   H47       1.0  0.65062  0.23575  0.40182  1.0000
  H   H48       1.0  0.77892  0.42039  0.39794  1.0000
  C   C67       1.0  0.52888  0.48195  0.34403  1.0000
  C   C68       1.0  0.51879  0.49409  0.42685  1.0000
  C   C69       1.0  0.49844  0.51784  0.42485  1.0000
  C   C70       1.0  0.48804  0.52930  0.34209  1.0000
  N   N1        1.0  0.48895  0.52914  0.50459  1.0000
  C   C71       1.0  0.49789  0.51911  0.58586  1.0000
  C   C72       1.0  0.51800  0.49590  0.58856  1.0000
  N   N2        1.0  0.52780  0.48420  0.50973  1.0000
  H   H49       1.0  0.49007  0.52842  0.64369  1.0000
  H   H50       1.0  0.54181  0.46820  0.51412  1.0000
  C   C73       1.0  0.53222  0.04978  0.34442  1.0000
  C   C74       1.0  0.52001  0.02754  0.42725  1.0000
  C   C75       1.0  0.49621  0.98341  0.42525  1.0000
  C   C76       1.0  0.48477  0.96153  0.34250  1.0000
  N   N3        1.0  0.48487  0.96261  0.50499  1.0000
  C   C77       1.0  0.49489  0.98159  0.58626  1.0000
  C   C78       1.0  0.51812  0.02495  0.58896  1.0000
  N   N4        1.0  0.52987  0.04646  0.51013  1.0000
  H   H51       1.0  0.48555  0.96445  0.64409  1.0000
  H   H52       1.0  0.54586  0.07649  0.51452  1.0000
  C   C79       1.0  0.96436  0.48526  0.34408  1.0000
  C   C80       1.0  0.98660  0.49554  0.42689  1.0000
  C   C81       1.0  0.03071  0.51588  0.42488  1.0000
  C   C82       1.0  0.05252  0.52590  0.34210  1.0000
  N   N5        1.0  0.05151  0.52546  0.50461  1.0000
  C   C83       1.0  0.03256  0.51673  0.58589  1.0000
  C   C84       1.0  0.98923  0.49676  0.58860  1.0000
  N   N6        1.0  0.96772  0.48686  0.50978  1.0000
  H   H53       1.0  0.04969  0.52461  0.64371  1.0000
  H   H54       1.0  0.93772  0.47302  0.51417  1.0000
