data_image0
_chemical_formula_structural       C2HNO2C2HNO2C4HNO2C4HNO2C4HNO2C4HNO2C2HNO2C2HNO2C2HNO2C2HNO2C4HNO2C4HNO2C4HNO2C4HNO2C2HNO2C2HNO2C2HNO2C2HNO2CNCNCNCNCNCNCNCNCNCNCNCNCNCNCNCNCNCNCNCNCNCNCNCNCNCNCNCNCNCNCNCNCNCNCNCNC4HNO2C4HNO2C2HNO2C2HNO2C2HNO2C2HNO2C4HNO2C4HNO2C4HNO2C4HNO2C2HNO2C2HNO2C2HNO2C2HNO2C4HNO2C4HNO2C4HNO2C4HNO2
_chemical_formula_sum              "C144 H36 N72 O72"
_cell_length_a       33.9434
_cell_length_b       33.7835
_cell_length_c       14.7951
_cell_angle_alpha    90
_cell_angle_beta     90
_cell_angle_gamma    90.2777

_space_group_name_H-M_alt    "P 1"
_space_group_IT_number       1

loop_
  _space_group_symop_operation_xyz
  'x, y, z'

loop_
  _atom_site_type_symbol
  _atom_site_label
  _atom_site_symmetry_multiplicity
  _atom_site_fract_x
  _atom_site_fract_y
  _atom_site_fract_z
  _atom_site_occupancy
  C   C1        1.0  0.01948  0.49057  0.26468  1.0000
  C   C2        1.0  0.98973  0.51997  0.26572  1.0000
  H   H1        1.0  0.97910  0.53051  0.20560  1.0000
  N   N1        1.0  0.03446  0.47568  0.18205  1.0000
  O   O1        1.0  0.00787  0.45940  0.13588  1.0000
  O   O2        1.0  0.05016  0.50261  0.13561  1.0000
  C   C3        1.0  0.51962  0.01856  0.26466  1.0000
  C   C4        1.0  0.48974  0.98901  0.26570  1.0000
  H   H2        1.0  0.47901  0.97846  0.20558  1.0000
  N   N2        1.0  0.53467  0.03352  0.18202  1.0000
  O   O3        1.0  0.55030  0.00667  0.13567  1.0000
  O   O4        1.0  0.50816  0.04962  0.13576  1.0000
  C   C5        1.0  0.05385  0.25478  0.34668  1.0000
  C   C6        1.0  0.05825  0.27577  0.26489  1.0000
  C   C7        1.0  0.06713  0.31686  0.26403  1.0000
  C   C8        1.0  0.07154  0.33752  0.34709  1.0000
  H   H3        1.0  0.05527  0.26105  0.20472  1.0000
  N   N3        1.0  0.07187  0.33763  0.18149  1.0000
  O   O5        1.0  0.09973  0.32381  0.13549  1.0000
  O   O6        1.0  0.04096  0.33651  0.13481  1.0000
  C   C9        1.0  0.95551  0.75563  0.34663  1.0000
  C   C10       1.0  0.95091  0.73467  0.26485  1.0000
  C   C11       1.0  0.94180  0.69364  0.26398  1.0000
  C   C12       1.0  0.93730  0.67297  0.34701  1.0000
  H   H4        1.0  0.95394  0.74939  0.20468  1.0000
  N   N4        1.0  0.93691  0.67293  0.18140  1.0000
  O   O7        1.0  0.90909  0.68690  0.13556  1.0000
  O   O8        1.0  0.96780  0.67397  0.13461  1.0000
  C   C13       1.0  0.75477  0.05370  0.34670  1.0000
  C   C14       1.0  0.73391  0.05818  0.26494  1.0000
  C   C15       1.0  0.69309  0.06707  0.26408  1.0000
  C   C16       1.0  0.67253  0.07150  0.34711  1.0000
  H   H5        1.0  0.74853  0.05521  0.20476  1.0000
  N   N5        1.0  0.67245  0.07180  0.18153  1.0000
  O   O9        1.0  0.68646  0.09978  0.13547  1.0000
  O   O10       1.0  0.67329  0.04072  0.13491  1.0000
  C   C17       1.0  0.25471  0.95609  0.34658  1.0000
  C   C18       1.0  0.27548  0.95120  0.26483  1.0000
  C   C19       1.0  0.31616  0.94166  0.26396  1.0000
  C   C20       1.0  0.33666  0.93692  0.34697  1.0000
  H   H6        1.0  0.26089  0.95434  0.20466  1.0000
  N   N6        1.0  0.33667  0.93653  0.18139  1.0000
  O   O11       1.0  0.32224  0.90870  0.13557  1.0000
  O   O12       1.0  0.33623  0.96756  0.13455  1.0000
  C   C21       1.0  0.44107  0.81515  0.26492  1.0000
  C   C22       1.0  0.45053  0.77429  0.26611  1.0000
  H   H7        1.0  0.45367  0.75953  0.20606  1.0000
  N   N7        1.0  0.43601  0.83564  0.18217  1.0000
  O   O13       1.0  0.46688  0.83508  0.13535  1.0000
  O   O14       1.0  0.40828  0.82111  0.13648  1.0000
  C   C23       1.0  0.56769  0.19251  0.26493  1.0000
  C   C24       1.0  0.55844  0.23343  0.26611  1.0000
  H   H8        1.0  0.55538  0.24820  0.20606  1.0000
  N   N8        1.0  0.57262  0.17196  0.18222  1.0000
  O   O15       1.0  0.54168  0.17256  0.13559  1.0000
  O   O16       1.0  0.60033  0.18637  0.13629  1.0000
  C   C25       1.0  0.81607  0.56766  0.26492  1.0000
  C   C26       1.0  0.77519  0.55866  0.26611  1.0000
  H   H9        1.0  0.76044  0.55568  0.20606  1.0000
  N   N9        1.0  0.83656  0.57258  0.18218  1.0000
  O   O17       1.0  0.83532  0.54161  0.13521  1.0000
  O   O18       1.0  0.82270  0.60065  0.13664  1.0000
  C   C27       1.0  0.19307  0.44185  0.26497  1.0000
  C   C28       1.0  0.23410  0.45012  0.26616  1.0000
  H   H10       1.0  0.24889  0.45286  0.20611  1.0000
  N   N10       1.0  0.17248  0.43728  0.18226  1.0000
  O   O19       1.0  0.17417  0.46825  0.13535  1.0000
  O   O20       1.0  0.18588  0.40901  0.13661  1.0000
  C   C29       1.0  0.14623  0.04953  0.34597  1.0000
  C   C30       1.0  0.13386  0.06685  0.26410  1.0000
  C   C31       1.0  0.10971  0.10096  0.26305  1.0000
  C   C32       1.0  0.09778  0.11831  0.34608  1.0000
  H   H11       1.0  0.14055  0.05328  0.20412  1.0000
  N   N11       1.0  0.09569  0.11684  0.18045  1.0000
  O   O21       1.0  0.07489  0.09221  0.13799  1.0000
  O   O22       1.0  0.12361  0.12778  0.13045  1.0000
  C   C33       1.0  0.86368  0.96101  0.34610  1.0000
  C   C34       1.0  0.87599  0.94375  0.26412  1.0000
  C   C35       1.0  0.90007  0.90959  0.26303  1.0000
  C   C36       1.0  0.91194  0.89216  0.34601  1.0000
  H   H12       1.0  0.86931  0.95735  0.20418  1.0000
  N   N12       1.0  0.91411  0.89375  0.18041  1.0000
  O   O23       1.0  0.93502  0.91837  0.13819  1.0000
  O   O24       1.0  0.88621  0.88294  0.13021  1.0000
  C   C37       1.0  0.96096  0.14537  0.34593  1.0000
  C   C38       1.0  0.94336  0.13338  0.26401  1.0000
  C   C39       1.0  0.90866  0.10989  0.26295  1.0000
  C   C40       1.0  0.89102  0.09826  0.34595  1.0000
  H   H13       1.0  0.95698  0.14000  0.20403  1.0000
  N   N13       1.0  0.89241  0.09618  0.18033  1.0000
  O   O25       1.0  0.91627  0.07480  0.13777  1.0000
  O   O26       1.0  0.88238  0.12449  0.13044  1.0000
  C   C41       1.0  0.04863  0.86499  0.34593  1.0000
  C   C42       1.0  0.06617  0.87701  0.26397  1.0000
  C   C43       1.0  0.10076  0.90067  0.26291  1.0000
  C   C44       1.0  0.11833  0.91236  0.34594  1.0000
  H   H14       1.0  0.05255  0.87037  0.20402  1.0000
  N   N14       1.0  0.11694  0.91447  0.18030  1.0000
  O   O27       1.0  0.09299  0.93578  0.13782  1.0000
  O   O28       1.0  0.12708  0.88623  0.13033  1.0000
  C   C45       1.0  0.40032  0.59912  0.26535  1.0000
  C   C46       1.0  0.37642  0.56461  0.26642  1.0000
  H   H15       1.0  0.36957  0.55106  0.20644  1.0000
  N   N15       1.0  0.41404  0.61535  0.18272  1.0000
  O   O29       1.0  0.38594  0.62587  0.13310  1.0000
  O   O30       1.0  0.43493  0.59113  0.13986  1.0000
  C   C47       1.0  0.60929  0.40858  0.26540  1.0000
  C   C48       1.0  0.63328  0.44304  0.26643  1.0000
  H   H16       1.0  0.64007  0.45661  0.20643  1.0000
  N   N16       1.0  0.59553  0.39237  0.18277  1.0000
  O   O31       1.0  0.62361  0.38177  0.13317  1.0000
  O   O32       1.0  0.57470  0.41664  0.13989  1.0000
  C   C49       1.0  0.60083  0.60961  0.26554  1.0000
  C   C50       1.0  0.56645  0.63326  0.26663  1.0000
  H   H17       1.0  0.55290  0.63988  0.20664  1.0000
  N   N17       1.0  0.61690  0.59589  0.18288  1.0000
  O   O33       1.0  0.62727  0.62416  0.13298  1.0000
  O   O34       1.0  0.59276  0.57457  0.14034  1.0000
  C   C51       1.0  0.40843  0.39805  0.26551  1.0000
  C   C52       1.0  0.44294  0.37457  0.26658  1.0000
  H   H18       1.0  0.45648  0.36795  0.20660  1.0000
  N   N18       1.0  0.39227  0.41166  0.18286  1.0000
  O   O35       1.0  0.38199  0.38331  0.13308  1.0000
  O   O36       1.0  0.41630  0.43305  0.14019  1.0000
  C   C53       1.0  0.13158  0.42779  0.34771  1.0000
  N   N19       1.0  0.10312  0.45609  0.34775  1.0000
  C   C54       1.0  0.06418  0.44604  0.34757  1.0000
  N   N20       1.0  0.05398  0.40699  0.34733  1.0000
  C   C55       1.0  0.08196  0.37826  0.34729  1.0000
  N   N21       1.0  0.12060  0.38904  0.34747  1.0000
  C   C56       1.0  0.87744  0.58246  0.34764  1.0000
  N   N22       1.0  0.90602  0.55428  0.34769  1.0000
  C   C57       1.0  0.94493  0.56444  0.34751  1.0000
  N   N23       1.0  0.95497  0.60354  0.34726  1.0000
  C   C58       1.0  0.92690  0.63219  0.34722  1.0000
  N   N24       1.0  0.88828  0.62127  0.34740  1.0000
  C   C59       1.0  0.58267  0.13112  0.34768  1.0000
  N   N25       1.0  0.55452  0.10227  0.34772  1.0000
  C   C60       1.0  0.56451  0.06327  0.34756  1.0000
  N   N26       1.0  0.60336  0.05335  0.34735  1.0000
  C   C61       1.0  0.63199  0.08173  0.34731  1.0000
  N   N27       1.0  0.62126  0.12047  0.34747  1.0000
  C   C62       1.0  0.42614  0.87660  0.34764  1.0000
  N   N28       1.0  0.45447  0.90529  0.34771  1.0000
  C   C63       1.0  0.44476  0.94436  0.34750  1.0000
  N   N29       1.0  0.40596  0.95450  0.34722  1.0000
  C   C64       1.0  0.37713  0.92631  0.34718  1.0000
  N   N30       1.0  0.38761  0.88749  0.34737  1.0000
  C   C65       1.0  0.99959  0.16088  0.34605  1.0000
  N   N31       1.0  0.00765  0.20038  0.34633  1.0000
  C   C66       1.0  0.04563  0.21370  0.34647  1.0000
  N   N32       1.0  0.07562  0.18699  0.34637  1.0000
  C   C67       1.0  0.06790  0.14742  0.34609  1.0000
  N   N33       1.0  0.02989  0.13487  0.34593  1.0000
  C   C68       1.0  0.01001  0.84943  0.34604  1.0000
  N   N34       1.0  0.00189  0.80994  0.34630  1.0000
  C   C69       1.0  0.96388  0.79668  0.34643  1.0000
  N   N35       1.0  0.93394  0.82345  0.34633  1.0000
  C   C70       1.0  0.94173  0.86300  0.34608  1.0000
  N   N36       1.0  0.97975  0.87548  0.34593  1.0000
  C   C71       1.0  0.84806  0.99961  0.34613  1.0000
  N   N37       1.0  0.80876  0.00748  0.34641  1.0000
  C   C72       1.0  0.79563  0.04558  0.34650  1.0000
  N   N38       1.0  0.82236  0.07586  0.34634  1.0000
  C   C73       1.0  0.86171  0.06831  0.34606  1.0000
  N   N39       1.0  0.87402  0.03021  0.34597  1.0000
  C   C74       1.0  0.16172  0.01086  0.34606  1.0000
  N   N40       1.0  0.20099  0.00277  0.34630  1.0000
  C   C75       1.0  0.21392  0.96459  0.34639  1.0000
  N   N41       1.0  0.18702  0.93446  0.34626  1.0000
  C   C76       1.0  0.14772  0.94222  0.34602  1.0000
  N   N42       1.0  0.13561  0.98038  0.34592  1.0000
  C   C77       1.0  0.51028  0.66040  0.34847  1.0000
  N   N43       1.0  0.50206  0.69981  0.34831  1.0000
  C   C78       1.0  0.46401  0.71263  0.34818  1.0000
  N   N44       1.0  0.43414  0.68550  0.34821  1.0000
  C   C79       1.0  0.44202  0.64605  0.34840  1.0000
  N   N45       1.0  0.48006  0.63401  0.34852  1.0000
  C   C80       1.0  0.49915  0.34752  0.34845  1.0000
  N   N46       1.0  0.50727  0.30809  0.34830  1.0000
  C   C81       1.0  0.54529  0.29517  0.34818  1.0000
  N   N47       1.0  0.57522  0.32223  0.34820  1.0000
  C   C82       1.0  0.56746  0.36171  0.34837  1.0000
  N   N48       1.0  0.52944  0.37383  0.34849  1.0000
  C   C83       1.0  0.66096  0.49940  0.34836  1.0000
  N   N49       1.0  0.70028  0.50755  0.34819  1.0000
  C   C84       1.0  0.71351  0.54575  0.34816  1.0000
  N   N50       1.0  0.68685  0.57583  0.34827  1.0000
  C   C85       1.0  0.64747  0.56801  0.34842  1.0000
  N   N51       1.0  0.63507  0.52981  0.34847  1.0000
  C   C86       1.0  0.34867  0.50832  0.34842  1.0000
  N   N52       1.0  0.30933  0.50038  0.34827  1.0000
  C   C87       1.0  0.29590  0.46227  0.34823  1.0000
  N   N53       1.0  0.32240  0.43203  0.34831  1.0000
  C   C88       1.0  0.36183  0.43965  0.34845  1.0000
  N   N54       1.0  0.37442  0.47779  0.34850  1.0000
  C   C89       1.0  0.97450  0.53495  0.34753  1.0000
  C   C90       1.0  0.98970  0.51996  0.42934  1.0000
  C   C91       1.0  0.01946  0.49056  0.43041  1.0000
  C   C92       1.0  0.03457  0.47571  0.34756  1.0000
  H   H19       1.0  0.97905  0.53048  0.48945  1.0000
  N   N55       1.0  0.03441  0.47567  0.51307  1.0000
  O   O37       1.0  0.05010  0.50259  0.55954  1.0000
  O   O38       1.0  0.00781  0.45938  0.55919  1.0000
  C   C93       1.0  0.47454  0.97390  0.34752  1.0000
  C   C94       1.0  0.48987  0.98886  0.42936  1.0000
  C   C95       1.0  0.51973  0.01843  0.43043  1.0000
  C   C96       1.0  0.53478  0.03346  0.34755  1.0000
  H   H20       1.0  0.47922  0.97822  0.48946  1.0000
  N   N56       1.0  0.53488  0.03328  0.51308  1.0000
  O   O39       1.0  0.50841  0.04931  0.55961  1.0000
  O   O40       1.0  0.55056  0.00637  0.55915  1.0000
  C   C97       1.0  0.06713  0.31669  0.42994  1.0000
  C   C98       1.0  0.05827  0.27561  0.42868  1.0000
  H   H21       1.0  0.05528  0.26077  0.48870  1.0000
  N   N57       1.0  0.07187  0.33731  0.51270  1.0000
  O   O41       1.0  0.04095  0.33610  0.55934  1.0000
  O   O42       1.0  0.09972  0.32341  0.55857  1.0000
  C   C99       1.0  0.94185  0.69378  0.42986  1.0000
  C   C100      1.0  0.95095  0.73481  0.42861  1.0000
  H   H22       1.0  0.95402  0.74963  0.48863  1.0000
  N   N58       1.0  0.93701  0.67321  0.51264  1.0000
  O   O43       1.0  0.96792  0.67433  0.55933  1.0000
  O   O44       1.0  0.90921  0.68726  0.55844  1.0000
  C   C101      1.0  0.69323  0.06702  0.42993  1.0000
  C   C102      1.0  0.73405  0.05813  0.42868  1.0000
  H   H23       1.0  0.74878  0.05513  0.48870  1.0000
  N   N59       1.0  0.67274  0.07171  0.51269  1.0000
  O   O45       1.0  0.67366  0.04061  0.55921  1.0000
  O   O46       1.0  0.68683  0.09966  0.55870  1.0000
  C   C103      1.0  0.31602  0.94172  0.42979  1.0000
  C   C104      1.0  0.27535  0.95126  0.42854  1.0000
  H   H24       1.0  0.26066  0.95444  0.48857  1.0000
  N   N60       1.0  0.33640  0.93664  0.51256  1.0000
  O   O47       1.0  0.33588  0.96770  0.55928  1.0000
  O   O48       1.0  0.32188  0.90884  0.55835  1.0000
  C   C105      1.0  0.45543  0.75357  0.34804  1.0000
  C   C106      1.0  0.45064  0.77441  0.42985  1.0000
  C   C107      1.0  0.44117  0.81528  0.43078  1.0000
  C   C108      1.0  0.43640  0.83588  0.34778  1.0000
  H   H25       1.0  0.45383  0.75975  0.48999  1.0000
  N   N61       1.0  0.43617  0.83589  0.51339  1.0000
  O   O49       1.0  0.40848  0.82142  0.55930  1.0000
  O   O50       1.0  0.46708  0.83539  0.56009  1.0000
  C   C109      1.0  0.55370  0.25419  0.34805  1.0000
  C   C110      1.0  0.55827  0.23330  0.42987  1.0000
  C   C111      1.0  0.56753  0.19238  0.43081  1.0000
  C   C112      1.0  0.57227  0.17178  0.34780  1.0000
  H   H26       1.0  0.55510  0.24796  0.49001  1.0000
  N   N62       1.0  0.57233  0.17170  0.51339  1.0000
  O   O51       1.0  0.59997  0.18604  0.55965  1.0000
  O   O52       1.0  0.54133  0.17222  0.55978  1.0000
  C   C113      1.0  0.75441  0.55411  0.34803  1.0000
  C   C114      1.0  0.77529  0.55863  0.42982  1.0000
  C   C115      1.0  0.81618  0.56762  0.43075  1.0000
  C   C116      1.0  0.83682  0.57205  0.34777  1.0000
  H   H27       1.0  0.76062  0.55562  0.48997  1.0000
  N   N63       1.0  0.83677  0.57252  0.51336  1.0000
  O   O53       1.0  0.82297  0.60058  0.55903  1.0000
  O   O54       1.0  0.83559  0.54154  0.56031  1.0000
  C   C117      1.0  0.25493  0.45430  0.34810  1.0000
  C   C118      1.0  0.23396  0.45033  0.42990  1.0000
  C   C119      1.0  0.19293  0.44205  0.43083  1.0000
  C   C120      1.0  0.17225  0.43789  0.34783  1.0000
  H   H28       1.0  0.24865  0.45321  0.49005  1.0000
  N   N64       1.0  0.17221  0.43765  0.51342  1.0000
  O   O55       1.0  0.18553  0.40947  0.55946  1.0000
  O   O56       1.0  0.17382  0.46871  0.56002  1.0000
  C   C121      1.0  0.10990  0.10106  0.42904  1.0000
  C   C122      1.0  0.13404  0.06693  0.42791  1.0000
  H   H29       1.0  0.14090  0.05346  0.48789  1.0000
  N   N65       1.0  0.09604  0.11702  0.51169  1.0000
  O   O57       1.0  0.12405  0.12799  0.56138  1.0000
  O   O58       1.0  0.07531  0.09243  0.55446  1.0000
  C   C123      1.0  0.89987  0.90942  0.42904  1.0000
  C   C124      1.0  0.87578  0.94357  0.42802  1.0000
  H   H30       1.0  0.86897  0.95706  0.48801  1.0000
  N   N66       1.0  0.91377  0.89345  0.51166  1.0000
  O   O59       1.0  0.88578  0.88254  0.56150  1.0000
  O   O60       1.0  0.93459  0.91800  0.55430  1.0000
  C   C125      1.0  0.90853  0.11009  0.42895  1.0000
  C   C126      1.0  0.94320  0.13365  0.42788  1.0000
  H   H31       1.0  0.95675  0.14036  0.48788  1.0000
  N   N67       1.0  0.89220  0.09654  0.51162  1.0000
  O   O61       1.0  0.88208  0.12493  0.56116  1.0000
  O   O62       1.0  0.91604  0.07527  0.55456  1.0000
  C   C127      1.0  0.10086  0.90052  0.42897  1.0000
  C   C128      1.0  0.06628  0.87685  0.42791  1.0000
  H   H32       1.0  0.05273  0.87010  0.48789  1.0000
  N   N68       1.0  0.11712  0.91420  0.51162  1.0000
  O   O63       1.0  0.12731  0.88589  0.56132  1.0000
  O   O64       1.0  0.09320  0.93544  0.55438  1.0000
  C   C129      1.0  0.36441  0.54701  0.34837  1.0000
  C   C130      1.0  0.37658  0.56449  0.43033  1.0000
  C   C131      1.0  0.40050  0.59899  0.43140  1.0000
  C   C132      1.0  0.41230  0.61653  0.34837  1.0000
  H   H33       1.0  0.36989  0.55085  0.49030  1.0000
  N   N69       1.0  0.41436  0.61511  0.51404  1.0000
  O   O65       1.0  0.43531  0.59083  0.55656  1.0000
  O   O66       1.0  0.38634  0.62558  0.56397  1.0000
  C   C133      1.0  0.64531  0.46064  0.34836  1.0000
  C   C134      1.0  0.63315  0.44315  0.43033  1.0000
  C   C135      1.0  0.60917  0.40869  0.43140  1.0000
  C   C136      1.0  0.59727  0.39117  0.34842  1.0000
  H   H34       1.0  0.63986  0.45679  0.49029  1.0000
  N   N70       1.0  0.59531  0.39256  0.51403  1.0000
  O   O67       1.0  0.57443  0.41687  0.55665  1.0000
  O   O68       1.0  0.62333  0.38202  0.56386  1.0000
  C   C137      1.0  0.54890  0.64517  0.34856  1.0000
  C   C138      1.0  0.56637  0.63310  0.43044  1.0000
  C   C139      1.0  0.60078  0.60951  0.43150  1.0000
  C   C140      1.0  0.61828  0.59782  0.34851  1.0000
  H   H35       1.0  0.55281  0.63969  0.49043  1.0000
  N   N71       1.0  0.61683  0.59571  0.51411  1.0000
  O   O69       1.0  0.59270  0.57433  0.55648  1.0000
  O   O70       1.0  0.62715  0.62395  0.56417  1.0000
  C   C141      1.0  0.46053  0.36277  0.34853  1.0000
  C   C142      1.0  0.44298  0.37465  0.43046  1.0000
  C   C143      1.0  0.40848  0.39812  0.43152  1.0000
  C   C144      1.0  0.39095  0.40976  0.34852  1.0000
  H   H36       1.0  0.45657  0.36808  0.49043  1.0000
  N   N72       1.0  0.39235  0.41180  0.51414  1.0000
  O   O71       1.0  0.41640  0.43323  0.55667  1.0000
  O   O72       1.0  0.38209  0.38349  0.56406  1.0000
