data_image0
_chemical_formula_structural       C17H12C17H12N6C13H9C13H9C4HC2H3OC4HC2H3OC4HC2H3O
_chemical_formula_sum              "C78 H54 N6 O3"
_cell_length_a       37.2665
_cell_length_b       37.2412
_cell_length_c       14.8503
_cell_angle_alpha    90
_cell_angle_beta     90
_cell_angle_gamma    120.036

_space_group_name_H-M_alt    "P 1"
_space_group_IT_number       1

loop_
  _space_group_symop_operation_xyz
  'x, y, z'

loop_
  _atom_site_type_symbol
  _atom_site_label
  _atom_site_symmetry_multiplicity
  _atom_site_fract_x
  _atom_site_fract_y
  _atom_site_fract_z
  _atom_site_occupancy
  C   C1        1.0  0.47502  0.89391  0.31894  1.0000
  C   C2        1.0  0.45298  0.85016  0.31817  1.0000
  C   C3        1.0  0.38931  0.75843  0.29046  1.0000
  C   C4        1.0  0.36525  0.71546  0.29580  1.0000
  C   C5        1.0  0.32144  0.69548  0.29469  1.0000
  C   C6        1.0  0.29685  0.65172  0.29478  1.0000
  C   C7        1.0  0.31681  0.62787  0.29434  1.0000
  C   C8        1.0  0.36052  0.64704  0.29543  1.0000
  C   C9        1.0  0.38439  0.69089  0.29533  1.0000
  C   C10       1.0  0.37942  0.62301  0.28986  1.0000
  C   C11       1.0  0.42626  0.60075  0.34839  1.0000
  C   C12       1.0  0.40738  0.55927  0.31734  1.0000
  C   C13       1.0  0.42907  0.53724  0.31795  1.0000
  C   C14       1.0  0.25394  0.63284  0.28867  1.0000
  C   C15       1.0  0.18464  0.58585  0.34624  1.0000
  C   C16       1.0  0.16164  0.54449  0.37745  1.0000
  C   C17       1.0  0.11804  0.52326  0.37891  1.0000
  H   H1        1.0  0.50519  0.90898  0.29759  1.0000
  H   H2        1.0  0.46790  0.83498  0.29643  1.0000
  H   H3        1.0  0.41611  0.70509  0.29345  1.0000
  H   H4        1.0  0.30728  0.71303  0.29243  1.0000
  H   H5        1.0  0.29926  0.59613  0.29182  1.0000
  H   H6        1.0  0.41391  0.50703  0.29677  1.0000
  H   H7        1.0  0.37726  0.54432  0.29571  1.0000
  H   H8        1.0  0.10288  0.49327  0.40149  1.0000
  H   H9        1.0  0.17650  0.52936  0.40018  1.0000
  H   H10       1.0  0.37320  0.60512  0.23573  1.0000
  H   H11       1.0  0.40725  0.77015  0.23643  1.0000
  H   H12       1.0  0.24244  0.63941  0.23475  1.0000
  C   C18       1.0  0.53526  0.11850  0.35763  1.0000
  C   C19       1.0  0.56068  0.16195  0.35599  1.0000
  C   C20       1.0  0.62433  0.25109  0.30318  1.0000
  C   C21       1.0  0.64940  0.29416  0.30894  1.0000
  C   C22       1.0  0.69323  0.31395  0.30863  1.0000
  C   C23       1.0  0.71843  0.35770  0.30914  1.0000
  C   C24       1.0  0.69867  0.38177  0.30837  1.0000
  C   C25       1.0  0.65495  0.36319  0.30875  1.0000
  C   C26       1.0  0.63087  0.31934  0.30821  1.0000
  C   C27       1.0  0.63699  0.38826  0.30281  1.0000
  C   C28       1.0  0.58664  0.40836  0.34475  1.0000
  C   C29       1.0  0.61142  0.45183  0.35532  1.0000
  C   C30       1.0  0.59339  0.47721  0.35688  1.0000
  C   C31       1.0  0.76148  0.37570  0.30355  1.0000
  C   C32       1.0  0.83192  0.42634  0.34512  1.0000
  C   C33       1.0  0.85812  0.46959  0.33383  1.0000
  C   C34       1.0  0.90160  0.48763  0.33498  1.0000
  H   H13       1.0  0.50399  0.10622  0.36547  1.0000
  H   H14       1.0  0.54720  0.17984  0.36462  1.0000
  H   H15       1.0  0.59920  0.30545  0.30531  1.0000
  H   H16       1.0  0.70709  0.29614  0.30602  1.0000
  H   H17       1.0  0.71647  0.41346  0.30551  1.0000
  H   H18       1.0  0.61238  0.50851  0.36479  1.0000
  H   H19       1.0  0.64280  0.46536  0.36407  1.0000
  H   H20       1.0  0.91954  0.51916  0.32869  1.0000
  H   H21       1.0  0.84572  0.48851  0.32583  1.0000
  H   H22       1.0  0.65065  0.41270  0.26195  1.0000
  H   H23       1.0  0.59992  0.24028  0.26228  1.0000
  H   H24       1.0  0.77229  0.36188  0.26334  1.0000
  N   N1        1.0  0.50366  0.48174  0.29279  1.0000
  N   N2        1.0  0.48499  0.50362  0.29241  1.0000
  N   N3        1.0  0.53059  0.02409  0.29378  1.0000
  N   N4        1.0  0.50869  0.98352  0.29343  1.0000
  N   N5        1.0  0.98820  0.50889  0.29157  1.0000
  N   N6        1.0  0.02875  0.52743  0.29059  1.0000
  C   C35       1.0  0.45683  0.91671  0.35256  1.0000
  C   C36       1.0  0.41153  0.82753  0.34928  1.0000
  C   C37       1.0  0.39305  0.85028  0.38109  1.0000
  C   C38       1.0  0.41519  0.89392  0.38250  1.0000
  C   C39       1.0  0.38911  0.78424  0.35363  1.0000
  C   C40       1.0  0.40542  0.62316  0.35296  1.0000
  C   C41       1.0  0.46753  0.61928  0.38006  1.0000
  C   C42       1.0  0.47007  0.55547  0.35152  1.0000
  C   C43       1.0  0.48898  0.59714  0.38141  1.0000
  C   C44       1.0  0.22787  0.60653  0.35114  1.0000
  C   C45       1.0  0.16228  0.60503  0.31567  1.0000
  C   C46       1.0  0.09555  0.54249  0.34957  1.0000
  C   C47       1.0  0.11856  0.58357  0.31636  1.0000
  H   H25       1.0  0.40023  0.90887  0.40529  1.0000
  H   H26       1.0  0.36311  0.83523  0.40413  1.0000
  H   H27       1.0  0.17763  0.63524  0.29446  1.0000
  H   H28       1.0  0.48245  0.64924  0.40306  1.0000
  H   H29       1.0  0.51892  0.61213  0.40411  1.0000
  H   H30       1.0  0.10367  0.59893  0.29559  1.0000
  H   H31       1.0  0.41142  0.64168  0.40606  1.0000
  H   H32       1.0  0.37051  0.77166  0.40659  1.0000
  H   H33       1.0  0.24023  0.60023  0.40408  1.0000
  C   C48       1.0  0.55237  0.09220  0.35015  1.0000
  C   C49       1.0  0.60412  0.18060  0.34554  1.0000
  C   C50       1.0  0.62120  0.15436  0.33608  1.0000
  C   C51       1.0  0.59567  0.11085  0.33731  1.0000
  C   C52       1.0  0.63004  0.22347  0.35042  1.0000
  C   C53       1.0  0.60359  0.38248  0.34979  1.0000
  C   C54       1.0  0.54332  0.39122  0.33514  1.0000
  C   C55       1.0  0.54998  0.46003  0.34922  1.0000
  C   C56       1.0  0.52533  0.41670  0.33627  1.0000
  C   C57       1.0  0.78909  0.40937  0.34998  1.0000
  C   C58       1.0  0.85059  0.40166  0.35741  1.0000
  C   C59       1.0  0.92027  0.46311  0.34950  1.0000
  C   C60       1.0  0.89400  0.41974  0.35889  1.0000
  H   H34       1.0  0.60926  0.09288  0.33250  1.0000
  H   H35       1.0  0.65256  0.16674  0.32939  1.0000
  H   H36       1.0  0.83272  0.37033  0.36726  1.0000
  H   H37       1.0  0.52434  0.35983  0.32841  1.0000
  H   H38       1.0  0.49378  0.40306  0.33140  1.0000
  H   H39       1.0  0.90629  0.40082  0.36788  1.0000
  H   H40       1.0  0.58980  0.35827  0.39116  1.0000
  H   H41       1.0  0.65420  0.23392  0.39185  1.0000
  H   H42       1.0  0.77868  0.42335  0.39073  1.0000
  C   C61       1.0  0.49136  0.53249  0.35607  1.0000
  C   C62       1.0  0.51897  0.53743  0.42654  1.0000
  C   C63       1.0  0.53934  0.51397  0.42810  1.0000
  C   C64       1.0  0.53140  0.48539  0.35688  1.0000
  H   H43       1.0  0.52325  0.55715  0.47876  1.0000
  C   C65       1.0  0.56393  0.51705  0.50139  1.0000
  C   C66       1.0  0.54378  0.49138  0.57950  1.0000
  H   H44       1.0  0.52595  0.50282  0.61560  1.0000
  H   H45       1.0  0.56688  0.49168  0.62525  1.0000
  H   H46       1.0  0.52293  0.45923  0.55954  1.0000
  O   O1        1.0  0.59291  0.55173  0.51808  1.0000
  C   C67       1.0  0.47980  0.96102  0.35706  1.0000
  C   C68       1.0  0.47486  0.98374  0.42743  1.0000
  C   C69       1.0  0.49836  0.02761  0.42899  1.0000
  C   C70       1.0  0.52697  0.04824  0.35782  1.0000
  H   H47       1.0  0.45516  0.96831  0.47968  1.0000
  C   C71       1.0  0.49532  0.04921  0.50234  1.0000
  C   C72       1.0  0.52085  0.05432  0.58034  1.0000
  H   H48       1.0  0.50926  0.02488  0.61593  1.0000
  H   H49       1.0  0.52053  0.07698  0.62653  1.0000
  H   H50       1.0  0.55299  0.06563  0.56051  1.0000
  O   O2        1.0  0.46063  0.04365  0.51772  1.0000
  C   C73       1.0  0.05133  0.52147  0.35467  1.0000
  C   C74       1.0  0.02882  0.49455  0.42627  1.0000
  C   C75       1.0  0.98500  0.47432  0.42844  1.0000
  C   C76       1.0  0.96422  0.48174  0.35675  1.0000
  H   H51       1.0  0.04439  0.49063  0.47872  1.0000
  C   C77       1.0  0.96367  0.45060  0.50295  1.0000
  C   C78       1.0  0.95905  0.47140  0.58077  1.0000
  H   H52       1.0  0.98857  0.48895  0.61617  1.0000
  H   H53       1.0  0.93621  0.44871  0.62714  1.0000
  H   H54       1.0  0.94828  0.49264  0.56066  1.0000
  O   O3        1.0  0.96868  0.42113  0.51886  1.0000
