data_image0
_chemical_formula_structural       C2HCN2C3N2O4CHC3N2O4CHC12HCH4N2C3H2CHC3H2CHC2HCN2C3N2O4CHC3N2O4CHC12HCH4N2C3H2CHC3H2CHC2HCN2C3N2O4CHC3N2O4CHC12HCH4N2C3H2CHC3H2CHC2HCN2C3N2O4CHC3N2O4CHC12HCH4N2C3H2CHC3H2CH
_chemical_formula_sum              "C128 H56 N32 O32"
_cell_length_a       31.7734
_cell_length_b       31.7734
_cell_length_c       14.9098
_cell_angle_alpha    90
_cell_angle_beta     90
_cell_angle_gamma    90

_space_group_name_H-M_alt    "P 1"
_space_group_IT_number       1

loop_
  _space_group_symop_operation_xyz
  'x, y, z'

loop_
  _atom_site_type_symbol
  _atom_site_label
  _atom_site_symmetry_multiplicity
  _atom_site_fract_x
  _atom_site_fract_y
  _atom_site_fract_z
  _atom_site_occupancy
  C   C1        1.0  0.49376  0.01136  0.32899  1.0000
  C   C2        1.0  0.41849  0.03165  0.32012  1.0000
  H   H1        1.0  0.40844  0.09675  0.30583  1.0000
  C   C3        1.0  0.06937  0.99053  0.33277  1.0000
  N   N1        1.0  0.37585  0.02676  0.32364  1.0000
  N   N2        1.0  0.14371  0.46396  0.32939  1.0000
  C   C4        1.0  0.00872  0.29169  0.30630  1.0000
  C   C5        1.0  0.97572  0.26683  0.26802  1.0000
  C   C6        1.0  0.97424  0.22233  0.28201  1.0000
  N   N3        1.0  0.94271  0.28402  0.21535  1.0000
  N   N4        1.0  0.94195  0.19727  0.24354  1.0000
  O   O1        1.0  0.95540  0.30030  0.14346  1.0000
  O   O2        1.0  0.90594  0.20659  0.27224  1.0000
  O   O3        1.0  0.91971  0.30918  0.25812  1.0000
  O   O4        1.0  0.94225  0.19801  0.15926  1.0000
  C   C7        1.0  0.01066  0.33599  0.29585  1.0000
  H   H2        1.0  0.98897  0.35008  0.25578  1.0000
  C   C8        1.0  0.21345  0.99617  0.30526  1.0000
  C   C9        1.0  0.23808  0.02897  0.26600  1.0000
  C   C10       1.0  0.28272  0.03072  0.28007  1.0000
  N   N5        1.0  0.21632  0.05939  0.21381  1.0000
  N   N6        1.0  0.30839  0.06233  0.24121  1.0000
  O   O5        1.0  0.22580  0.05944  0.13213  1.0000
  O   O6        1.0  0.30131  0.09890  0.26910  1.0000
  O   O7        1.0  0.21677  0.09589  0.24584  1.0000
  O   O8        1.0  0.31025  0.06122  0.15719  1.0000
  C   C11       1.0  0.16911  0.99419  0.29471  1.0000
  H   H3        1.0  0.15506  0.01581  0.25413  1.0000
  C   C12       1.0  0.45019  0.50006  0.32753  1.0000
  C   C13       1.0  0.43125  0.07391  0.30998  1.0000
  C   C14       1.0  0.47352  0.08665  0.32003  1.0000
  C   C15       1.0  0.50510  0.05492  0.32717  1.0000
  C   C16       1.0  0.44027  0.45684  0.32909  1.0000
  C   C17       1.0  0.04833  0.06481  0.32816  1.0000
  C   C18       1.0  0.02582  0.47929  0.33143  1.0000
  C   C19       1.0  0.01453  0.43574  0.33326  1.0000
  C   C20       1.0  0.04618  0.40392  0.33792  1.0000
  C   C21       1.0  0.08854  0.41653  0.34701  1.0000
  C   C22       1.0  0.10117  0.45886  0.33743  1.0000
  C   C23       1.0  0.47127  0.42591  0.33620  1.0000
  H   H4        1.0  0.11139  0.39368  0.34835  1.0000
  C   C24       1.0  0.07925  0.03378  0.33522  1.0000
  H   H5        1.0  0.46090  0.39606  0.34687  1.0000
  H   H6        1.0  0.41027  0.44632  0.32249  1.0000
  H   H7        1.0  0.10916  0.04415  0.34518  1.0000
  H   H8        1.0  0.05886  0.09477  0.32098  1.0000
  N   N7        1.0  0.47843  0.12929  0.32377  1.0000
  N   N8        1.0  0.04103  0.36138  0.33004  1.0000
  C   C25       1.0  0.00550  0.20192  0.33489  1.0000
  C   C26       1.0  0.03782  0.22715  0.37208  1.0000
  C   C27       1.0  0.03939  0.27081  0.35841  1.0000
  H   H9        1.0  0.06352  0.28720  0.38758  1.0000
  H   H10       1.0  0.06114  0.21390  0.41025  1.0000
  C   C28       1.0  0.00737  0.15793  0.35107  1.0000
  H   H11       1.0  0.03097  0.14710  0.39132  1.0000
  C   C29       1.0  0.30309  0.99979  0.33412  1.0000
  C   C30       1.0  0.27791  0.96762  0.37206  1.0000
  C   C31       1.0  0.23429  0.96585  0.35826  1.0000
  H   H12       1.0  0.21791  0.94189  0.38807  1.0000
  H   H13       1.0  0.29115  0.94458  0.41099  1.0000
  C   C32       1.0  0.34706  0.99797  0.35088  1.0000
  H   H14       1.0  0.35778  0.97450  0.39162  1.0000
  C   C33       1.0  0.49376  0.51136  0.32899  1.0000
  C   C34       1.0  0.41849  0.53165  0.32012  1.0000
  H   H15       1.0  0.40844  0.59675  0.30583  1.0000
  C   C35       1.0  0.06937  0.49053  0.33277  1.0000
  N   N9        1.0  0.37585  0.52676  0.32364  1.0000
  N   N10       1.0  0.14371  0.96396  0.32939  1.0000
  C   C36       1.0  0.00872  0.79169  0.30630  1.0000
  C   C37       1.0  0.97572  0.76683  0.26802  1.0000
  C   C38       1.0  0.97424  0.72233  0.28201  1.0000
  N   N11       1.0  0.94271  0.78402  0.21535  1.0000
  N   N12       1.0  0.94195  0.69728  0.24354  1.0000
  O   O9        1.0  0.95540  0.80029  0.14346  1.0000
  O   O10       1.0  0.90594  0.70659  0.27224  1.0000
  O   O11       1.0  0.91971  0.80918  0.25812  1.0000
  O   O12       1.0  0.94225  0.69801  0.15926  1.0000
  C   C39       1.0  0.01066  0.83599  0.29585  1.0000
  H   H16       1.0  0.98897  0.85008  0.25578  1.0000
  C   C40       1.0  0.21345  0.49617  0.30526  1.0000
  C   C41       1.0  0.23808  0.52897  0.26600  1.0000
  C   C42       1.0  0.28272  0.53072  0.28007  1.0000
  N   N13       1.0  0.21632  0.55938  0.21381  1.0000
  N   N14       1.0  0.30839  0.56233  0.24121  1.0000
  O   O13       1.0  0.22580  0.55944  0.13213  1.0000
  O   O14       1.0  0.30131  0.59890  0.26910  1.0000
  O   O15       1.0  0.21677  0.59589  0.24584  1.0000
  O   O16       1.0  0.31025  0.56122  0.15719  1.0000
  C   C43       1.0  0.16911  0.49419  0.29471  1.0000
  H   H17       1.0  0.15506  0.51581  0.25413  1.0000
  C   C44       1.0  0.45019  0.00006  0.32753  1.0000
  C   C45       1.0  0.43125  0.57391  0.30998  1.0000
  C   C46       1.0  0.47352  0.58665  0.32003  1.0000
  C   C47       1.0  0.50510  0.55492  0.32717  1.0000
  C   C48       1.0  0.44027  0.95684  0.32909  1.0000
  C   C49       1.0  0.04833  0.56481  0.32816  1.0000
  C   C50       1.0  0.02582  0.97928  0.33143  1.0000
  C   C51       1.0  0.01453  0.93574  0.33326  1.0000
  C   C52       1.0  0.04618  0.90392  0.33792  1.0000
  C   C53       1.0  0.08854  0.91653  0.34701  1.0000
  C   C54       1.0  0.10117  0.95886  0.33743  1.0000
  C   C55       1.0  0.47127  0.92591  0.33620  1.0000
  H   H18       1.0  0.11139  0.89368  0.34835  1.0000
  C   C56       1.0  0.07925  0.53378  0.33522  1.0000
  H   H19       1.0  0.46090  0.89606  0.34687  1.0000
  H   H20       1.0  0.41027  0.94632  0.32249  1.0000
  H   H21       1.0  0.10916  0.54415  0.34518  1.0000
  H   H22       1.0  0.05886  0.59477  0.32098  1.0000
  N   N15       1.0  0.47843  0.62929  0.32377  1.0000
  N   N16       1.0  0.04103  0.86138  0.33004  1.0000
  C   C57       1.0  0.00550  0.70192  0.33489  1.0000
  C   C58       1.0  0.03782  0.72715  0.37208  1.0000
  C   C59       1.0  0.03939  0.77081  0.35841  1.0000
  H   H23       1.0  0.06352  0.78720  0.38758  1.0000
  H   H24       1.0  0.06114  0.71390  0.41025  1.0000
  C   C60       1.0  0.00737  0.65792  0.35107  1.0000
  H   H25       1.0  0.03097  0.64710  0.39132  1.0000
  C   C61       1.0  0.30309  0.49979  0.33412  1.0000
  C   C62       1.0  0.27791  0.46762  0.37206  1.0000
  C   C63       1.0  0.23429  0.46585  0.35826  1.0000
  H   H26       1.0  0.21791  0.44189  0.38807  1.0000
  H   H27       1.0  0.29115  0.44458  0.41099  1.0000
  C   C64       1.0  0.34706  0.49797  0.35088  1.0000
  H   H28       1.0  0.35778  0.47449  0.39162  1.0000
  C   C65       1.0  0.99376  0.01136  0.32899  1.0000
  C   C66       1.0  0.91849  0.03165  0.32012  1.0000
  H   H29       1.0  0.90844  0.09675  0.30583  1.0000
  C   C67       1.0  0.56937  0.99053  0.33277  1.0000
  N   N17       1.0  0.87585  0.02676  0.32364  1.0000
  N   N18       1.0  0.64371  0.46396  0.32939  1.0000
  C   C68       1.0  0.50872  0.29169  0.30630  1.0000
  C   C69       1.0  0.47572  0.26683  0.26802  1.0000
  C   C70       1.0  0.47424  0.22233  0.28201  1.0000
  N   N19       1.0  0.44271  0.28402  0.21535  1.0000
  N   N20       1.0  0.44194  0.19727  0.24354  1.0000
  O   O17       1.0  0.45540  0.30030  0.14346  1.0000
  O   O18       1.0  0.40594  0.20659  0.27224  1.0000
  O   O19       1.0  0.41971  0.30918  0.25812  1.0000
  O   O20       1.0  0.44225  0.19801  0.15926  1.0000
  C   C71       1.0  0.51066  0.33599  0.29585  1.0000
  H   H30       1.0  0.48897  0.35008  0.25578  1.0000
  C   C72       1.0  0.71345  0.99617  0.30526  1.0000
  C   C73       1.0  0.73808  0.02897  0.26600  1.0000
  C   C74       1.0  0.78272  0.03072  0.28007  1.0000
  N   N21       1.0  0.71633  0.05939  0.21381  1.0000
  N   N22       1.0  0.80839  0.06233  0.24121  1.0000
  O   O21       1.0  0.72580  0.05944  0.13213  1.0000
  O   O22       1.0  0.80131  0.09890  0.26910  1.0000
  O   O23       1.0  0.71677  0.09589  0.24584  1.0000
  O   O24       1.0  0.81025  0.06122  0.15719  1.0000
  C   C75       1.0  0.66912  0.99419  0.29471  1.0000
  H   H31       1.0  0.65505  0.01581  0.25413  1.0000
  C   C76       1.0  0.95019  0.50006  0.32753  1.0000
  C   C77       1.0  0.93125  0.07391  0.30998  1.0000
  C   C78       1.0  0.97352  0.08665  0.32003  1.0000
  C   C79       1.0  0.00510  0.05492  0.32717  1.0000
  C   C80       1.0  0.94027  0.45684  0.32909  1.0000
  C   C81       1.0  0.54833  0.06481  0.32816  1.0000
  C   C82       1.0  0.52582  0.47929  0.33143  1.0000
  C   C83       1.0  0.51453  0.43574  0.33326  1.0000
  C   C84       1.0  0.54617  0.40392  0.33792  1.0000
  C   C85       1.0  0.58854  0.41653  0.34701  1.0000
  C   C86       1.0  0.60117  0.45886  0.33743  1.0000
  C   C87       1.0  0.97127  0.42591  0.33620  1.0000
  H   H32       1.0  0.61139  0.39368  0.34835  1.0000
  C   C88       1.0  0.57925  0.03378  0.33522  1.0000
  H   H33       1.0  0.96090  0.39606  0.34687  1.0000
  H   H34       1.0  0.91027  0.44632  0.32249  1.0000
  H   H35       1.0  0.60915  0.04415  0.34518  1.0000
  H   H36       1.0  0.55886  0.09477  0.32098  1.0000
  N   N23       1.0  0.97844  0.12929  0.32377  1.0000
  N   N24       1.0  0.54103  0.36138  0.33004  1.0000
  C   C89       1.0  0.50550  0.20192  0.33489  1.0000
  C   C90       1.0  0.53782  0.22715  0.37208  1.0000
  C   C91       1.0  0.53939  0.27081  0.35841  1.0000
  H   H37       1.0  0.56352  0.28720  0.38758  1.0000
  H   H38       1.0  0.56114  0.21390  0.41025  1.0000
  C   C92       1.0  0.50736  0.15793  0.35107  1.0000
  H   H39       1.0  0.53097  0.14710  0.39132  1.0000
  C   C93       1.0  0.80309  0.99979  0.33412  1.0000
  C   C94       1.0  0.77791  0.96762  0.37206  1.0000
  C   C95       1.0  0.73429  0.96585  0.35826  1.0000
  H   H40       1.0  0.71791  0.94189  0.38807  1.0000
  H   H41       1.0  0.79115  0.94458  0.41099  1.0000
  C   C96       1.0  0.84706  0.99797  0.35088  1.0000
  H   H42       1.0  0.85778  0.97450  0.39162  1.0000
  C   C97       1.0  0.99376  0.51136  0.32899  1.0000
  C   C98       1.0  0.91849  0.53165  0.32012  1.0000
  H   H43       1.0  0.90844  0.59675  0.30583  1.0000
  C   C99       1.0  0.56937  0.49053  0.33277  1.0000
  N   N25       1.0  0.87585  0.52676  0.32364  1.0000
  N   N26       1.0  0.64371  0.96396  0.32939  1.0000
  C   C100      1.0  0.50872  0.79169  0.30630  1.0000
  C   C101      1.0  0.47572  0.76683  0.26802  1.0000
  C   C102      1.0  0.47424  0.72233  0.28201  1.0000
  N   N27       1.0  0.44271  0.78402  0.21535  1.0000
  N   N28       1.0  0.44194  0.69728  0.24354  1.0000
  O   O25       1.0  0.45540  0.80029  0.14346  1.0000
  O   O26       1.0  0.40594  0.70659  0.27224  1.0000
  O   O27       1.0  0.41971  0.80918  0.25812  1.0000
  O   O28       1.0  0.44225  0.69801  0.15926  1.0000
  C   C103      1.0  0.51066  0.83599  0.29585  1.0000
  H   H44       1.0  0.48897  0.85008  0.25578  1.0000
  C   C104      1.0  0.71345  0.49617  0.30526  1.0000
  C   C105      1.0  0.73808  0.52897  0.26600  1.0000
  C   C106      1.0  0.78272  0.53072  0.28007  1.0000
  N   N29       1.0  0.71633  0.55938  0.21381  1.0000
  N   N30       1.0  0.80839  0.56233  0.24121  1.0000
  O   O29       1.0  0.72580  0.55944  0.13213  1.0000
  O   O30       1.0  0.80131  0.59890  0.26910  1.0000
  O   O31       1.0  0.71677  0.59589  0.24584  1.0000
  O   O32       1.0  0.81025  0.56122  0.15719  1.0000
  C   C107      1.0  0.66912  0.49419  0.29471  1.0000
  H   H45       1.0  0.65505  0.51581  0.25413  1.0000
  C   C108      1.0  0.95019  0.00006  0.32753  1.0000
  C   C109      1.0  0.93125  0.57391  0.30998  1.0000
  C   C110      1.0  0.97352  0.58665  0.32003  1.0000
  C   C111      1.0  0.00510  0.55492  0.32717  1.0000
  C   C112      1.0  0.94027  0.95684  0.32909  1.0000
  C   C113      1.0  0.54833  0.56481  0.32816  1.0000
  C   C114      1.0  0.52582  0.97928  0.33143  1.0000
  C   C115      1.0  0.51453  0.93574  0.33326  1.0000
  C   C116      1.0  0.54617  0.90392  0.33792  1.0000
  C   C117      1.0  0.58854  0.91653  0.34701  1.0000
  C   C118      1.0  0.60117  0.95886  0.33743  1.0000
  C   C119      1.0  0.97127  0.92591  0.33620  1.0000
  H   H46       1.0  0.61139  0.89368  0.34835  1.0000
  C   C120      1.0  0.57925  0.53378  0.33522  1.0000
  H   H47       1.0  0.96090  0.89606  0.34687  1.0000
  H   H48       1.0  0.91027  0.94632  0.32249  1.0000
  H   H49       1.0  0.60915  0.54415  0.34518  1.0000
  H   H50       1.0  0.55886  0.59477  0.32098  1.0000
  N   N31       1.0  0.97844  0.62929  0.32377  1.0000
  N   N32       1.0  0.54103  0.86138  0.33004  1.0000
  C   C121      1.0  0.50550  0.70192  0.33489  1.0000
  C   C122      1.0  0.53782  0.72715  0.37208  1.0000
  C   C123      1.0  0.53939  0.77081  0.35841  1.0000
  H   H51       1.0  0.56352  0.78720  0.38758  1.0000
  H   H52       1.0  0.56114  0.71390  0.41025  1.0000
  C   C124      1.0  0.50736  0.65792  0.35107  1.0000
  H   H53       1.0  0.53097  0.64710  0.39132  1.0000
  C   C125      1.0  0.80309  0.49979  0.33412  1.0000
  C   C126      1.0  0.77791  0.46762  0.37206  1.0000
  C   C127      1.0  0.73429  0.46585  0.35826  1.0000
  H   H54       1.0  0.71791  0.44189  0.38807  1.0000
  H   H55       1.0  0.79115  0.44458  0.41099  1.0000
  C   C128      1.0  0.84706  0.49797  0.35088  1.0000
  H   H56       1.0  0.85778  0.47449  0.39162  1.0000
