data_image0
_chemical_formula_structural       C7H2C2O2C3NC2NHCONHC3NC2NHCONHC5HC4H3C2O2C3H2O2HNHC3H2O2HNHC7H2C2O2C3NC2NHCONHC3NC2NHCONHC5HC4H3C2O2C3H2O2HNHC3H2O2HNHC7H2C2O2C3NC2NHCONHC3NC2NHCONHC5HC4H3C2O2C3H2O2HNHC3H2O2HNHC7H2C2O2C3NC2NHCONHC3NC2NHCONHC5HC4H3C2O2C3H2O2HNHC3H2O2HNH
_chemical_formula_sum              "C152 H72 O40 N32"
_cell_length_a       30.8258
_cell_length_b       30.8258
_cell_length_c       15.0405
_cell_angle_alpha    90
_cell_angle_beta     90
_cell_angle_gamma    90

_space_group_name_H-M_alt    "P 1"
_space_group_IT_number       1

loop_
  _space_group_symop_operation_xyz
  'x, y, z'

loop_
  _atom_site_type_symbol
  _atom_site_label
  _atom_site_symmetry_multiplicity
  _atom_site_fract_x
  _atom_site_fract_y
  _atom_site_fract_z
  _atom_site_occupancy
  C   C1        1.0  0.05559  0.00760  0.30231  1.0000
  C   C2        1.0  0.08865  0.03991  0.30448  1.0000
  C   C3        1.0  0.07754  0.08167  0.33499  1.0000
  C   C4        1.0  0.47971  0.48452  0.33112  1.0000
  C   C5        1.0  0.40459  0.46133  0.36270  1.0000
  C   C6        1.0  0.43671  0.49444  0.35998  1.0000
  C   C7        1.0  0.42784  0.03691  0.39041  1.0000
  H   H1        1.0  0.09198  0.45892  0.23476  1.0000
  H   H2        1.0  0.39798  0.04501  0.41490  1.0000
  C   C8        1.0  0.13287  0.03242  0.28307  1.0000
  C   C9        1.0  0.36065  0.46834  0.38614  1.0000
  O   O1        1.0  0.15671  0.06658  0.25315  1.0000
  O   O2        1.0  0.34077  0.43571  0.43115  1.0000
  C   C10       1.0  0.00319  0.20554  0.32660  1.0000
  C   C11       1.0  0.99658  0.22686  0.24382  1.0000
  C   C12       1.0  0.99810  0.27288  0.23640  1.0000
  N   N1        1.0  0.99620  0.29046  0.15267  1.0000
  C   C13       1.0  0.99143  0.26627  0.07758  1.0000
  C   C14       1.0  0.98866  0.22075  0.08471  1.0000
  N   N2        1.0  0.99204  0.20358  0.16751  1.0000
  H   H3        1.0  0.00019  0.32150  0.14457  1.0000
  C   C15       1.0  0.98527  0.19369  0.01112  1.0000
  O   O3        1.0  0.00324  0.15836  0.01375  1.0000
  N   N3        1.0  0.00328  0.16116  0.33160  1.0000
  H   H4        1.0  0.98938  0.14570  0.28264  1.0000
  C   C16       1.0  0.29169  0.99428  0.32648  1.0000
  C   C17       1.0  0.27031  0.00123  0.24391  1.0000
  C   C18       1.0  0.22426  0.99992  0.23669  1.0000
  N   N4        1.0  0.20663  0.00198  0.15303  1.0000
  C   C19       1.0  0.23077  0.00677  0.07787  1.0000
  C   C20       1.0  0.27630  0.00937  0.08484  1.0000
  N   N5        1.0  0.29354  0.00577  0.16754  1.0000
  H   H5        1.0  0.17558  0.99806  0.14501  1.0000
  C   C21       1.0  0.30338  0.01262  0.01127  1.0000
  O   O4        1.0  0.33868  0.99457  0.01328  1.0000
  N   N6        1.0  0.33608  0.99386  0.33129  1.0000
  H   H6        1.0  0.35153  0.00797  0.28259  1.0000
  C   C22       1.0  0.01256  0.01746  0.33137  1.0000
  C   C23       1.0  0.03544  0.09257  0.36379  1.0000
  C   C24       1.0  0.00244  0.06037  0.36056  1.0000
  C   C25       1.0  0.06315  0.46631  0.26458  1.0000
  C   C26       1.0  0.45989  0.06905  0.39068  1.0000
  H   H7        1.0  0.10107  0.10515  0.33675  1.0000
  C   C27       1.0  0.48979  0.44156  0.30192  1.0000
  C   C28       1.0  0.45763  0.40837  0.30380  1.0000
  C   C29       1.0  0.41577  0.41928  0.33408  1.0000
  C   C30       1.0  0.03118  0.43420  0.26446  1.0000
  H   H8        1.0  0.39241  0.39562  0.33568  1.0000
  H   H9        1.0  0.03870  0.40544  0.23447  1.0000
  H   H10       1.0  0.45164  0.09885  0.41529  1.0000
  C   C31       1.0  0.02812  0.13645  0.38739  1.0000
  C   C32       1.0  0.46534  0.36419  0.28236  1.0000
  O   O5        1.0  0.06059  0.15586  0.43375  1.0000
  O   O6        1.0  0.43132  0.34023  0.25215  1.0000
  C   C33       1.0  0.00449  0.29847  0.31424  1.0000
  C   C34       1.0  0.01293  0.27714  0.39553  1.0000
  C   C35       1.0  0.01133  0.23186  0.40181  1.0000
  H   H11       1.0  0.01383  0.21847  0.46371  1.0000
  H   H12       1.0  0.01667  0.29459  0.45296  1.0000
  O   O7        1.0  0.99129  0.28621  0.66392  1.0000
  O   O8        1.0  0.95495  0.19629  0.62423  1.0000
  H   H13       1.0  0.93635  0.21810  0.62084  1.0000
  N   N7        1.0  0.00012  0.34253  0.31684  1.0000
  H   H14       1.0  0.01580  0.35769  0.36408  1.0000
  C   C36       1.0  0.19874  0.99339  0.31458  1.0000
  C   C37       1.0  0.22014  0.98462  0.39566  1.0000
  C   C38       1.0  0.26543  0.98613  0.40177  1.0000
  H   H15       1.0  0.27890  0.98329  0.46353  1.0000
  H   H16       1.0  0.20275  0.98081  0.45314  1.0000
  O   O9        1.0  0.21076  0.00699  0.66428  1.0000
  O   O10       1.0  0.30057  0.04265  0.62368  1.0000
  H   H17       1.0  0.27883  0.06134  0.62039  1.0000
  N   N8        1.0  0.15467  0.99768  0.31737  1.0000
  H   H18       1.0  0.13957  0.98188  0.36451  1.0000
  C   C39       1.0  0.05559  0.50760  0.30231  1.0000
  C   C40       1.0  0.08865  0.53990  0.30448  1.0000
  C   C41       1.0  0.07754  0.58167  0.33499  1.0000
  C   C42       1.0  0.47971  0.98452  0.33112  1.0000
  C   C43       1.0  0.40459  0.96133  0.36270  1.0000
  C   C44       1.0  0.43671  0.99445  0.35998  1.0000
  C   C45       1.0  0.42784  0.53691  0.39041  1.0000
  H   H19       1.0  0.09198  0.95893  0.23476  1.0000
  H   H20       1.0  0.39798  0.54501  0.41490  1.0000
  C   C46       1.0  0.13287  0.53242  0.28307  1.0000
  C   C47       1.0  0.36065  0.96834  0.38614  1.0000
  O   O11       1.0  0.15671  0.56658  0.25315  1.0000
  O   O12       1.0  0.34077  0.93571  0.43115  1.0000
  C   C48       1.0  0.00319  0.70554  0.32660  1.0000
  C   C49       1.0  0.99658  0.72686  0.24382  1.0000
  C   C50       1.0  0.99810  0.77289  0.23640  1.0000
  N   N9        1.0  0.99620  0.79046  0.15267  1.0000
  C   C51       1.0  0.99143  0.76627  0.07758  1.0000
  C   C52       1.0  0.98866  0.72075  0.08471  1.0000
  N   N10       1.0  0.99204  0.70358  0.16751  1.0000
  H   H21       1.0  0.00019  0.82150  0.14457  1.0000
  C   C53       1.0  0.98527  0.69369  0.01112  1.0000
  O   O13       1.0  0.00324  0.65836  0.01375  1.0000
  N   N11       1.0  0.00328  0.66116  0.33160  1.0000
  H   H22       1.0  0.98938  0.64570  0.28264  1.0000
  C   C54       1.0  0.29169  0.49428  0.32648  1.0000
  C   C55       1.0  0.27031  0.50123  0.24391  1.0000
  C   C56       1.0  0.22426  0.49992  0.23669  1.0000
  N   N12       1.0  0.20663  0.50199  0.15303  1.0000
  C   C57       1.0  0.23077  0.50677  0.07787  1.0000
  C   C58       1.0  0.27630  0.50937  0.08484  1.0000
  N   N13       1.0  0.29354  0.50577  0.16754  1.0000
  H   H23       1.0  0.17558  0.49806  0.14501  1.0000
  C   C59       1.0  0.30338  0.51262  0.01127  1.0000
  O   O14       1.0  0.33868  0.49457  0.01328  1.0000
  N   N14       1.0  0.33608  0.49385  0.33129  1.0000
  H   H24       1.0  0.35153  0.50798  0.28259  1.0000
  C   C60       1.0  0.01256  0.51746  0.33137  1.0000
  C   C61       1.0  0.03544  0.59257  0.36379  1.0000
  C   C62       1.0  0.00244  0.56036  0.36056  1.0000
  C   C63       1.0  0.06315  0.96631  0.26458  1.0000
  C   C64       1.0  0.45989  0.56905  0.39068  1.0000
  H   H25       1.0  0.10107  0.60515  0.33675  1.0000
  C   C65       1.0  0.48979  0.94156  0.30192  1.0000
  C   C66       1.0  0.45763  0.90837  0.30380  1.0000
  C   C67       1.0  0.41577  0.91927  0.33408  1.0000
  C   C68       1.0  0.03118  0.93420  0.26446  1.0000
  H   H26       1.0  0.39241  0.89562  0.33568  1.0000
  H   H27       1.0  0.03870  0.90544  0.23447  1.0000
  H   H28       1.0  0.45164  0.59885  0.41529  1.0000
  C   C69       1.0  0.02812  0.63645  0.38739  1.0000
  C   C70       1.0  0.46534  0.86420  0.28236  1.0000
  O   O15       1.0  0.06059  0.65586  0.43375  1.0000
  O   O16       1.0  0.43132  0.84023  0.25215  1.0000
  C   C71       1.0  0.00449  0.79847  0.31424  1.0000
  C   C72       1.0  0.01293  0.77714  0.39553  1.0000
  C   C73       1.0  0.01133  0.73186  0.40181  1.0000
  H   H29       1.0  0.01383  0.71847  0.46371  1.0000
  H   H30       1.0  0.01667  0.79459  0.45296  1.0000
  O   O17       1.0  0.99129  0.78621  0.66392  1.0000
  O   O18       1.0  0.95495  0.69629  0.62423  1.0000
  H   H31       1.0  0.93635  0.71810  0.62084  1.0000
  N   N15       1.0  0.00012  0.84254  0.31684  1.0000
  H   H32       1.0  0.01580  0.85769  0.36408  1.0000
  C   C74       1.0  0.19874  0.49339  0.31458  1.0000
  C   C75       1.0  0.22014  0.48462  0.39566  1.0000
  C   C76       1.0  0.26543  0.48613  0.40177  1.0000
  H   H33       1.0  0.27890  0.48329  0.46353  1.0000
  H   H34       1.0  0.20275  0.48081  0.45314  1.0000
  O   O19       1.0  0.21076  0.50699  0.66428  1.0000
  O   O20       1.0  0.30057  0.54265  0.62368  1.0000
  H   H35       1.0  0.27883  0.56134  0.62039  1.0000
  N   N16       1.0  0.15467  0.49768  0.31737  1.0000
  H   H36       1.0  0.13957  0.48188  0.36451  1.0000
  C   C77       1.0  0.55559  0.00760  0.30231  1.0000
  C   C78       1.0  0.58865  0.03991  0.30448  1.0000
  C   C79       1.0  0.57754  0.08167  0.33499  1.0000
  C   C80       1.0  0.97971  0.48452  0.33112  1.0000
  C   C81       1.0  0.90459  0.46133  0.36270  1.0000
  C   C82       1.0  0.93671  0.49444  0.35998  1.0000
  C   C83       1.0  0.92784  0.03691  0.39041  1.0000
  H   H37       1.0  0.59198  0.45892  0.23476  1.0000
  H   H38       1.0  0.89798  0.04501  0.41490  1.0000
  C   C84       1.0  0.63287  0.03242  0.28307  1.0000
  C   C85       1.0  0.86065  0.46834  0.38614  1.0000
  O   O21       1.0  0.65672  0.06658  0.25315  1.0000
  O   O22       1.0  0.84077  0.43571  0.43115  1.0000
  C   C86       1.0  0.50319  0.20554  0.32660  1.0000
  C   C87       1.0  0.49658  0.22686  0.24382  1.0000
  C   C88       1.0  0.49810  0.27288  0.23640  1.0000
  N   N17       1.0  0.49620  0.29046  0.15267  1.0000
  C   C89       1.0  0.49143  0.26627  0.07758  1.0000
  C   C90       1.0  0.48866  0.22075  0.08471  1.0000
  N   N18       1.0  0.49204  0.20358  0.16751  1.0000
  H   H39       1.0  0.50019  0.32150  0.14457  1.0000
  C   C91       1.0  0.48527  0.19369  0.01112  1.0000
  O   O23       1.0  0.50324  0.15836  0.01375  1.0000
  N   N19       1.0  0.50328  0.16116  0.33160  1.0000
  H   H40       1.0  0.48938  0.14570  0.28264  1.0000
  C   C92       1.0  0.79169  0.99428  0.32648  1.0000
  C   C93       1.0  0.77031  0.00123  0.24391  1.0000
  C   C94       1.0  0.72426  0.99992  0.23669  1.0000
  N   N20       1.0  0.70663  0.00198  0.15303  1.0000
  C   C95       1.0  0.73077  0.00677  0.07787  1.0000
  C   C96       1.0  0.77630  0.00937  0.08484  1.0000
  N   N21       1.0  0.79354  0.00577  0.16754  1.0000
  H   H41       1.0  0.67558  0.99806  0.14501  1.0000
  C   C97       1.0  0.80338  0.01262  0.01127  1.0000
  O   O24       1.0  0.83868  0.99457  0.01328  1.0000
  N   N22       1.0  0.83608  0.99386  0.33129  1.0000
  H   H42       1.0  0.85154  0.00797  0.28259  1.0000
  C   C98       1.0  0.51256  0.01746  0.33137  1.0000
  C   C99       1.0  0.53544  0.09257  0.36379  1.0000
  C   C100      1.0  0.50244  0.06037  0.36056  1.0000
  C   C101      1.0  0.56314  0.46631  0.26458  1.0000
  C   C102      1.0  0.95989  0.06905  0.39068  1.0000
  H   H43       1.0  0.60107  0.10515  0.33675  1.0000
  C   C103      1.0  0.98979  0.44156  0.30192  1.0000
  C   C104      1.0  0.95763  0.40837  0.30380  1.0000
  C   C105      1.0  0.91577  0.41928  0.33408  1.0000
  C   C106      1.0  0.53118  0.43420  0.26446  1.0000
  H   H44       1.0  0.89241  0.39562  0.33568  1.0000
  H   H45       1.0  0.53870  0.40544  0.23447  1.0000
  H   H46       1.0  0.95164  0.09885  0.41529  1.0000
  C   C107      1.0  0.52812  0.13645  0.38739  1.0000
  C   C108      1.0  0.96534  0.36419  0.28236  1.0000
  O   O25       1.0  0.56059  0.15586  0.43375  1.0000
  O   O26       1.0  0.93132  0.34023  0.25215  1.0000
  C   C109      1.0  0.50449  0.29847  0.31424  1.0000
  C   C110      1.0  0.51293  0.27714  0.39553  1.0000
  C   C111      1.0  0.51133  0.23186  0.40181  1.0000
  H   H47       1.0  0.51383  0.21847  0.46371  1.0000
  H   H48       1.0  0.51667  0.29459  0.45296  1.0000
  O   O27       1.0  0.49129  0.28621  0.66392  1.0000
  O   O28       1.0  0.45495  0.19629  0.62423  1.0000
  H   H49       1.0  0.43635  0.21810  0.62084  1.0000
  N   N23       1.0  0.50012  0.34253  0.31684  1.0000
  H   H50       1.0  0.51580  0.35769  0.36408  1.0000
  C   C112      1.0  0.69874  0.99339  0.31458  1.0000
  C   C113      1.0  0.72014  0.98462  0.39566  1.0000
  C   C114      1.0  0.76543  0.98613  0.40177  1.0000
  H   H51       1.0  0.77890  0.98329  0.46353  1.0000
  H   H52       1.0  0.70275  0.98081  0.45314  1.0000
  O   O29       1.0  0.71076  0.00699  0.66428  1.0000
  O   O30       1.0  0.80057  0.04265  0.62368  1.0000
  H   H53       1.0  0.77883  0.06134  0.62039  1.0000
  N   N24       1.0  0.65467  0.99768  0.31737  1.0000
  H   H54       1.0  0.63957  0.98188  0.36451  1.0000
  C   C115      1.0  0.55559  0.50760  0.30231  1.0000
  C   C116      1.0  0.58865  0.53990  0.30448  1.0000
  C   C117      1.0  0.57754  0.58167  0.33499  1.0000
  C   C118      1.0  0.97971  0.98452  0.33112  1.0000
  C   C119      1.0  0.90459  0.96133  0.36270  1.0000
  C   C120      1.0  0.93671  0.99445  0.35998  1.0000
  C   C121      1.0  0.92784  0.53691  0.39041  1.0000
  H   H55       1.0  0.59198  0.95893  0.23476  1.0000
  H   H56       1.0  0.89798  0.54501  0.41490  1.0000
  C   C122      1.0  0.63287  0.53242  0.28307  1.0000
  C   C123      1.0  0.86065  0.96834  0.38614  1.0000
  O   O31       1.0  0.65672  0.56658  0.25315  1.0000
  O   O32       1.0  0.84077  0.93571  0.43115  1.0000
  C   C124      1.0  0.50319  0.70554  0.32660  1.0000
  C   C125      1.0  0.49658  0.72686  0.24382  1.0000
  C   C126      1.0  0.49810  0.77289  0.23640  1.0000
  N   N25       1.0  0.49620  0.79046  0.15267  1.0000
  C   C127      1.0  0.49143  0.76627  0.07758  1.0000
  C   C128      1.0  0.48866  0.72075  0.08471  1.0000
  N   N26       1.0  0.49204  0.70358  0.16751  1.0000
  H   H57       1.0  0.50019  0.82150  0.14457  1.0000
  C   C129      1.0  0.48527  0.69369  0.01112  1.0000
  O   O33       1.0  0.50324  0.65836  0.01375  1.0000
  N   N27       1.0  0.50328  0.66116  0.33160  1.0000
  H   H58       1.0  0.48938  0.64570  0.28264  1.0000
  C   C130      1.0  0.79169  0.49428  0.32648  1.0000
  C   C131      1.0  0.77031  0.50123  0.24391  1.0000
  C   C132      1.0  0.72426  0.49992  0.23669  1.0000
  N   N28       1.0  0.70663  0.50199  0.15303  1.0000
  C   C133      1.0  0.73077  0.50677  0.07787  1.0000
  C   C134      1.0  0.77630  0.50937  0.08484  1.0000
  N   N29       1.0  0.79354  0.50577  0.16754  1.0000
  H   H59       1.0  0.67558  0.49806  0.14501  1.0000
  C   C135      1.0  0.80338  0.51262  0.01127  1.0000
  O   O34       1.0  0.83868  0.49457  0.01328  1.0000
  N   N30       1.0  0.83608  0.49385  0.33129  1.0000
  H   H60       1.0  0.85154  0.50798  0.28259  1.0000
  C   C136      1.0  0.51256  0.51746  0.33137  1.0000
  C   C137      1.0  0.53544  0.59257  0.36379  1.0000
  C   C138      1.0  0.50244  0.56036  0.36056  1.0000
  C   C139      1.0  0.56314  0.96631  0.26458  1.0000
  C   C140      1.0  0.95989  0.56905  0.39068  1.0000
  H   H61       1.0  0.60107  0.60515  0.33675  1.0000
  C   C141      1.0  0.98979  0.94156  0.30192  1.0000
  C   C142      1.0  0.95763  0.90837  0.30380  1.0000
  C   C143      1.0  0.91577  0.91927  0.33408  1.0000
  C   C144      1.0  0.53118  0.93420  0.26446  1.0000
  H   H62       1.0  0.89241  0.89562  0.33568  1.0000
  H   H63       1.0  0.53870  0.90544  0.23447  1.0000
  H   H64       1.0  0.95164  0.59885  0.41529  1.0000
  C   C145      1.0  0.52812  0.63645  0.38739  1.0000
  C   C146      1.0  0.96534  0.86420  0.28236  1.0000
  O   O35       1.0  0.56059  0.65586  0.43375  1.0000
  O   O36       1.0  0.93132  0.84023  0.25215  1.0000
  C   C147      1.0  0.50449  0.79847  0.31424  1.0000
  C   C148      1.0  0.51293  0.77714  0.39553  1.0000
  C   C149      1.0  0.51133  0.73186  0.40181  1.0000
  H   H65       1.0  0.51383  0.71847  0.46371  1.0000
  H   H66       1.0  0.51667  0.79459  0.45296  1.0000
  O   O37       1.0  0.49129  0.78621  0.66392  1.0000
  O   O38       1.0  0.45495  0.69629  0.62423  1.0000
  H   H67       1.0  0.43635  0.71810  0.62084  1.0000
  N   N31       1.0  0.50012  0.84254  0.31684  1.0000
  H   H68       1.0  0.51580  0.85769  0.36408  1.0000
  C   C150      1.0  0.69874  0.49339  0.31458  1.0000
  C   C151      1.0  0.72014  0.48462  0.39566  1.0000
  C   C152      1.0  0.76543  0.48613  0.40177  1.0000
  H   H69       1.0  0.77890  0.48329  0.46353  1.0000
  H   H70       1.0  0.70275  0.48081  0.45314  1.0000
  O   O39       1.0  0.71076  0.50699  0.66428  1.0000
  O   O40       1.0  0.80057  0.54265  0.62368  1.0000
  H   H71       1.0  0.77883  0.56134  0.62039  1.0000
  N   N32       1.0  0.65467  0.49768  0.31737  1.0000
  H   H72       1.0  0.63957  0.48188  0.36451  1.0000
