data_image0
_chemical_formula_structural       NCHNCN5CNCNCNC18H12CNCNCNC18H12C4NH3C4NH3C2H2
_chemical_formula_sum              "N15 C54 H33"
_cell_length_a       29.3291
_cell_length_b       29.3292
_cell_length_c       14.933
_cell_angle_alpha    90
_cell_angle_beta     90
_cell_angle_gamma    120

_space_group_name_H-M_alt    "P 1"
_space_group_IT_number       1

loop_
  _space_group_symop_operation_xyz
  'x, y, z'

loop_
  _atom_site_type_symbol
  _atom_site_label
  _atom_site_symmetry_multiplicity
  _atom_site_fract_x
  _atom_site_fract_y
  _atom_site_fract_z
  _atom_site_occupancy
  N   N1        1.0  0.02963  0.51538  0.26959  1.0000
  C   C1        1.0  0.03069  0.51590  0.42974  1.0000
  H   H1        1.0  0.03580  0.51845  0.56615  1.0000
  N   N2        1.0  0.05559  0.52835  0.51033  1.0000
  C   C2        1.0  0.05807  0.52959  0.34672  1.0000
  N   N3        1.0  0.49024  0.51539  0.26960  1.0000
  N   N4        1.0  0.51600  0.48962  0.26801  1.0000
  N   N5        1.0  0.49024  0.97598  0.26959  1.0000
  N   N6        1.0  0.51600  0.02750  0.26801  1.0000
  N   N7        1.0  0.97810  0.48962  0.26801  1.0000
  C   C3        1.0  0.36389  0.72330  0.33367  1.0000
  N   N8        1.0  0.38941  0.69527  0.33376  1.0000
  C   C4        1.0  0.36389  0.64172  0.33367  1.0000
  N   N9        1.0  0.31034  0.61620  0.33376  1.0000
  C   C5        1.0  0.28231  0.64172  0.33367  1.0000
  N   N10       1.0  0.31034  0.69527  0.33375  1.0000
  C   C6        1.0  0.39201  0.61360  0.33459  1.0000
  C   C7        1.0  0.44786  0.64046  0.33559  1.0000
  C   C8        1.0  0.47565  0.61283  0.33820  1.0000
  C   C9        1.0  0.44831  0.55731  0.33959  1.0000
  C   C10       1.0  0.39279  0.52996  0.33820  1.0000
  C   C11       1.0  0.36515  0.55775  0.33559  1.0000
  C   C12       1.0  0.39201  0.77953  0.33458  1.0000
  C   C13       1.0  0.44786  0.80852  0.33557  1.0000
  C   C14       1.0  0.47565  0.86394  0.33817  1.0000
  C   C15       1.0  0.44831  0.89213  0.33956  1.0000
  C   C16       1.0  0.39279  0.86394  0.33819  1.0000
  C   C17       1.0  0.36515  0.80852  0.33559  1.0000
  C   C18       1.0  0.22609  0.61360  0.33458  1.0000
  C   C19       1.0  0.19709  0.64046  0.33559  1.0000
  C   C20       1.0  0.14167  0.61283  0.33817  1.0000
  C   C21       1.0  0.11349  0.55730  0.33954  1.0000
  C   C22       1.0  0.14167  0.52996  0.33817  1.0000
  C   C23       1.0  0.19709  0.55775  0.33557  1.0000
  H   H2        1.0  0.51594  0.88350  0.34015  1.0000
  H   H3        1.0  0.46924  0.78965  0.33533  1.0000
  H   H4        1.0  0.37204  0.88350  0.34013  1.0000
  H   H5        1.0  0.32490  0.78965  0.33532  1.0000
  H   H6        1.0  0.21596  0.68071  0.33531  1.0000
  H   H7        1.0  0.12212  0.63357  0.34012  1.0000
  H   H8        1.0  0.21596  0.53637  0.33534  1.0000
  H   H9        1.0  0.12211  0.48967  0.34015  1.0000
  H   H10       1.0  0.32490  0.53637  0.33533  1.0000
  H   H11       1.0  0.37205  0.48967  0.34015  1.0000
  H   H12       1.0  0.51594  0.63357  0.34013  1.0000
  H   H13       1.0  0.46924  0.68071  0.33532  1.0000
  C   C24       1.0  0.64284  0.28119  0.33419  1.0000
  N   N11       1.0  0.61732  0.30922  0.33425  1.0000
  C   C25       1.0  0.64284  0.36277  0.33419  1.0000
  N   N12       1.0  0.69639  0.38829  0.33425  1.0000
  C   C26       1.0  0.72442  0.36277  0.33419  1.0000
  N   N13       1.0  0.69639  0.30922  0.33425  1.0000
  C   C27       1.0  0.61473  0.39088  0.33482  1.0000
  C   C28       1.0  0.55888  0.36403  0.33552  1.0000
  C   C29       1.0  0.53108  0.39167  0.33742  1.0000
  C   C30       1.0  0.55842  0.44719  0.33831  1.0000
  C   C31       1.0  0.61394  0.47453  0.33740  1.0000
  C   C32       1.0  0.64158  0.44674  0.33552  1.0000
  C   C33       1.0  0.61473  0.22497  0.33482  1.0000
  C   C34       1.0  0.55888  0.19597  0.33554  1.0000
  C   C35       1.0  0.53108  0.14054  0.33742  1.0000
  C   C36       1.0  0.55842  0.11236  0.33832  1.0000
  C   C37       1.0  0.61395  0.14054  0.33742  1.0000
  C   C38       1.0  0.64158  0.19597  0.33553  1.0000
  C   C39       1.0  0.78065  0.39088  0.33482  1.0000
  C   C40       1.0  0.80964  0.36403  0.33554  1.0000
  C   C41       1.0  0.86508  0.39167  0.33744  1.0000
  C   C42       1.0  0.89325  0.44718  0.33835  1.0000
  C   C43       1.0  0.86508  0.47453  0.33740  1.0000
  C   C44       1.0  0.80964  0.44674  0.33553  1.0000
  H   H14       1.0  0.49078  0.12097  0.33885  1.0000
  H   H15       1.0  0.53749  0.21484  0.33538  1.0000
  H   H16       1.0  0.63469  0.12097  0.33886  1.0000
  H   H17       1.0  0.68184  0.21484  0.33539  1.0000
  H   H18       1.0  0.79077  0.32378  0.33538  1.0000
  H   H19       1.0  0.88464  0.37093  0.33888  1.0000
  H   H20       1.0  0.79077  0.46812  0.33538  1.0000
  H   H21       1.0  0.88464  0.51483  0.33887  1.0000
  H   H22       1.0  0.68183  0.46812  0.33537  1.0000
  H   H23       1.0  0.63468  0.51483  0.33884  1.0000
  H   H24       1.0  0.49078  0.37093  0.33886  1.0000
  H   H25       1.0  0.53749  0.32378  0.33539  1.0000
  C   C45       1.0  0.53074  0.47488  0.34379  1.0000
  C   C46       1.0  0.51756  0.48805  0.42684  1.0000
  C   C47       1.0  0.48971  0.51590  0.42975  1.0000
  C   C48       1.0  0.47602  0.52959  0.34674  1.0000
  N   N14       1.0  0.47726  0.52835  0.51035  1.0000
  H   H26       1.0  0.48716  0.51845  0.56616  1.0000
  H   H27       1.0  0.45818  0.54743  0.51486  1.0000
  H   H28       1.0  0.52823  0.47737  0.48505  1.0000
  C   C49       1.0  0.53074  0.05698  0.34380  1.0000
  C   C50       1.0  0.51756  0.03063  0.42685  1.0000
  C   C51       1.0  0.48971  0.97493  0.42975  1.0000
  C   C52       1.0  0.47602  0.94754  0.34673  1.0000
  N   N15       1.0  0.47726  0.95003  0.51034  1.0000
  H   H29       1.0  0.48716  0.96983  0.56616  1.0000
  H   H30       1.0  0.45818  0.91187  0.51484  1.0000
  H   H31       1.0  0.52823  0.05197  0.48505  1.0000
  C   C53       1.0  0.94863  0.47487  0.34381  1.0000
  C   C54       1.0  0.97499  0.48805  0.42686  1.0000
  H   H32       1.0  0.09376  0.54744  0.51482  1.0000
  H   H33       1.0  0.95365  0.47738  0.48506  1.0000
