data_image0
_chemical_formula_structural       C13H9C13H9C13H9C13H9C8H3NO2C8H3NO2C8H3NO2C2H2C2H2C2H2C2H2C2H2C2H2C17H12C17H12C17H12C17H12C2H2C2H2C2H2C2H2C2H2C2H2C8H3NO2C8H3NO2C8H3NO2
_chemical_formula_sum              "C192 H126 N6 O12"
_cell_length_a       69.0389
_cell_length_b       69.0222
_cell_length_c       14.9595
_cell_angle_alpha    90
_cell_angle_beta     90
_cell_angle_gamma    120.004

_space_group_name_H-M_alt    "P 1"
_space_group_IT_number       1

loop_
  _space_group_symop_operation_xyz
  'x, y, z'

loop_
  _atom_site_type_symbol
  _atom_site_label
  _atom_site_symmetry_multiplicity
  _atom_site_fract_x
  _atom_site_fract_y
  _atom_site_fract_z
  _atom_site_occupancy
  C   C1        1.0  0.92627  0.86560  0.33287  1.0000
  C   C2        1.0  0.94862  0.91344  0.33072  1.0000
  C   C3        1.0  0.92555  0.90046  0.31063  1.0000
  C   C4        1.0  0.91454  0.87692  0.31193  1.0000
  C   C5        1.0  0.95919  0.93671  0.32505  1.0000
  C   C6        1.0  0.05608  0.02330  0.32560  1.0000
  C   C7        1.0  0.09232  0.02588  0.31157  1.0000
  C   C8        1.0  0.12717  0.06148  0.33351  1.0000
  C   C9        1.0  0.11585  0.03840  0.31287  1.0000
  C   C10       1.0  0.96961  0.03378  0.32589  1.0000
  C   C11       1.0  0.93370  0.03247  0.35122  1.0000
  C   C12       1.0  0.93132  0.06657  0.33376  1.0000
  C   C13       1.0  0.92116  0.04347  0.35299  1.0000
  H   H1        1.0  0.89782  0.86810  0.29734  1.0000
  H   H2        1.0  0.91649  0.90803  0.29458  1.0000
  H   H3        1.0  0.92562  0.01560  0.36286  1.0000
  H   H4        1.0  0.08475  0.00924  0.29572  1.0000
  H   H5        1.0  0.12467  0.03050  0.29846  1.0000
  H   H6        1.0  0.90438  0.03432  0.36601  1.0000
  H   H7        1.0  0.04973  0.01237  0.27546  1.0000
  H   H8        1.0  0.95465  0.94308  0.27488  1.0000
  H   H9        1.0  0.98065  0.03849  0.27614  1.0000
  C   C14       1.0  0.50820  0.34337  0.34521  1.0000
  C   C15       1.0  0.47796  0.29659  0.32900  1.0000
  C   C16       1.0  0.50098  0.30483  0.34398  1.0000
  C   C17       1.0  0.51589  0.32792  0.35228  1.0000
  C   C18       1.0  0.46403  0.27377  0.31793  1.0000
  C   C19       1.0  0.36588  0.18845  0.32763  1.0000
  C   C20       1.0  0.32981  0.18630  0.31660  1.0000
  C   C21       1.0  0.29471  0.15074  0.33798  1.0000
  C   C22       1.0  0.30628  0.17394  0.31875  1.0000
  C   C23       1.0  0.45392  0.17921  0.33604  1.0000
  C   C24       1.0  0.49294  0.19008  0.31706  1.0000
  C   C25       1.0  0.50526  0.16241  0.33067  1.0000
  C   C26       1.0  0.50997  0.18457  0.31478  1.0000
  H   H10       1.0  0.53253  0.33336  0.36151  1.0000
  H   H11       1.0  0.50717  0.29412  0.34836  1.0000
  H   H12       1.0  0.49703  0.20629  0.30480  1.0000
  H   H13       1.0  0.33748  0.20303  0.30223  1.0000
  H   H14       1.0  0.29766  0.18216  0.30676  1.0000
  H   H15       1.0  0.52598  0.19709  0.30248  1.0000
  H   H16       1.0  0.37224  0.19929  0.27724  1.0000
  H   H17       1.0  0.46818  0.26646  0.27008  1.0000
  H   H18       1.0  0.44269  0.17313  0.28701  1.0000
  C   C27       1.0  0.64926  0.16551  0.34515  1.0000
  C   C28       1.0  0.69605  0.18209  0.32910  1.0000
  C   C29       1.0  0.68778  0.19687  0.34357  1.0000
  C   C30       1.0  0.66470  0.18868  0.35180  1.0000
  C   C31       1.0  0.71887  0.19101  0.31820  1.0000
  C   C32       1.0  0.80417  0.17811  0.32742  1.0000
  C   C33       1.0  0.80635  0.14419  0.31616  1.0000
  C   C34       1.0  0.84190  0.14466  0.33774  1.0000
  C   C35       1.0  0.81872  0.13304  0.31833  1.0000
  C   C36       1.0  0.81350  0.27542  0.33603  1.0000
  C   C37       1.0  0.80262  0.30356  0.31675  1.0000
  C   C38       1.0  0.83027  0.34356  0.33059  1.0000
  C   C39       1.0  0.80813  0.32610  0.31446  1.0000
  H   H19       1.0  0.65923  0.19987  0.36073  1.0000
  H   H20       1.0  0.69847  0.21378  0.34769  1.0000
  H   H21       1.0  0.78643  0.29144  0.30434  1.0000
  H   H22       1.0  0.78963  0.13514  0.30167  1.0000
  H   H23       1.0  0.81052  0.11619  0.30622  1.0000
  H   H24       1.0  0.79562  0.32959  0.30200  1.0000
  H   H25       1.0  0.79334  0.17364  0.27701  1.0000
  H   H26       1.0  0.72619  0.20243  0.27026  1.0000
  H   H27       1.0  0.81952  0.27025  0.28684  1.0000
  C   C40       1.0  0.82713  0.48448  0.34529  1.0000
  C   C41       1.0  0.81052  0.51468  0.32930  1.0000
  C   C42       1.0  0.79576  0.49162  0.34400  1.0000
  C   C43       1.0  0.80397  0.47675  0.35220  1.0000
  C   C44       1.0  0.80159  0.52856  0.31841  1.0000
  C   C45       1.0  0.81456  0.62684  0.32773  1.0000
  C   C46       1.0  0.84849  0.66292  0.31678  1.0000
  C   C47       1.0  0.84802  0.69803  0.33791  1.0000
  C   C48       1.0  0.85965  0.68646  0.31885  1.0000
  C   C49       1.0  0.71722  0.53881  0.33597  1.0000
  C   C50       1.0  0.68906  0.49978  0.31693  1.0000
  C   C51       1.0  0.64908  0.48746  0.33063  1.0000
  C   C52       1.0  0.66653  0.48275  0.31466  1.0000
  H   H28       1.0  0.79279  0.46009  0.36125  1.0000
  H   H29       1.0  0.77886  0.48540  0.34828  1.0000
  H   H30       1.0  0.70118  0.49569  0.30462  1.0000
  H   H31       1.0  0.85754  0.65525  0.30253  1.0000
  H   H32       1.0  0.87650  0.69509  0.30696  1.0000
  H   H33       1.0  0.66303  0.46674  0.30232  1.0000
  H   H34       1.0  0.81905  0.62048  0.27734  1.0000
  H   H35       1.0  0.79013  0.52440  0.27056  1.0000
  H   H36       1.0  0.72238  0.55004  0.28691  1.0000
  C   C53       1.0  0.15099  0.07426  0.33228  1.0000
  C   C54       1.0  0.16349  0.07644  0.25371  1.0000
  C   C55       1.0  0.18716  0.08922  0.25646  1.0000
  C   C56       1.0  0.19887  0.09991  0.33560  1.0000
  C   C57       1.0  0.22278  0.11272  0.33688  1.0000
  C   C58       1.0  0.23477  0.12814  0.26784  1.0000
  C   C59       1.0  0.25829  0.14067  0.26859  1.0000
  C   C60       1.0  0.27079  0.13813  0.33797  1.0000
  H   H37       1.0  0.22645  0.13066  0.21665  1.0000
  H   H38       1.0  0.26623  0.15142  0.21672  1.0000
  H   H39       1.0  0.19591  0.09044  0.19951  1.0000
  N   N1        1.0  0.15216  0.06638  0.17303  1.0000
  O   O1        1.0  0.15742  0.05253  0.14418  1.0000
  O   O2        1.0  0.15625  0.08075  0.11340  1.0000
  C   C61       1.0  0.91851  0.07758  0.33247  1.0000
  C   C62       1.0  0.91649  0.08806  0.25408  1.0000
  C   C63       1.0  0.90366  0.09890  0.25674  1.0000
  C   C64       1.0  0.89280  0.09974  0.33565  1.0000
  C   C65       1.0  0.87996  0.11080  0.33686  1.0000
  C   C66       1.0  0.86462  0.10743  0.26758  1.0000
  C   C67       1.0  0.85207  0.11840  0.26827  1.0000
  C   C68       1.0  0.85452  0.13337  0.33781  1.0000
  H   H40       1.0  0.86218  0.09665  0.21622  1.0000
  H   H41       1.0  0.84138  0.11563  0.21622  1.0000
  H   H42       1.0  0.90255  0.10655  0.19993  1.0000
  N   N2        1.0  0.92676  0.08700  0.17366  1.0000
  O   O3        1.0  0.94065  0.10619  0.14566  1.0000
  O   O4        1.0  0.91255  0.07684  0.11339  1.0000
  C   C69       1.0  0.91523  0.84177  0.33172  1.0000
  C   C70       1.0  0.90496  0.82926  0.25313  1.0000
  C   C71       1.0  0.89407  0.80558  0.25596  1.0000
  C   C72       1.0  0.89300  0.79388  0.33521  1.0000
  C   C73       1.0  0.88191  0.76997  0.33656  1.0000
  C   C74       1.0  0.88538  0.75797  0.26769  1.0000
  C   C75       1.0  0.87438  0.73444  0.26851  1.0000
  C   C76       1.0  0.85931  0.72195  0.33782  1.0000
  H   H43       1.0  0.89623  0.76629  0.21651  1.0000
  H   H44       1.0  0.87722  0.72650  0.21673  1.0000
  H   H45       1.0  0.88656  0.79681  0.19900  1.0000
  N   N3        1.0  0.90627  0.84057  0.17235  1.0000
  O   O5        1.0  0.88718  0.83530  0.14330  1.0000
  O   O6        1.0  0.91658  0.83647  0.11291  1.0000
  C   C77       1.0  0.59147  0.14688  0.26530  1.0000
  C   C78       1.0  0.61330  0.15027  0.26933  1.0000
  H   H46       1.0  0.58317  0.14226  0.20553  1.0000
  H   H47       1.0  0.62034  0.14846  0.21203  1.0000
  C   C79       1.0  0.53895  0.16549  0.25922  1.0000
  C   C80       1.0  0.55763  0.16247  0.26137  1.0000
  H   H48       1.0  0.53753  0.17435  0.20725  1.0000
  H   H49       1.0  0.56942  0.16984  0.21226  1.0000
  C   C81       1.0  0.84579  0.44533  0.26530  1.0000
  C   C82       1.0  0.84239  0.46377  0.26937  1.0000
  H   H50       1.0  0.85042  0.44166  0.20552  1.0000
  H   H51       1.0  0.84419  0.47263  0.21208  1.0000
  C   C83       1.0  0.82721  0.37419  0.25909  1.0000
  C   C84       1.0  0.83021  0.39588  0.26133  1.0000
  H   H52       1.0  0.81839  0.36393  0.20707  1.0000
  H   H53       1.0  0.82289  0.40033  0.21207  1.0000
  C   C85       1.0  0.54735  0.40121  0.26540  1.0000
  C   C86       1.0  0.52890  0.37938  0.26943  1.0000
  H   H54       1.0  0.55102  0.40951  0.20562  1.0000
  H   H55       1.0  0.52007  0.37232  0.21207  1.0000
  C   C87       1.0  0.61846  0.45378  0.25913  1.0000
  C   C88       1.0  0.59678  0.43508  0.26133  1.0000
  H   H56       1.0  0.62873  0.45520  0.20715  1.0000
  H   H57       1.0  0.59235  0.42330  0.21216  1.0000
  C   C89       1.0  0.94929  0.87851  0.35359  1.0000
  C   C90       1.0  0.96033  0.90206  0.35186  1.0000
  C   C91       1.0  0.97438  0.95098  0.38389  1.0000
  C   C92       1.0  0.98440  0.97412  0.37789  1.0000
  C   C93       1.0  0.97145  0.98481  0.37851  1.0000
  C   C94       1.0  0.98167  0.00840  0.37808  1.0000
  C   C95       1.0  0.00530  0.02135  0.37877  1.0000
  C   C96       1.0  0.01866  0.01113  0.37817  1.0000
  C   C97       1.0  0.00798  0.98749  0.37860  1.0000
  C   C98       1.0  0.04180  0.02426  0.38427  1.0000
  C   C99       1.0  0.07934  0.03599  0.33137  1.0000
  C   C100      1.0  0.09072  0.05910  0.35220  1.0000
  C   C101      1.0  0.11427  0.07161  0.35400  1.0000
  C   C102      1.0  0.96853  0.01840  0.38412  1.0000
  C   C103      1.0  0.95688  0.04431  0.33166  1.0000
  C   C104      1.0  0.96702  0.06746  0.31307  1.0000
  C   C105      1.0  0.95446  0.07843  0.31435  1.0000
  H   H58       1.0  0.95836  0.87085  0.36781  1.0000
  H   H59       1.0  0.97714  0.91081  0.36464  1.0000
  H   H60       1.0  0.01751  0.97991  0.38105  1.0000
  H   H61       1.0  0.95434  0.97527  0.38086  1.0000
  H   H62       1.0  0.01288  0.03846  0.38132  1.0000
  H   H63       1.0  0.12193  0.08836  0.36790  1.0000
  H   H64       1.0  0.08198  0.06718  0.36475  1.0000
  H   H65       1.0  0.96238  0.09521  0.30083  1.0000
  H   H66       1.0  0.98370  0.07661  0.29813  1.0000
  H   H67       1.0  0.04787  0.03498  0.43506  1.0000
  H   H68       1.0  0.97900  0.94489  0.43473  1.0000
  H   H69       1.0  0.95768  0.01362  0.43450  1.0000
  C   C106      1.0  0.48521  0.33517  0.32918  1.0000
  C   C107      1.0  0.47018  0.31198  0.32192  1.0000
  C   C108      1.0  0.44794  0.26086  0.37662  1.0000
  C   C109      1.0  0.43745  0.23763  0.37568  1.0000
  C   C110      1.0  0.45036  0.22696  0.38139  1.0000
  C   C111      1.0  0.44023  0.20343  0.38567  1.0000
  C   C112      1.0  0.41663  0.19042  0.38574  1.0000
  C   C113      1.0  0.40325  0.20063  0.38096  1.0000
  C   C114      1.0  0.41389  0.22428  0.37705  1.0000
  C   C115      1.0  0.38010  0.18752  0.38671  1.0000
  C   C116      1.0  0.34264  0.17592  0.33383  1.0000
  C   C117      1.0  0.33115  0.15272  0.35277  1.0000
  C   C118      1.0  0.30761  0.14040  0.35537  1.0000
  C   C119      1.0  0.45393  0.19413  0.39384  1.0000
  C   C120      1.0  0.47061  0.17359  0.33598  1.0000
  C   C121      1.0  0.46570  0.15140  0.35142  1.0000
  C   C122      1.0  0.48285  0.14595  0.34968  1.0000
  H   H70       1.0  0.47926  0.34603  0.32265  1.0000
  H   H71       1.0  0.45364  0.30646  0.30960  1.0000
  H   H72       1.0  0.40440  0.23190  0.37626  1.0000
  H   H73       1.0  0.46748  0.23655  0.38342  1.0000
  H   H74       1.0  0.40914  0.17336  0.39087  1.0000
  H   H75       1.0  0.29994  0.12358  0.36745  1.0000
  H   H76       1.0  0.33981  0.14447  0.36333  1.0000
  H   H77       1.0  0.47874  0.12970  0.36068  1.0000
  H   H78       1.0  0.44965  0.13907  0.36452  1.0000
  H   H79       1.0  0.37395  0.17688  0.43774  1.0000
  H   H80       1.0  0.44451  0.26797  0.42745  1.0000
  H   H81       1.0  0.46600  0.20083  0.43975  1.0000
  C   C123      1.0  0.65749  0.15072  0.32958  1.0000
  C   C124      1.0  0.68068  0.15890  0.32235  1.0000
  C   C125      1.0  0.73178  0.18778  0.37672  1.0000
  C   C126      1.0  0.75501  0.20051  0.37575  1.0000
  C   C127      1.0  0.76568  0.22409  0.38139  1.0000
  C   C128      1.0  0.78921  0.23749  0.38559  1.0000
  C   C129      1.0  0.80221  0.22688  0.38563  1.0000
  C   C130      1.0  0.79199  0.20329  0.38090  1.0000
  C   C131      1.0  0.76834  0.19029  0.37700  1.0000
  C   C132      1.0  0.80508  0.19323  0.38660  1.0000
  C   C133      1.0  0.81671  0.16741  0.33355  1.0000
  C   C134      1.0  0.83989  0.17911  0.35268  1.0000
  C   C135      1.0  0.85222  0.16790  0.35525  1.0000
  C   C136      1.0  0.79852  0.26049  0.39364  1.0000
  C   C137      1.0  0.81910  0.29773  0.33590  1.0000
  C   C138      1.0  0.84128  0.31501  0.35159  1.0000
  C   C139      1.0  0.84672  0.33761  0.34984  1.0000
  H   H82       1.0  0.64664  0.13390  0.32340  1.0000
  H   H83       1.0  0.68622  0.14788  0.31049  1.0000
  H   H84       1.0  0.76072  0.17317  0.37628  1.0000
  H   H85       1.0  0.75610  0.23164  0.38346  1.0000
  H   H86       1.0  0.81927  0.23645  0.39066  1.0000
  H   H87       1.0  0.86903  0.17706  0.36755  1.0000
  H   H88       1.0  0.84813  0.19602  0.36337  1.0000
  H   H89       1.0  0.86295  0.34974  0.36100  1.0000
  H   H90       1.0  0.85360  0.31129  0.36487  1.0000
  H   H91       1.0  0.81571  0.19771  0.43765  1.0000
  H   H92       1.0  0.72468  0.17723  0.42753  1.0000
  H   H93       1.0  0.79188  0.26591  0.43965  1.0000
  C   C140      1.0  0.84190  0.50750  0.32946  1.0000
  C   C141      1.0  0.83371  0.52250  0.32231  1.0000
  C   C142      1.0  0.80481  0.54473  0.37684  1.0000
  C   C143      1.0  0.79210  0.55523  0.37577  1.0000
  C   C144      1.0  0.76853  0.54234  0.38141  1.0000
  C   C145      1.0  0.75513  0.55248  0.38562  1.0000
  C   C146      1.0  0.76574  0.57609  0.38568  1.0000
  C   C147      1.0  0.78933  0.58946  0.38098  1.0000
  C   C148      1.0  0.80232  0.57880  0.37713  1.0000
  C   C149      1.0  0.79939  0.61262  0.38675  1.0000
  C   C150      1.0  0.82527  0.65008  0.33388  1.0000
  C   C151      1.0  0.81355  0.66157  0.35264  1.0000
  C   C152      1.0  0.82478  0.68512  0.35521  1.0000
  C   C153      1.0  0.73213  0.53878  0.39371  1.0000
  C   C154      1.0  0.69491  0.52211  0.33591  1.0000
  C   C155      1.0  0.67764  0.52703  0.35145  1.0000
  C   C156      1.0  0.65504  0.50987  0.34972  1.0000
  H   H94       1.0  0.85870  0.51347  0.32303  1.0000
  H   H95       1.0  0.84470  0.53905  0.31018  1.0000
  H   H96       1.0  0.81944  0.58829  0.37644  1.0000
  H   H97       1.0  0.76098  0.52521  0.38346  1.0000
  H   H98       1.0  0.75618  0.58359  0.39076  1.0000
  H   H99       1.0  0.81561  0.69278  0.36712  1.0000
  H   H100      1.0  0.79664  0.65290  0.36311  1.0000
  H   H101      1.0  0.64291  0.51399  0.36076  1.0000
  H   H102      1.0  0.68137  0.54308  0.36458  1.0000
  H   H103      1.0  0.79490  0.61877  0.43773  1.0000
  H   H104      1.0  0.81544  0.54825  0.42741  1.0000
  H   H105      1.0  0.72674  0.52673  0.43969  1.0000
  C   C157      1.0  0.18613  0.09757  0.41302  1.0000
  C   C158      1.0  0.16262  0.08511  0.41127  1.0000
  H   H106      1.0  0.19387  0.10528  0.47139  1.0000
  H   H107      1.0  0.15403  0.08378  0.46886  1.0000
  C   C159      1.0  0.25881  0.12264  0.40683  1.0000
  C   C160      1.0  0.23526  0.11027  0.40658  1.0000
  H   H108      1.0  0.26715  0.12042  0.45879  1.0000
  H   H109      1.0  0.22731  0.09910  0.45723  1.0000
  C   C161      1.0  0.89499  0.08918  0.41291  1.0000
  C   C162      1.0  0.90748  0.07816  0.41120  1.0000
  H   H110      1.0  0.88715  0.08908  0.47109  1.0000
  H   H111      1.0  0.90870  0.07079  0.46867  1.0000
  C   C163      1.0  0.86993  0.13683  0.40694  1.0000
  C   C164      1.0  0.88230  0.12565  0.40678  1.0000
  H   H112      1.0  0.87207  0.14732  0.45902  1.0000
  H   H113      1.0  0.89341  0.12882  0.45761  1.0000
  C   C165      1.0  0.90337  0.80665  0.41264  1.0000
  C   C166      1.0  0.91441  0.83017  0.41081  1.0000
  H   H114      1.0  0.90330  0.79892  0.47110  1.0000
  H   H115      1.0  0.92163  0.83876  0.46843  1.0000
  C   C167      1.0  0.85576  0.73394  0.40653  1.0000
  C   C168      1.0  0.86696  0.75749  0.40622  1.0000
  H   H116      1.0  0.84520  0.72561  0.45847  1.0000
  H   H117      1.0  0.86371  0.76545  0.45677  1.0000
  C   C169      1.0  0.62599  0.15797  0.34876  1.0000
  C   C170      1.0  0.61603  0.16119  0.42614  1.0000
  C   C171      1.0  0.59393  0.15745  0.42117  1.0000
  C   C172      1.0  0.58157  0.15095  0.34047  1.0000
  C   C173      1.0  0.56100  0.15111  0.33313  1.0000
  C   C174      1.0  0.54450  0.14217  0.40097  1.0000
  C   C175      1.0  0.52569  0.14505  0.39850  1.0000
  C   C176      1.0  0.52285  0.15722  0.32856  1.0000
  H   H118      1.0  0.54633  0.13394  0.45429  1.0000
  H   H119      1.0  0.51469  0.13918  0.45087  1.0000
  H   H120      1.0  0.58747  0.16103  0.47617  1.0000
  N   N4        1.0  0.62851  0.16850  0.50650  1.0000
  O   O7        1.0  0.63103  0.18697  0.53194  1.0000
  O   O8        1.0  0.61921  0.15443  0.56805  1.0000
  C   C177      1.0  0.83468  0.46875  0.34880  1.0000
  C   C178      1.0  0.83147  0.45556  0.42614  1.0000
  C   C179      1.0  0.83521  0.43719  0.42112  1.0000
  C   C180      1.0  0.84173  0.43136  0.34043  1.0000
  C   C181      1.0  0.84157  0.41062  0.33307  1.0000
  C   C182      1.0  0.85049  0.40304  0.40094  1.0000
  C   C183      1.0  0.84762  0.38135  0.39845  1.0000
  C   C184      1.0  0.83546  0.36635  0.32850  1.0000
  H   H121      1.0  0.85869  0.41309  0.45431  1.0000
  H   H122      1.0  0.85345  0.37621  0.45092  1.0000
  H   H123      1.0  0.83164  0.42716  0.47614  1.0000
  N   N5        1.0  0.82417  0.46072  0.50655  1.0000
  O   O9        1.0  0.80570  0.44476  0.53201  1.0000
  O   O10       1.0  0.83823  0.46548  0.56807  1.0000
  C   C185      1.0  0.52395  0.36666  0.34878  1.0000
  C   C186      1.0  0.53714  0.37662  0.42615  1.0000
  C   C187      1.0  0.55548  0.39874  0.42120  1.0000
  C   C188      1.0  0.56132  0.41111  0.34054  1.0000
  C   C189      1.0  0.58206  0.43169  0.33317  1.0000
  C   C190      1.0  0.58962  0.44819  0.40101  1.0000
  C   C191      1.0  0.61130  0.46703  0.39847  1.0000
  C   C192      1.0  0.62630  0.46986  0.32854  1.0000
  H   H124      1.0  0.57957  0.44634  0.45441  1.0000
  H   H125      1.0  0.61644  0.47799  0.45096  1.0000
  H   H126      1.0  0.56553  0.40519  0.47617  1.0000
  N   N6        1.0  0.53198  0.36414  0.50651  1.0000
  O   O11       1.0  0.54795  0.36164  0.53192  1.0000
  O   O12       1.0  0.52721  0.37342  0.56808  1.0000
