data_image0
_chemical_formula_structural       C6H6N2C6H6N2C2HC6H3CHC2HC6H3CHC2HC6H3CHC12H5CNC2NHN2C12H5CNC2NHN2C2NC2NHCH3CHC2NC2NHCH3CHC2NC2NHCH3CH
_chemical_formula_sum              "C87 H54 N18"
_cell_length_a       43.8916
_cell_length_b       43.8916
_cell_length_c       15.0007
_cell_angle_alpha    90
_cell_angle_beta     90
_cell_angle_gamma    120

_space_group_name_H-M_alt    "P 1"
_space_group_IT_number       1

loop_
  _space_group_symop_operation_xyz
  'x, y, z'

loop_
  _atom_site_type_symbol
  _atom_site_label
  _atom_site_symmetry_multiplicity
  _atom_site_fract_x
  _atom_site_fract_y
  _atom_site_fract_z
  _atom_site_occupancy
  C   C1        1.0  0.36929  0.74044  0.33542  1.0000
  C   C2        1.0  0.20283  0.62726  0.34796  1.0000
  C   C3        1.0  0.23982  0.64616  0.34677  1.0000
  C   C4        1.0  0.35121  0.75941  0.32443  1.0000
  C   C5        1.0  0.36933  0.79643  0.32471  1.0000
  C   C6        1.0  0.40601  0.81568  0.33786  1.0000
  H   H1        1.0  0.18957  0.64077  0.35506  1.0000
  H   H2        1.0  0.25216  0.67288  0.35452  1.0000
  H   H3        1.0  0.32456  0.74652  0.31511  1.0000
  H   H4        1.0  0.35545  0.80927  0.31604  1.0000
  H   H5        1.0  0.35917  0.54879  0.35518  1.0000
  H   H6        1.0  0.32706  0.57926  0.35460  1.0000
  N   N1        1.0  0.31526  0.68382  0.33490  1.0000
  N   N2        1.0  0.42188  0.85057  0.33554  1.0000
  C   C7        1.0  0.62994  0.25954  0.34074  1.0000
  C   C8        1.0  0.79669  0.37162  0.32165  1.0000
  C   C9        1.0  0.75970  0.35299  0.32395  1.0000
  C   C10       1.0  0.64740  0.24022  0.35639  1.0000
  C   C11       1.0  0.62898  0.20320  0.35531  1.0000
  C   C12       1.0  0.59269  0.18438  0.33641  1.0000
  H   H7        1.0  0.80977  0.35819  0.30995  1.0000
  H   H8        1.0  0.74707  0.32648  0.31237  1.0000
  H   H9        1.0  0.67378  0.25286  0.36983  1.0000
  H   H10       1.0  0.64236  0.19007  0.36734  1.0000
  H   H11       1.0  0.64177  0.45157  0.30980  1.0000
  H   H12       1.0  0.67347  0.42058  0.31227  1.0000
  N   N3        1.0  0.68434  0.31578  0.34164  1.0000
  N   N4        1.0  0.57629  0.14949  0.33729  1.0000
  C   C13       1.0  0.47145  0.51209  0.26089  1.0000
  C   C14       1.0  0.45031  0.52730  0.27763  1.0000
  H   H13       1.0  0.43651  0.52999  0.22602  1.0000
  C   C15       1.0  0.51069  0.49217  0.31967  1.0000
  C   C16       1.0  0.55286  0.46123  0.29489  1.0000
  C   C17       1.0  0.53543  0.46591  0.22141  1.0000
  C   C18       1.0  0.51396  0.48116  0.23286  1.0000
  C   C19       1.0  0.49589  0.48573  0.16091  1.0000
  C   C20       1.0  0.47471  0.50098  0.17487  1.0000
  H   H14       1.0  0.49791  0.47791  0.09796  1.0000
  H   H15       1.0  0.46177  0.50393  0.12177  1.0000
  H   H16       1.0  0.53818  0.45795  0.15916  1.0000
  C   C21       1.0  0.57439  0.44696  0.28303  1.0000
  H   H17       1.0  0.59018  0.45421  0.23009  1.0000
  C   C22       1.0  0.48785  0.95936  0.26081  1.0000
  C   C23       1.0  0.47263  0.92300  0.27751  1.0000
  H   H18       1.0  0.46994  0.90652  0.22588  1.0000
  C   C24       1.0  0.50777  0.01851  0.31966  1.0000
  C   C25       1.0  0.53872  0.09162  0.29497  1.0000
  C   C26       1.0  0.53404  0.06953  0.22147  1.0000
  C   C27       1.0  0.51880  0.03281  0.23287  1.0000
  C   C28       1.0  0.51423  0.01019  0.16089  1.0000
  C   C29       1.0  0.49898  0.97376  0.17480  1.0000
  H   H19       1.0  0.52206  0.02004  0.09796  1.0000
  H   H20       1.0  0.49602  0.95786  0.12169  1.0000
  H   H21       1.0  0.54202  0.08025  0.15923  1.0000
  C   C30       1.0  0.55300  0.12743  0.28315  1.0000
  H   H22       1.0  0.54576  0.13598  0.23021  1.0000
  C   C31       1.0  0.04059  0.52849  0.26087  1.0000
  C   C32       1.0  0.07694  0.54964  0.27760  1.0000
  H   H23       1.0  0.09343  0.56343  0.22598  1.0000
  C   C33       1.0  0.98144  0.48925  0.31967  1.0000
  C   C34       1.0  0.90833  0.44710  0.29493  1.0000
  C   C35       1.0  0.93043  0.46452  0.22144  1.0000
  C   C36       1.0  0.96714  0.48598  0.23287  1.0000
  C   C37       1.0  0.98978  0.50405  0.16091  1.0000
  C   C38       1.0  0.02621  0.52523  0.17485  1.0000
  H   H24       1.0  0.97994  0.50204  0.09798  1.0000
  H   H25       1.0  0.04211  0.53818  0.12175  1.0000
  H   H26       1.0  0.91972  0.46178  0.15920  1.0000
  C   C39       1.0  0.87252  0.42557  0.28308  1.0000
  H   H27       1.0  0.86398  0.40976  0.23018  1.0000
  C   C40       1.0  0.25950  0.62883  0.33548  1.0000
  C   C41       1.0  0.37110  0.63064  0.33554  1.0000
  C   C42       1.0  0.24052  0.59178  0.32453  1.0000
  C   C43       1.0  0.20350  0.57288  0.32485  1.0000
  C   C44       1.0  0.18425  0.59030  0.33802  1.0000
  C   C45       1.0  0.42439  0.79710  0.34789  1.0000
  C   C46       1.0  0.40630  0.76012  0.34672  1.0000
  C   C47       1.0  0.40816  0.64872  0.32459  1.0000
  C   C48       1.0  0.42706  0.63060  0.32491  1.0000
  C   C49       1.0  0.40963  0.59393  0.33812  1.0000
  C   C50       1.0  0.37267  0.57555  0.34805  1.0000
  C   C51       1.0  0.35378  0.59364  0.34685  1.0000
  H   H28       1.0  0.19067  0.54616  0.31617  1.0000
  H   H29       1.0  0.42067  0.74778  0.35450  1.0000
  H   H30       1.0  0.45115  0.81037  0.35498  1.0000
  H   H31       1.0  0.42192  0.67537  0.31518  1.0000
  H   H32       1.0  0.45377  0.64448  0.31621  1.0000
  C   C52       1.0  0.35189  0.64894  0.33490  1.0000
  N   N5        1.0  0.36852  0.68468  0.33493  1.0000
  C   C53       1.0  0.35100  0.70293  0.33484  1.0000
  C   C54       1.0  0.29701  0.64804  0.33488  1.0000
  N   N6        1.0  0.31612  0.63142  0.33496  1.0000
  H   H33       1.0  0.25341  0.57801  0.31518  1.0000
  N   N7        1.0  0.42864  0.57805  0.33574  1.0000
  N   N8        1.0  0.14937  0.57130  0.33565  1.0000
  C   C55       1.0  0.74041  0.37039  0.34070  1.0000
  C   C56       1.0  0.62956  0.37001  0.34065  1.0000
  C   C57       1.0  0.75972  0.40717  0.35634  1.0000
  C   C58       1.0  0.79674  0.42577  0.35527  1.0000
  C   C59       1.0  0.81557  0.40831  0.33633  1.0000
  C   C60       1.0  0.57489  0.20326  0.32173  1.0000
  C   C61       1.0  0.59325  0.24025  0.32399  1.0000
  C   C62       1.0  0.59278  0.35255  0.35630  1.0000
  C   C63       1.0  0.57419  0.37097  0.35524  1.0000
  C   C64       1.0  0.59164  0.40725  0.33619  1.0000
  C   C65       1.0  0.62833  0.42506  0.32155  1.0000
  C   C66       1.0  0.64696  0.40670  0.32385  1.0000
  H   H34       1.0  0.80987  0.45228  0.36728  1.0000
  H   H35       1.0  0.57937  0.25288  0.31241  1.0000
  H   H36       1.0  0.54837  0.19018  0.31003  1.0000
  H   H37       1.0  0.57904  0.32618  0.36983  1.0000
  H   H38       1.0  0.54767  0.35759  0.36725  1.0000
  C   C67       1.0  0.64841  0.35136  0.34170  1.0000
  N   N9        1.0  0.63139  0.31561  0.34162  1.0000
  C   C68       1.0  0.64859  0.29704  0.34174  1.0000
  C   C69       1.0  0.70291  0.35154  0.34172  1.0000
  N   N10       1.0  0.68417  0.36855  0.34160  1.0000
  H   H39       1.0  0.74709  0.42091  0.36980  1.0000
  N   N11       1.0  0.57315  0.42365  0.33712  1.0000
  N   N12       1.0  0.85045  0.42680  0.33720  1.0000
  C   C70       1.0  0.44738  0.53818  0.36452  1.0000
  C   C71       1.0  0.46635  0.53343  0.43483  1.0000
  N   N13       1.0  0.48631  0.51855  0.41578  1.0000
  C   C72       1.0  0.48963  0.50770  0.33344  1.0000
  C   C73       1.0  0.54844  0.47266  0.37950  1.0000
  N   N14       1.0  0.52797  0.48751  0.38876  1.0000
  H   H40       1.0  0.56082  0.47037  0.43470  1.0000
  C   C74       1.0  0.46690  0.54376  0.52912  1.0000
  H   H41       1.0  0.45150  0.55662  0.54075  1.0000
  H   H42       1.0  0.49397  0.56197  0.54919  1.0000
  H   H43       1.0  0.45641  0.52043  0.57140  1.0000
  C   C75       1.0  0.42476  0.55100  0.37869  1.0000
  H   H44       1.0  0.40551  0.53896  0.42307  1.0000
  C   C76       1.0  0.46173  0.90918  0.36437  1.0000
  C   C77       1.0  0.46650  0.93289  0.43471  1.0000
  N   N15       1.0  0.48138  0.96773  0.41571  1.0000
  C   C78       1.0  0.49223  0.98191  0.33338  1.0000
  C   C79       1.0  0.52729  0.07576  0.37956  1.0000
  N   N16       1.0  0.51243  0.04044  0.38878  1.0000
  H   H45       1.0  0.52957  0.09042  0.43479  1.0000
  C   C80       1.0  0.45616  0.92309  0.52899  1.0000
  H   H46       1.0  0.44328  0.89482  0.54059  1.0000
  H   H47       1.0  0.43795  0.93195  0.54908  1.0000
  H   H48       1.0  0.47948  0.93591  0.57129  1.0000
  C   C81       1.0  0.44893  0.87374  0.37850  1.0000
  H   H49       1.0  0.46097  0.86653  0.42285  1.0000
  C   C82       1.0  0.09075  0.55256  0.36448  1.0000
  C   C83       1.0  0.06704  0.53359  0.43479  1.0000
  N   N17       1.0  0.03220  0.51362  0.41576  1.0000
  C   C84       1.0  0.01803  0.51031  0.33342  1.0000
  C   C85       1.0  0.92418  0.45150  0.37952  1.0000
  N   N18       1.0  0.95950  0.47197  0.38877  1.0000
  H   H50       1.0  0.90952  0.43913  0.43473  1.0000
  C   C86       1.0  0.07683  0.53303  0.52906  1.0000
  H   H51       1.0  0.10510  0.54843  0.54069  1.0000
  H   H52       1.0  0.06798  0.50596  0.54910  1.0000
  H   H53       1.0  0.06400  0.54351  0.57139  1.0000
  C   C87       1.0  0.12620  0.57518  0.37864  1.0000
  H   H54       1.0  0.13342  0.59442  0.42303  1.0000
