data_image0
_chemical_formula_structural       C15H12CNC4H2CH3CNC4H2CH3C2NC2NC5NC3NC17H14C4HCNHCH3C4HCNHCH3
_chemical_formula_sum              "C68 H46 N8"
_cell_length_a       25.6089
_cell_length_b       25.6089
_cell_length_c       14.876
_cell_angle_alpha    90
_cell_angle_beta     90
_cell_angle_gamma    90

_space_group_name_H-M_alt    "P 1"
_space_group_IT_number       1

loop_
  _space_group_symop_operation_xyz
  'x, y, z'

loop_
  _atom_site_type_symbol
  _atom_site_label
  _atom_site_symmetry_multiplicity
  _atom_site_fract_x
  _atom_site_fract_y
  _atom_site_fract_z
  _atom_site_occupancy
  C   C1        1.0  0.89025  0.95222  0.34533  1.0000
  C   C2        1.0  0.05119  0.88892  0.34507  1.0000
  C   C3        1.0  0.99989  0.13815  0.34175  1.0000
  C   C4        1.0  0.95051  0.11270  0.34258  1.0000
  C   C5        1.0  0.86380  0.09905  0.34207  1.0000
  C   C6        1.0  0.90179  0.13726  0.34290  1.0000
  C   C7        1.0  0.72542  0.98408  0.26303  1.0000
  C   C8        1.0  0.78038  0.98543  0.26418  1.0000
  C   C9        1.0  0.00011  0.19407  0.34017  1.0000
  C   C10       1.0  0.98479  0.27663  0.26097  1.0000
  C   C11       1.0  0.98574  0.22165  0.26174  1.0000
  C   C12       1.0  0.22251  0.00688  0.26459  1.0000
  C   C13       1.0  0.27752  0.00634  0.26577  1.0000
  C   C14       1.0  0.00709  0.77924  0.26647  1.0000
  C   C15       1.0  0.00631  0.72426  0.26755  1.0000
  H   H1        1.0  0.01166  0.70494  0.20808  1.0000
  H   H2        1.0  0.01205  0.79824  0.20654  1.0000
  H   H3        1.0  0.89690  0.82621  0.35221  1.0000
  H   H4        1.0  0.20352  0.01181  0.20465  1.0000
  H   H5        1.0  0.29685  0.01186  0.20636  1.0000
  H   H6        1.0  0.10506  0.17528  0.33424  1.0000
  H   H7        1.0  0.82458  0.10627  0.34150  1.0000
  H   H8        1.0  0.89431  0.17643  0.34296  1.0000
  H   H9        1.0  0.97513  0.20180  0.20488  1.0000
  H   H10       1.0  0.97272  0.29484  0.20344  1.0000
  H   H11       1.0  0.80043  0.97510  0.20738  1.0000
  H   H12       1.0  0.70742  0.97193  0.20535  1.0000
  C   C16       1.0  0.97401  0.61065  0.28277  1.0000
  N   N1        1.0  0.97552  0.55778  0.28421  1.0000
  C   C17       1.0  0.99987  0.47360  0.33769  1.0000
  C   C18       1.0  0.01481  0.44650  0.25814  1.0000
  C   C19       1.0  0.01419  0.39114  0.25973  1.0000
  C   C20       1.0  0.99861  0.36234  0.33653  1.0000
  H   H13       1.0  0.02675  0.37132  0.20409  1.0000
  H   H14       1.0  0.95355  0.62845  0.23240  1.0000
  C   C21       1.0  0.03290  0.47409  0.17576  1.0000
  H   H15       1.0  0.06486  0.50056  0.19243  1.0000
  H   H16       1.0  0.00079  0.49649  0.14685  1.0000
  H   H17       1.0  0.04691  0.44731  0.12400  1.0000
  C   C22       1.0  0.39125  0.97418  0.28104  1.0000
  N   N2        1.0  0.44413  0.97550  0.28298  1.0000
  C   C23       1.0  0.52825  0.99928  0.33762  1.0000
  C   C24       1.0  0.55567  0.01444  0.25853  1.0000
  C   C25       1.0  0.61102  0.01367  0.26073  1.0000
  C   C26       1.0  0.63948  0.99775  0.33770  1.0000
  H   H18       1.0  0.63108  0.02642  0.20547  1.0000
  H   H19       1.0  0.37355  0.95397  0.23030  1.0000
  C   C27       1.0  0.52845  0.03293  0.17606  1.0000
  H   H20       1.0  0.50202  0.06492  0.19280  1.0000
  H   H21       1.0  0.50606  0.00101  0.14654  1.0000
  H   H22       1.0  0.55547  0.04706  0.12475  1.0000
  C   C28       1.0  0.90422  0.86540  0.34958  1.0000
  C   C29       1.0  0.86600  0.90338  0.34962  1.0000
  N   N3        1.0  0.94223  0.94193  0.34382  1.0000
  C   C30       1.0  0.95286  0.89004  0.34639  1.0000
  C   C31       1.0  0.00181  0.86366  0.34588  1.0000
  N   N4        1.0  0.06116  0.94077  0.34471  1.0000
  C   C32       1.0  0.11296  0.95097  0.34494  1.0000
  C   C33       1.0  0.13784  0.90242  0.34527  1.0000
  C   C34       1.0  0.09982  0.86422  0.34559  1.0000
  C   C35       1.0  0.13802  0.00048  0.34409  1.0000
  C   C36       1.0  0.11143  0.04933  0.34250  1.0000
  N   N5        1.0  0.05946  0.05977  0.34408  1.0000
  C   C37       1.0  0.04887  0.11170  0.34160  1.0000
  C   C38       1.0  0.09763  0.13614  0.33775  1.0000
  C   C39       1.0  0.13582  0.09810  0.33900  1.0000
  N   N6        1.0  0.94050  0.06083  0.34323  1.0000
  C   C40       1.0  0.88867  0.05052  0.34323  1.0000
  C   C41       1.0  0.86352  0.00101  0.34392  1.0000
  C   C42       1.0  0.80764  0.00023  0.34269  1.0000
  C   C43       1.0  0.77845  0.01369  0.41985  1.0000
  C   C44       1.0  0.72346  0.01293  0.41805  1.0000
  C   C45       1.0  0.69560  0.99804  0.33970  1.0000
  C   C46       1.0  0.01397  0.22301  0.41740  1.0000
  C   C47       1.0  0.01369  0.27801  0.41594  1.0000
  C   C48       1.0  0.99889  0.30619  0.33788  1.0000
  C   C49       1.0  0.19382  0.00089  0.34499  1.0000
  C   C50       1.0  0.30568  0.99967  0.34704  1.0000
  C   C51       1.0  0.27637  0.99355  0.42723  1.0000
  C   C52       1.0  0.22139  0.99416  0.42637  1.0000
  C   C53       1.0  0.00142  0.80789  0.34698  1.0000
  C   C54       1.0  0.99487  0.78034  0.42841  1.0000
  C   C55       1.0  0.99404  0.72536  0.42916  1.0000
  C   C56       1.0  0.99978  0.69609  0.34885  1.0000
  H   H23       1.0  0.98828  0.70688  0.48930  1.0000
  H   H24       1.0  0.99036  0.80015  0.48766  1.0000
  H   H25       1.0  0.82689  0.89574  0.35268  1.0000
  H   H26       1.0  0.96862  0.96847  0.33991  1.0000
  H   H27       1.0  0.03304  0.03327  0.34811  1.0000
  H   H28       1.0  0.10709  0.82500  0.34626  1.0000
  H   H29       1.0  0.17709  0.89528  0.34515  1.0000
  H   H30       1.0  0.20159  0.98928  0.48555  1.0000
  H   H31       1.0  0.29482  0.98760  0.48734  1.0000
  H   H32       1.0  0.17499  0.10556  0.33685  1.0000
  H   H33       1.0  0.02471  0.20418  0.47520  1.0000
  H   H34       1.0  0.02528  0.29729  0.47273  1.0000
  H   H35       1.0  0.70395  0.02445  0.47465  1.0000
  H   H36       1.0  0.79709  0.02471  0.47768  1.0000
  C   C57       1.0  0.99964  0.64007  0.34991  1.0000
  C   C58       1.0  0.00069  0.52898  0.34758  1.0000
  C   C59       1.0  0.02680  0.55593  0.41828  1.0000
  C   C60       1.0  0.02578  0.61129  0.41759  1.0000
  H   H37       1.0  0.04581  0.63115  0.46632  1.0000
  C   C61       1.0  0.98325  0.39204  0.41216  1.0000
  N   N7        1.0  0.98458  0.44491  0.40991  1.0000
  H   H38       1.0  0.97047  0.37450  0.46974  1.0000
  C   C62       1.0  0.05664  0.52824  0.48966  1.0000
  H   H39       1.0  0.08509  0.50189  0.45918  1.0000
  H   H40       1.0  0.03000  0.50569  0.53169  1.0000
  H   H41       1.0  0.07790  0.55497  0.53361  1.0000
  C   C63       1.0  0.36171  0.99957  0.34831  1.0000
  C   C64       1.0  0.47284  0.00028  0.34694  1.0000
  C   C65       1.0  0.44576  0.02619  0.41771  1.0000
  C   C66       1.0  0.39039  0.02535  0.41652  1.0000
  H   H42       1.0  0.37047  0.04519  0.46539  1.0000
  C   C67       1.0  0.60948  0.98219  0.41283  1.0000
  N   N8        1.0  0.55663  0.98365  0.40999  1.0000
  H   H43       1.0  0.62680  0.96920  0.47049  1.0000
  C   C68       1.0  0.47334  0.05564  0.48972  1.0000
  H   H44       1.0  0.49990  0.08409  0.45984  1.0000
  H   H45       1.0  0.49563  0.02874  0.53167  1.0000
  H   H46       1.0  0.44654  0.07683  0.53365  1.0000
