data_image0
_chemical_formula_structural       C8H8C4HC3H2NO2HCH2C4HC3H2NO2HCH2C3NC3NC5NC5NC20H18NHNHNHNHC5H3NO2CHC5H3NO2CH
_chemical_formula_sum              "C72 H50 N12 O8"
_cell_length_a       29.6092
_cell_length_b       29.6076
_cell_length_c       15.0267
_cell_angle_alpha    90
_cell_angle_beta     90
_cell_angle_gamma    89.974

_space_group_name_H-M_alt    "P 1"
_space_group_IT_number       1

loop_
  _space_group_symop_operation_xyz
  'x, y, z'

loop_
  _atom_site_type_symbol
  _atom_site_label
  _atom_site_symmetry_multiplicity
  _atom_site_fract_x
  _atom_site_fract_y
  _atom_site_fract_z
  _atom_site_occupancy
  C   C1        1.0  0.01789  0.23449  0.27801  1.0000
  C   C2        1.0  0.01508  0.18712  0.28207  1.0000
  C   C3        1.0  0.22883  0.97615  0.25729  1.0000
  C   C4        1.0  0.18226  0.98253  0.27013  1.0000
  C   C5        1.0  0.98253  0.81635  0.27011  1.0000
  C   C6        1.0  0.97672  0.76973  0.25688  1.0000
  C   C7        1.0  0.81134  0.01502  0.28238  1.0000
  C   C8        1.0  0.76400  0.01821  0.27828  1.0000
  H   H1        1.0  0.74850  0.02083  0.21764  1.0000
  H   H2        1.0  0.82958  0.01536  0.22450  1.0000
  H   H3        1.0  0.98298  0.83737  0.21600  1.0000
  H   H4        1.0  0.97308  0.75759  0.19358  1.0000
  H   H5        1.0  0.16136  0.98317  0.21585  1.0000
  H   H6        1.0  0.24105  0.97227  0.19410  1.0000
  H   H7        1.0  0.01586  0.16889  0.22419  1.0000
  H   H8        1.0  0.02069  0.25000  0.21742  1.0000
  C   C9        1.0  0.99886  0.61921  0.28381  1.0000
  C   C10       1.0  0.98523  0.52472  0.30355  1.0000
  C   C11       1.0  0.98381  0.54450  0.21755  1.0000
  C   C12       1.0  0.99058  0.59164  0.20883  1.0000
  H   H9        1.0  0.98930  0.60586  0.14681  1.0000
  C   C13       1.0  0.98134  0.47739  0.31633  1.0000
  C   C14       1.0  0.01607  0.40273  0.30262  1.0000
  C   C15       1.0  0.01676  0.44938  0.28615  1.0000
  H   H10       1.0  0.04255  0.38378  0.28004  1.0000
  H   H11       1.0  0.04398  0.46285  0.25352  1.0000
  N   N1        1.0  0.97499  0.51699  0.14241  1.0000
  O   O1        1.0  0.00701  0.51828  0.08759  1.0000
  O   O2        1.0  0.93936  0.52890  0.10347  1.0000
  H   H12       1.0  0.94982  0.31916  0.33570  1.0000
  C   C16       1.0  0.00573  0.66867  0.27509  1.0000
  H   H13       1.0  0.00751  0.67876  0.20509  1.0000
  H   H14       1.0  0.03814  0.67724  0.30587  1.0000
  C   C17       1.0  0.37942  0.99749  0.28457  1.0000
  C   C18       1.0  0.47398  0.98433  0.30444  1.0000
  C   C19       1.0  0.45422  0.98266  0.21844  1.0000
  C   C20       1.0  0.40705  0.98919  0.20966  1.0000
  H   H15       1.0  0.39286  0.98782  0.14762  1.0000
  C   C21       1.0  0.52134  0.98081  0.31721  1.0000
  C   C22       1.0  0.59569  0.01612  0.30339  1.0000
  C   C23       1.0  0.54904  0.01645  0.28696  1.0000
  H   H16       1.0  0.61441  0.04272  0.28071  1.0000
  H   H17       1.0  0.53532  0.04355  0.25429  1.0000
  N   N2        1.0  0.48181  0.97390  0.14337  1.0000
  O   O3        1.0  0.48034  0.00585  0.08839  1.0000
  O   O4        1.0  0.47014  0.93815  0.10458  1.0000
  H   H18       1.0  0.67972  0.95034  0.33659  1.0000
  C   C24       1.0  0.32998  0.00447  0.27570  1.0000
  H   H19       1.0  0.31994  0.00609  0.20565  1.0000
  H   H20       1.0  0.32149  0.03701  0.30606  1.0000
  C   C25       1.0  0.88868  0.09160  0.36774  1.0000
  C   C26       1.0  0.92396  0.12204  0.36754  1.0000
  C   C27       1.0  0.96445  0.09773  0.36953  1.0000
  N   N3        1.0  0.95224  0.05364  0.37100  1.0000
  C   C28       1.0  0.90683  0.04803  0.36961  1.0000
  C   C29       1.0  0.88113  0.00748  0.36951  1.0000
  C   C30       1.0  0.89943  0.96321  0.37085  1.0000
  N   N4        1.0  0.94345  0.95133  0.37255  1.0000
  C   C31       1.0  0.94875  0.90605  0.37104  1.0000
  C   C32       1.0  0.90531  0.88767  0.36891  1.0000
  C   C33       1.0  0.87487  0.92295  0.36894  1.0000
  C   C34       1.0  0.98986  0.88143  0.36962  1.0000
  C   C35       1.0  0.03374  0.90085  0.37159  1.0000
  N   N5        1.0  0.04600  0.94489  0.37608  1.0000
  C   C36       1.0  0.09135  0.95053  0.37140  1.0000
  C   C37       1.0  0.10941  0.90693  0.36744  1.0000
  C   C38       1.0  0.07412  0.87651  0.36720  1.0000
  C   C39       1.0  0.11707  0.99108  0.36905  1.0000
  C   C40       1.0  0.09883  0.03539  0.37041  1.0000
  N   N6        1.0  0.05481  0.04732  0.37195  1.0000
  C   C41       1.0  0.04948  0.09262  0.37021  1.0000
  C   C42       1.0  0.09293  0.11097  0.36826  1.0000
  C   C43       1.0  0.12338  0.07565  0.36792  1.0000
  C   C44       1.0  0.00834  0.11721  0.36912  1.0000
  C   C45       1.0  0.01137  0.16507  0.36513  1.0000
  C   C46       1.0  0.01034  0.19102  0.44397  1.0000
  C   C47       1.0  0.01289  0.23840  0.43966  1.0000
  C   C48       1.0  0.01653  0.26046  0.35657  1.0000
  C   C49       1.0  0.16450  0.98697  0.35697  1.0000
  C   C50       1.0  0.19401  0.98515  0.43073  1.0000
  C   C51       1.0  0.24067  0.97899  0.41762  1.0000
  C   C52       1.0  0.25842  0.97450  0.33098  1.0000
  C   C53       1.0  0.98654  0.83398  0.35712  1.0000
  C   C54       1.0  0.97518  0.74002  0.33037  1.0000
  C   C55       1.0  0.97931  0.75763  0.41717  1.0000
  C   C56       1.0  0.98494  0.80432  0.43067  1.0000
  C   C57       1.0  0.83334  0.01131  0.36550  1.0000
  C   C58       1.0  0.80739  0.01078  0.44436  1.0000
  C   C59       1.0  0.76005  0.01374  0.44001  1.0000
  C   C60       1.0  0.73803  0.01725  0.35685  1.0000
  H   H21       1.0  0.74167  0.01349  0.49761  1.0000
  H   H22       1.0  0.82274  0.00812  0.50519  1.0000
  H   H23       1.0  0.85532  0.10045  0.36626  1.0000
  H   H24       1.0  0.92006  0.15633  0.36580  1.0000
  H   H25       1.0  0.97342  0.02911  0.37210  1.0000
  H   H26       1.0  0.02487  0.96943  0.37936  1.0000
  H   H27       1.0  0.84056  0.91927  0.36644  1.0000
  H   H28       1.0  0.89664  0.85427  0.36683  1.0000
  H   H29       1.0  0.98727  0.81654  0.49423  1.0000
  H   H30       1.0  0.97783  0.73653  0.47102  1.0000
  H   H31       1.0  0.07791  0.84227  0.36263  1.0000
  H   H32       1.0  0.14269  0.89806  0.36260  1.0000
  H   H33       1.0  0.10157  0.14437  0.36586  1.0000
  H   H34       1.0  0.15769  0.07926  0.36562  1.0000
  H   H35       1.0  0.18171  0.98780  0.49417  1.0000
  H   H36       1.0  0.26166  0.97746  0.47163  1.0000
  H   H37       1.0  0.01244  0.25677  0.49729  1.0000
  H   H38       1.0  0.00773  0.17565  0.50479  1.0000
  N   N7        1.0  0.30529  0.96740  0.32111  1.0000
  H   H39       1.0  0.31046  0.93738  0.28825  1.0000
  N   N8        1.0  0.02005  0.30784  0.34908  1.0000
  H   H40       1.0  0.04666  0.31864  0.38752  1.0000
  N   N9        1.0  0.69064  0.02066  0.34929  1.0000
  H   H41       1.0  0.67975  0.04732  0.38754  1.0000
  N   N10       1.0  0.96840  0.69313  0.32014  1.0000
  H   H42       1.0  0.93850  0.68787  0.28693  1.0000
  C   C61       1.0  0.00001  0.59898  0.36882  1.0000
  C   C62       1.0  0.99334  0.55231  0.37861  1.0000
  C   C63       1.0  0.94437  0.45793  0.36255  1.0000
  C   C64       1.0  0.94413  0.41075  0.37820  1.0000
  C   C65       1.0  0.98010  0.38269  0.35025  1.0000
  H   H43       1.0  0.91753  0.39689  0.41207  1.0000
  H   H44       1.0  0.00607  0.61812  0.42427  1.0000
  H   H45       1.0  0.99522  0.53855  0.44104  1.0000
  N   N11       1.0  0.90837  0.48586  0.39131  1.0000
  O   O5        1.0  0.90371  0.48443  0.47439  1.0000
  O   O6        1.0  0.87169  0.47457  0.35562  1.0000
  C   C66       1.0  0.97849  0.33359  0.37187  1.0000
  H   H46       1.0  0.97193  0.32994  0.44323  1.0000
  C   C67       1.0  0.39963  0.99882  0.36958  1.0000
  C   C68       1.0  0.44633  0.99239  0.37943  1.0000
  C   C69       1.0  0.54112  0.94401  0.36346  1.0000
  C   C70       1.0  0.58829  0.94414  0.37909  1.0000
  C   C71       1.0  0.61604  0.98030  0.35101  1.0000
  H   H47       1.0  0.60240  0.91764  0.41292  1.0000
  H   H48       1.0  0.38046  0.00494  0.42498  1.0000
  H   H49       1.0  0.46008  0.99443  0.44185  1.0000
  N   N12       1.0  0.51351  0.90779  0.39228  1.0000
  O   O7        1.0  0.51501  0.90317  0.47536  1.0000
  O   O8        1.0  0.52514  0.87120  0.35661  1.0000
  C   C72       1.0  0.66514  0.97903  0.37252  1.0000
  H   H50       1.0  0.66886  0.97265  0.44393  1.0000
