data_image0
_chemical_formula_structural       C8HC7HCH4C4O3C3H2NHC3H2NHC3H2NHC3H2NHC3H2NHC3H2NHOC8HC7HCH4C4O4C8HC7HCH4C4O4C3NC2NH2NHC3NC2NH2NHC3NC2NH2NHC3NC2NH2NHC3NC2NH2NHC3NC2NH2NH
_chemical_formula_sum              "C108 H54 O12 N24"
_cell_length_a       29.9785
_cell_length_b       29.9786
_cell_length_c       15.1446
_cell_angle_alpha    89.9992
_cell_angle_beta     90.0008
_cell_angle_gamma    120

_space_group_name_H-M_alt    "P 1"
_space_group_IT_number       1

loop_
  _space_group_symop_operation_xyz
  'x, y, z'

loop_
  _atom_site_type_symbol
  _atom_site_label
  _atom_site_symmetry_multiplicity
  _atom_site_fract_x
  _atom_site_fract_y
  _atom_site_fract_z
  _atom_site_occupancy
  C   C1        1.0  0.02206  0.52982  0.32329  1.0000
  C   C2        1.0  0.97456  0.48194  0.32332  1.0000
  C   C3        1.0  0.97461  0.43438  0.32380  1.0000
  C   C4        1.0  0.02215  0.43580  0.31903  1.0000
  C   C5        1.0  0.06955  0.48209  0.31817  1.0000
  C   C6        1.0  0.06956  0.52953  0.32336  1.0000
  C   C7        1.0  0.92854  0.48389  0.32833  1.0000
  C   C8        1.0  0.11575  0.57743  0.32375  1.0000
  H   H1        1.0  0.02237  0.40170  0.31710  1.0000
  C   C9        1.0  0.02218  0.57783  0.32325  1.0000
  C   C10       1.0  0.97468  0.57811  0.32334  1.0000
  C   C11       1.0  0.97469  0.62554  0.31809  1.0000
  C   C12       1.0  0.02209  0.67184  0.31882  1.0000
  C   C13       1.0  0.06963  0.67326  0.32356  1.0000
  C   C14       1.0  0.06969  0.62570  0.32318  1.0000
  C   C15       1.0  0.92849  0.53021  0.32382  1.0000
  H   H2        1.0  0.02187  0.70594  0.31680  1.0000
  C   C16       1.0  0.11570  0.62375  0.32822  1.0000
  H   H3        1.0  0.89322  0.52738  0.32121  1.0000
  H   H4        1.0  0.89337  0.45170  0.33469  1.0000
  H   H5        1.0  0.15088  0.65593  0.33455  1.0000
  H   H6        1.0  0.15102  0.58026  0.32109  1.0000
  C   C17       1.0  0.11444  0.47837  0.30822  1.0000
  C   C18       1.0  0.93013  0.38527  0.33277  1.0000
  C   C19       1.0  0.92978  0.62922  0.30805  1.0000
  C   C20       1.0  0.11410  0.72241  0.33226  1.0000
  O   O1        1.0  0.11137  0.43870  0.25988  1.0000
  O   O2        1.0  0.93447  0.34685  0.37224  1.0000
  O   O3        1.0  0.10981  0.76080  0.37197  1.0000
  C   C21       1.0  0.29772  0.51207  0.30956  1.0000
  C   C22       1.0  0.26864  0.51653  0.24057  1.0000
  C   C23       1.0  0.22118  0.51302  0.25846  1.0000
  H   H7        1.0  0.20024  0.51433  0.20620  1.0000
  H   H8        1.0  0.27927  0.51726  0.17609  1.0000
  N   N1        1.0  0.33946  0.50772  0.28835  1.0000
  H   H9        1.0  0.35640  0.52143  0.23163  1.0000
  C   C24       1.0  0.56394  0.87107  0.30971  1.0000
  C   C25       1.0  0.55958  0.83761  0.24067  1.0000
  C   C26       1.0  0.56306  0.79363  0.25846  1.0000
  H   H10       1.0  0.56178  0.77143  0.20616  1.0000
  H   H11       1.0  0.55876  0.84747  0.17619  1.0000
  N   N2        1.0  0.56813  0.91710  0.28856  1.0000
  H   H12       1.0  0.55461  0.92046  0.23175  1.0000
  C   C27       1.0  0.20473  0.77819  0.30952  1.0000
  C   C28       1.0  0.23831  0.80724  0.24055  1.0000
  C   C29       1.0  0.28220  0.85474  0.25849  1.0000
  H   H13       1.0  0.30441  0.87574  0.20624  1.0000
  H   H14       1.0  0.22837  0.79675  0.17604  1.0000
  N   N3        1.0  0.15863  0.73649  0.28823  1.0000
  H   H15       1.0  0.15540  0.71951  0.23155  1.0000
  C   C30       1.0  0.74640  0.59534  0.30957  1.0000
  C   C31       1.0  0.77552  0.59098  0.24056  1.0000
  C   C32       1.0  0.82303  0.59461  0.25844  1.0000
  H   H16       1.0  0.84402  0.59342  0.20616  1.0000
  H   H17       1.0  0.76494  0.59029  0.17606  1.0000
  N   N4        1.0  0.70455  0.59950  0.28839  1.0000
  H   H18       1.0  0.68771  0.58603  0.23152  1.0000
  C   C33       1.0  0.48034  0.23638  0.30945  1.0000
  C   C34       1.0  0.48465  0.26986  0.24048  1.0000
  C   C35       1.0  0.48103  0.31375  0.25841  1.0000
  H   H19       1.0  0.48223  0.33595  0.20617  1.0000
  H   H20       1.0  0.48538  0.25998  0.17599  1.0000
  N   N5        1.0  0.47619  0.19037  0.28824  1.0000
  H   H21       1.0  0.48977  0.18710  0.23143  1.0000
  C   C36       1.0  0.83955  0.32929  0.30972  1.0000
  C   C37       1.0  0.80610  0.30019  0.24066  1.0000
  C   C38       1.0  0.76211  0.25273  0.25844  1.0000
  H   H22       1.0  0.73993  0.23180  0.20613  1.0000
  H   H23       1.0  0.81597  0.31085  0.17618  1.0000
  N   N6        1.0  0.88563  0.37106  0.28855  1.0000
  H   H24       1.0  0.88887  0.38803  0.23186  1.0000
  O   O4        1.0  0.93286  0.66899  0.25999  1.0000
  C   C39       1.0  0.54604  0.57759  0.32340  1.0000
  C   C40       1.0  0.59388  0.57789  0.32333  1.0000
  C   C41       1.0  0.64147  0.62548  0.32363  1.0000
  C   C42       1.0  0.64011  0.67163  0.31881  1.0000
  C   C43       1.0  0.59384  0.67279  0.31808  1.0000
  C   C44       1.0  0.54639  0.62541  0.32344  1.0000
  C   C45       1.0  0.59186  0.52989  0.32850  1.0000
  C   C46       1.0  0.49851  0.62374  0.32389  1.0000
  H   H25       1.0  0.67423  0.70593  0.31668  1.0000
  C   C47       1.0  0.49800  0.52972  0.32344  1.0000
  C   C48       1.0  0.49765  0.48190  0.32354  1.0000
  C   C49       1.0  0.45019  0.43450  0.31830  1.0000
  C   C50       1.0  0.40393  0.43566  0.31900  1.0000
  C   C51       1.0  0.40256  0.48182  0.32373  1.0000
  C   C52       1.0  0.45015  0.52940  0.32339  1.0000
  C   C53       1.0  0.54552  0.48356  0.32403  1.0000
  H   H26       1.0  0.36981  0.40137  0.31691  1.0000
  C   C54       1.0  0.45217  0.57741  0.32845  1.0000
  H   H27       1.0  0.54831  0.45109  0.32143  1.0000
  H   H28       1.0  0.62402  0.52686  0.33485  1.0000
  H   H29       1.0  0.42000  0.58044  0.33477  1.0000
  H   H30       1.0  0.49572  0.65621  0.32120  1.0000
  C   C55       1.0  0.59766  0.72144  0.30805  1.0000
  C   C56       1.0  0.69058  0.63007  0.33233  1.0000
  C   C57       1.0  0.44641  0.38587  0.30824  1.0000
  C   C58       1.0  0.35344  0.47719  0.33235  1.0000
  O   O5        1.0  0.63730  0.75807  0.25971  1.0000
  O   O6        1.0  0.72911  0.67287  0.37157  1.0000
  O   O7        1.0  0.40663  0.34913  0.26028  1.0000
  O   O8        1.0  0.31499  0.43451  0.37195  1.0000
  C   C59       1.0  0.49817  0.05381  0.32335  1.0000
  C   C60       1.0  0.49784  0.10134  0.32324  1.0000
  C   C61       1.0  0.45025  0.10133  0.32359  1.0000
  C   C62       1.0  0.40410  0.05379  0.31886  1.0000
  C   C63       1.0  0.40296  0.00637  0.31819  1.0000
  C   C64       1.0  0.45036  0.00633  0.32350  1.0000
  C   C65       1.0  0.54584  0.14734  0.32828  1.0000
  C   C66       1.0  0.45205  0.96013  0.32400  1.0000
  H   H31       1.0  0.36980  0.05360  0.31676  1.0000
  C   C67       1.0  0.54605  0.05366  0.32336  1.0000
  C   C68       1.0  0.59386  0.10114  0.32337  1.0000
  C   C69       1.0  0.64126  0.10109  0.31805  1.0000
  C   C70       1.0  0.64012  0.05367  0.31890  1.0000
  C   C71       1.0  0.59397  0.00615  0.32381  1.0000
  C   C72       1.0  0.54638  0.00613  0.32338  1.0000
  C   C73       1.0  0.59218  0.14734  0.32377  1.0000
  H   H32       1.0  0.67442  0.05386  0.31682  1.0000
  C   C74       1.0  0.49839  0.96014  0.32853  1.0000
  H   H33       1.0  0.62465  0.18260  0.32111  1.0000
  H   H34       1.0  0.54886  0.18252  0.33462  1.0000
  H   H35       1.0  0.49538  0.92495  0.33485  1.0000
  H   H36       1.0  0.41959  0.92486  0.32141  1.0000
  C   C75       1.0  0.35436  0.96149  0.30820  1.0000
  C   C76       1.0  0.44559  0.14582  0.33211  1.0000
  C   C77       1.0  0.68987  0.14594  0.30795  1.0000
  C   C78       1.0  0.59854  0.96162  0.33267  1.0000
  O   O9        1.0  0.31757  0.96453  0.26039  1.0000
  O   O10       1.0  0.40291  0.14153  0.37181  1.0000
  O   O11       1.0  0.72662  0.14292  0.25999  1.0000
  O   O12       1.0  0.64138  0.96596  0.37186  1.0000
  C   C79       1.0  0.20302  0.50908  0.34610  1.0000
  C   C80       1.0  0.23578  0.51254  0.41627  1.0000
  C   C81       1.0  0.28236  0.51276  0.39811  1.0000
  N   N7        1.0  0.31212  0.51540  0.46818  1.0000
  C   C82       1.0  0.29910  0.51635  0.55356  1.0000
  C   C83       1.0  0.25229  0.51451  0.57137  1.0000
  N   N8        1.0  0.22257  0.51258  0.50237  1.0000
  H   H37       1.0  0.32280  0.51802  0.60347  1.0000
  H   H38       1.0  0.24072  0.51471  0.63473  1.0000
  N   N9        1.0  0.15596  0.50388  0.36201  1.0000
  H   H39       1.0  0.14989  0.51503  0.41909  1.0000
  C   C84       1.0  0.56702  0.77938  0.34608  1.0000
  C   C85       1.0  0.56355  0.80865  0.41630  1.0000
  C   C86       1.0  0.56328  0.85499  0.39822  1.0000
  N   N10       1.0  0.56060  0.88206  0.46835  1.0000
  C   C87       1.0  0.55967  0.86806  0.55371  1.0000
  C   C88       1.0  0.56156  0.82311  0.57143  1.0000
  N   N11       1.0  0.56351  0.79536  0.50238  1.0000
  H   H40       1.0  0.55796  0.89004  0.60365  1.0000
  H   H41       1.0  0.56136  0.81131  0.63477  1.0000
  N   N12       1.0  0.57222  0.73751  0.36192  1.0000
  H   H42       1.0  0.56100  0.72027  0.41897  1.0000
  C   C89       1.0  0.29640  0.87290  0.34614  1.0000
  C   C90       1.0  0.26710  0.84011  0.41629  1.0000
  C   C91       1.0  0.22076  0.79353  0.39807  1.0000
  N   N13       1.0  0.19361  0.76374  0.46811  1.0000
  C   C92       1.0  0.20758  0.77674  0.55352  1.0000
  C   C93       1.0  0.25253  0.82355  0.57137  1.0000
  N   N14       1.0  0.28034  0.85330  0.50240  1.0000
  H   H43       1.0  0.18553  0.75303  0.60340  1.0000
  H   H44       1.0  0.26429  0.83509  0.63473  1.0000
  N   N15       1.0  0.33824  0.91998  0.36209  1.0000
  H   H45       1.0  0.35544  0.92602  0.41919  1.0000
  C   C94       1.0  0.84121  0.59857  0.34608  1.0000
  C   C95       1.0  0.80841  0.59502  0.41625  1.0000
  C   C96       1.0  0.76177  0.59467  0.39810  1.0000
  N   N16       1.0  0.73198  0.59196  0.46818  1.0000
  C   C97       1.0  0.74502  0.59103  0.55356  1.0000
  C   C98       1.0  0.79188  0.59299  0.57136  1.0000
  N   N17       1.0  0.82164  0.59500  0.50235  1.0000
  H   H46       1.0  0.72130  0.58931  0.60347  1.0000
  H   H47       1.0  0.80347  0.59282  0.63471  1.0000
  N   N18       1.0  0.88830  0.60386  0.36200  1.0000
  H   H48       1.0  0.89434  0.59264  0.41905  1.0000
  C   C99       1.0  0.47711  0.32795  0.34608  1.0000
  C   C100      1.0  0.48069  0.29870  0.41621  1.0000
  C   C101      1.0  0.48104  0.25241  0.39800  1.0000
  N   N19       1.0  0.48381  0.22533  0.46803  1.0000
  C   C102      1.0  0.48477  0.23929  0.55344  1.0000
  C   C103      1.0  0.48280  0.28419  0.57129  1.0000
  N   N20       1.0  0.48075  0.31194  0.50232  1.0000
  H   H49       1.0  0.48655  0.21730  0.60331  1.0000
  H   H50       1.0  0.48300  0.29594  0.63466  1.0000
  N   N21       1.0  0.47184  0.36977  0.36206  1.0000
  H   H51       1.0  0.48301  0.38698  0.41915  1.0000
  C   C104      1.0  0.74785  0.23452  0.34605  1.0000
  C   C105      1.0  0.77710  0.26726  0.41628  1.0000
  C   C106      1.0  0.82346  0.31387  0.39822  1.0000
  N   N22       1.0  0.85051  0.34361  0.46836  1.0000
  C   C107      1.0  0.83649  0.33054  0.55372  1.0000
  C   C108      1.0  0.79154  0.28370  0.57142  1.0000
  N   N23       1.0  0.76380  0.25400  0.50235  1.0000
  H   H52       1.0  0.85847  0.35424  0.60367  1.0000
  H   H53       1.0  0.77973  0.27210  0.63475  1.0000
  N   N24       1.0  0.70599  0.18744  0.36189  1.0000
  H   H54       1.0  0.68873  0.18141  0.41893  1.0000
