data_image0
_chemical_formula_structural       CHC2H4CH4C3H2CH2NHC3H2CH2NHC2HCH2NHC29H17C3O3C29H17C3O3C3NC2NHOHNHC3NC2NHOHNHC2NC2NHOHNH
_chemical_formula_sum              "C93 H66 N12 O9"
_cell_length_a       45.0377
_cell_length_b       45.0377
_cell_length_c       14.9799
_cell_angle_alpha    90
_cell_angle_beta     90
_cell_angle_gamma    120

_space_group_name_H-M_alt    "P 1"
_space_group_IT_number       1

loop_
  _space_group_symop_operation_xyz
  'x, y, z'

loop_
  _atom_site_type_symbol
  _atom_site_label
  _atom_site_symmetry_multiplicity
  _atom_site_fract_x
  _atom_site_fract_y
  _atom_site_fract_z
  _atom_site_occupancy
  C   C1        1.0  0.01443  0.49116  0.26931  1.0000
  H   H1        1.0  0.02338  0.48757  0.20991  1.0000
  C   C2        1.0  0.02427  0.51567  0.41816  1.0000
  C   C3        1.0  0.40564  0.85402  0.32711  1.0000
  H   H2        1.0  0.39483  0.86813  0.34771  1.0000
  H   H3        1.0  0.35812  0.80821  0.32622  1.0000
  H   H4        1.0  0.47462  0.60687  0.34815  1.0000
  H   H5        1.0  0.13357  0.52703  0.34781  1.0000
  C   C4        1.0  0.58991  0.14605  0.35546  1.0000
  H   H6        1.0  0.60013  0.13069  0.34262  1.0000
  H   H7        1.0  0.63843  0.19063  0.35839  1.0000
  H   H8        1.0  0.53190  0.40156  0.34221  1.0000
  H   H9        1.0  0.87100  0.46978  0.34243  1.0000
  C   C5        1.0  0.49019  0.52657  0.33667  1.0000
  C   C6        1.0  0.52508  0.50263  0.28102  1.0000
  C   C7        1.0  0.51048  0.52360  0.26930  1.0000
  H   H10       1.0  0.51408  0.53615  0.20991  1.0000
  H   H11       1.0  0.53838  0.50011  0.22907  1.0000
  C   C8        1.0  0.46386  0.52835  0.02218  1.0000
  H   H12       1.0  0.44670  0.52868  0.07300  1.0000
  H   H13       1.0  0.48469  0.52705  0.05594  1.0000
  N   N1        1.0  0.47668  0.54756  0.32238  1.0000
  H   H14       1.0  0.49182  0.56957  0.29427  1.0000
  C   C9        1.0  0.47516  0.96399  0.33648  1.0000
  C   C10       1.0  0.49908  0.02284  0.28102  1.0000
  C   C11       1.0  0.47813  0.98728  0.26919  1.0000
  H   H15       1.0  0.46561  0.97835  0.20975  1.0000
  H   H16       1.0  0.50164  0.03869  0.22910  1.0000
  C   C12       1.0  0.47327  0.93581  0.02205  1.0000
  H   H17       1.0  0.47289  0.91828  0.07282  1.0000
  H   H18       1.0  0.47463  0.95796  0.05587  1.0000
  N   N2        1.0  0.45419  0.92949  0.32202  1.0000
  H   H19       1.0  0.43216  0.92263  0.29403  1.0000
  C   C13       1.0  0.03771  0.51148  0.33664  1.0000
  C   C14       1.0  0.97887  0.47656  0.28107  1.0000
  H   H20       1.0  0.96304  0.46327  0.22913  1.0000
  C   C15       1.0  0.06582  0.53777  0.02220  1.0000
  H   H21       1.0  0.08333  0.55492  0.07301  1.0000
  H   H22       1.0  0.04367  0.51697  0.05598  1.0000
  N   N3        1.0  0.07222  0.52497  0.32234  1.0000
  H   H23       1.0  0.07904  0.50980  0.29421  1.0000
  C   C16       1.0  0.44154  0.86960  0.31441  1.0000
  C   C17       1.0  0.45478  0.84806  0.28995  1.0000
  C   C18       1.0  0.43312  0.81254  0.27830  1.0000
  C   C19       1.0  0.39740  0.79731  0.29158  1.0000
  C   C20       1.0  0.38387  0.81853  0.31528  1.0000
  C   C21       1.0  0.37568  0.76230  0.28160  1.0000
  C   C22       1.0  0.37836  0.73882  0.33109  1.0000
  C   C23       1.0  0.35637  0.70359  0.32453  1.0000
  C   C24       1.0  0.32031  0.68905  0.32519  1.0000
  C   C25       1.0  0.29809  0.65314  0.32463  1.0000
  C   C26       1.0  0.31262  0.63161  0.32529  1.0000
  C   C27       1.0  0.34854  0.64531  0.32468  1.0000
  C   C28       1.0  0.37006  0.68136  0.32522  1.0000
  C   C29       1.0  0.36178  0.62332  0.33127  1.0000
  C   C30       1.0  0.38795  0.62600  0.28181  1.0000
  C   C31       1.0  0.40124  0.60429  0.29182  1.0000
  C   C32       1.0  0.43598  0.61782  0.31567  1.0000
  C   C33       1.0  0.38077  0.56857  0.27846  1.0000
  C   C34       1.0  0.39464  0.54692  0.29014  1.0000
  C   C35       1.0  0.42941  0.56016  0.31468  1.0000
  C   C36       1.0  0.44973  0.59607  0.32742  1.0000
  C   C37       1.0  0.26286  0.63989  0.33117  1.0000
  C   C38       1.0  0.23938  0.61372  0.28168  1.0000
  C   C39       1.0  0.20437  0.60043  0.29166  1.0000
  C   C40       1.0  0.18912  0.62090  0.27833  1.0000
  C   C41       1.0  0.18317  0.56569  0.31543  1.0000
  C   C42       1.0  0.14767  0.55194  0.32719  1.0000
  C   C43       1.0  0.13207  0.57225  0.31445  1.0000
  C   C44       1.0  0.15360  0.60703  0.28998  1.0000
  H   H24       1.0  0.48050  0.85802  0.27975  1.0000
  H   H25       1.0  0.44369  0.79788  0.26043  1.0000
  H   H26       1.0  0.39613  0.69161  0.32823  1.0000
  H   H27       1.0  0.31007  0.70488  0.32814  1.0000
  H   H28       1.0  0.29679  0.60555  0.32830  1.0000
  H   H29       1.0  0.20377  0.64613  0.26043  1.0000
  H   H30       1.0  0.45141  0.64358  0.32660  1.0000
  H   H31       1.0  0.37889  0.52120  0.27989  1.0000
  H   H32       1.0  0.35555  0.55800  0.26050  1.0000
  H   H33       1.0  0.14363  0.62278  0.27976  1.0000
  H   H34       1.0  0.19350  0.55025  0.32632  1.0000
  H   H35       1.0  0.39938  0.64504  0.23798  1.0000
  H   H36       1.0  0.35079  0.60426  0.37532  1.0000
  H   H37       1.0  0.35663  0.75469  0.23782  1.0000
  H   H38       1.0  0.39743  0.74689  0.37513  1.0000
  H   H39       1.0  0.24700  0.60230  0.23788  1.0000
  H   H40       1.0  0.25478  0.65089  0.37521  1.0000
  C   C45       1.0  0.09624  0.55890  0.32940  1.0000
  C   C46       1.0  0.44276  0.53768  0.32964  1.0000
  C   C47       1.0  0.46404  0.90544  0.32933  1.0000
  O   O1        1.0  0.42011  0.50434  0.34796  1.0000
  O   O2        1.0  0.49736  0.91609  0.34783  1.0000
  O   O3        1.0  0.08556  0.58155  0.34782  1.0000
  C   C48       1.0  0.55395  0.13207  0.36126  1.0000
  C   C49       1.0  0.54163  0.15516  0.37501  1.0000
  C   C50       1.0  0.56425  0.19065  0.38343  1.0000
  C   C51       1.0  0.60006  0.20432  0.37718  1.0000
  C   C52       1.0  0.61262  0.18153  0.36385  1.0000
  C   C53       1.0  0.62282  0.23924  0.38510  1.0000
  C   C54       1.0  0.62162  0.26294  0.33296  1.0000
  C   C55       1.0  0.64459  0.29797  0.33873  1.0000
  C   C56       1.0  0.68046  0.31125  0.33806  1.0000
  C   C57       1.0  0.70370  0.34696  0.33867  1.0000
  C   C58       1.0  0.69042  0.36956  0.33800  1.0000
  C   C59       1.0  0.65471  0.35708  0.33863  1.0000
  C   C60       1.0  0.63212  0.32121  0.33803  1.0000
  C   C61       1.0  0.64265  0.38005  0.33280  1.0000
  C   C62       1.0  0.61773  0.37884  0.38487  1.0000
  C   C63       1.0  0.60558  0.40161  0.37691  1.0000
  C   C64       1.0  0.57024  0.38906  0.36351  1.0000
  C   C65       1.0  0.62773  0.43742  0.38319  1.0000
  C   C66       1.0  0.61486  0.46005  0.37475  1.0000
  C   C67       1.0  0.57946  0.44774  0.36092  1.0000
  C   C68       1.0  0.55747  0.41177  0.35511  1.0000
  C   C69       1.0  0.73873  0.35902  0.33288  1.0000
  C   C70       1.0  0.76244  0.38394  0.38497  1.0000
  C   C71       1.0  0.79736  0.39609  0.37702  1.0000
  C   C72       1.0  0.81103  0.37394  0.38325  1.0000
  C   C73       1.0  0.82015  0.43144  0.36363  1.0000
  C   C74       1.0  0.85563  0.44421  0.35524  1.0000
  C   C75       1.0  0.86961  0.42222  0.36104  1.0000
  C   C76       1.0  0.84652  0.38681  0.37482  1.0000
  H   H41       1.0  0.51589  0.14636  0.38015  1.0000
  H   H42       1.0  0.55431  0.20642  0.39411  1.0000
  H   H43       1.0  0.60618  0.31187  0.33537  1.0000
  H   H44       1.0  0.68981  0.29466  0.33546  1.0000
  H   H45       1.0  0.70702  0.39549  0.33532  1.0000
  H   H46       1.0  0.79525  0.34824  0.39394  1.0000
  H   H47       1.0  0.55353  0.36325  0.35802  1.0000
  H   H48       1.0  0.63180  0.48578  0.37991  1.0000
  H   H49       1.0  0.65343  0.44736  0.39391  1.0000
  H   H50       1.0  0.85531  0.36987  0.37992  1.0000
  H   H51       1.0  0.81106  0.44815  0.35826  1.0000
  H   H52       1.0  0.60646  0.36019  0.42983  1.0000
  H   H53       1.0  0.65365  0.39870  0.28767  1.0000
  H   H54       1.0  0.64147  0.24663  0.43008  1.0000
  H   H55       1.0  0.60298  0.25528  0.28780  1.0000
  H   H56       1.0  0.75506  0.39521  0.42993  1.0000
  H   H57       1.0  0.74639  0.34803  0.28774  1.0000
  C   C77       1.0  0.90550  0.43476  0.35017  1.0000
  C   C78       1.0  0.56692  0.47109  0.35012  1.0000
  C   C79       1.0  0.53060  0.09618  0.35043  1.0000
  O   O4        1.0  0.58949  0.50338  0.32276  1.0000
  O   O5        1.0  0.49831  0.08646  0.32302  1.0000
  O   O6        1.0  0.91522  0.41218  0.32290  1.0000
  C   C80       1.0  0.48600  0.50892  0.41817  1.0000
  C   C81       1.0  0.50094  0.48783  0.43014  1.0000
  C   C82       1.0  0.52093  0.48467  0.36174  1.0000
  N   N4        1.0  0.49607  0.47148  0.50984  1.0000
  C   C83       1.0  0.47788  0.47436  0.57803  1.0000
  C   C84       1.0  0.46379  0.49583  0.56722  1.0000
  N   N5        1.0  0.46820  0.51194  0.48765  1.0000
  H   H58       1.0  0.47488  0.46138  0.63628  1.0000
  O   O7        1.0  0.44445  0.49895  0.63275  1.0000
  H   H59       1.0  0.47432  0.55219  0.65075  1.0000
  N   N6        1.0  0.53436  0.46332  0.37184  1.0000
  H   H60       1.0  0.52012  0.44194  0.40367  1.0000
  C   C85       1.0  0.49277  0.97741  0.41804  1.0000
  C   C86       1.0  0.51384  0.01343  0.43013  1.0000
  C   C87       1.0  0.51704  0.03662  0.36179  1.0000
  N   N7        1.0  0.53016  0.02488  0.50989  1.0000
  C   C88       1.0  0.52726  0.00378  0.57802  1.0000
  C   C89       1.0  0.50581  0.96823  0.56708  1.0000
  N   N8        1.0  0.48972  0.95656  0.48746  1.0000
  H   H61       1.0  0.54020  0.01374  0.63632  1.0000
  O   O8        1.0  0.50264  0.94574  0.63258  1.0000
  H   H62       1.0  0.44942  0.92250  0.65065  1.0000
  N   N9        1.0  0.53840  0.07140  0.37194  1.0000
  H   H63       1.0  0.55974  0.07851  0.40392  1.0000
  C   C90       1.0  0.98824  0.50074  0.43017  1.0000
  C   C91       1.0  0.96507  0.48074  0.36179  1.0000
  N   N10       1.0  0.97678  0.50561  0.50989  1.0000
  C   C92       1.0  0.99786  0.52381  0.57805  1.0000
  C   C93       1.0  0.03341  0.53788  0.56720  1.0000
  N   N11       1.0  0.04510  0.53346  0.48761  1.0000
  H   H64       1.0  0.98789  0.52679  0.63633  1.0000
  O   O9        1.0  0.05588  0.55720  0.63273  1.0000
  H   H65       1.0  0.07916  0.52726  0.65080  1.0000
  N   N12       1.0  0.93029  0.46731  0.37194  1.0000
  H   H66       1.0  0.92317  0.48155  0.40378  1.0000
