data_image0
_chemical_formula_structural       C7H4CNCH2CHC7H4CNCH2CHC2NC2HNHNC2NC2HNHNC2NC2HNHNC11H6NCNC2H2C11H6NCNC2H2C2HC6H3NC2HC6H3NC2HC6H3N
_chemical_formula_sum              "C84 H48 N18"
_cell_length_a       43.9443
_cell_length_b       43.9444
_cell_length_c       15.0092
_cell_angle_alpha    90
_cell_angle_beta     90
_cell_angle_gamma    120

_space_group_name_H-M_alt    "P 1"
_space_group_IT_number       1

loop_
  _space_group_symop_operation_xyz
  'x, y, z'

loop_
  _atom_site_type_symbol
  _atom_site_label
  _atom_site_symmetry_multiplicity
  _atom_site_fract_x
  _atom_site_fract_y
  _atom_site_fract_z
  _atom_site_occupancy
  C   C1        1.0  0.37769  0.63809  0.33372  1.0000
  C   C2        1.0  0.36116  0.73946  0.33380  1.0000
  C   C3        1.0  0.42306  0.60898  0.31777  1.0000
  C   C4        1.0  0.43668  0.64567  0.31338  1.0000
  C   C5        1.0  0.41442  0.65994  0.32176  1.0000
  C   C6        1.0  0.39791  0.76280  0.33880  1.0000
  C   C7        1.0  0.41224  0.79935  0.33104  1.0000
  H   H1        1.0  0.42548  0.68662  0.31709  1.0000
  H   H2        1.0  0.46299  0.66241  0.30345  1.0000
  H   H3        1.0  0.41489  0.75347  0.34710  1.0000
  H   H4        1.0  0.43898  0.81515  0.33320  1.0000
  C   C8        1.0  0.34677  0.70232  0.33774  1.0000
  N   N1        1.0  0.36775  0.68776  0.33737  1.0000
  C   C9        1.0  0.35493  0.65246  0.33770  1.0000
  H   H5        1.0  0.24577  0.66128  0.34707  1.0000
  H   H6        1.0  0.18409  0.62369  0.33316  1.0000
  C   C10       1.0  0.44513  0.59530  0.30551  1.0000
  H   H7        1.0  0.46543  0.60752  0.26412  1.0000
  C   C11       1.0  0.62227  0.36230  0.32301  1.0000
  C   C12       1.0  0.63693  0.25981  0.32317  1.0000
  C   C13       1.0  0.57790  0.39237  0.34398  1.0000
  C   C14       1.0  0.56368  0.35555  0.34485  1.0000
  C   C15       1.0  0.58545  0.34082  0.33407  1.0000
  C   C16       1.0  0.60006  0.23692  0.32116  1.0000
  C   C17       1.0  0.58527  0.20040  0.33148  1.0000
  H   H8        1.0  0.57397  0.31405  0.33665  1.0000
  H   H9        1.0  0.53731  0.33903  0.35444  1.0000
  H   H10       1.0  0.58331  0.24658  0.31371  1.0000
  H   H11       1.0  0.55846  0.18499  0.33183  1.0000
  C   C18       1.0  0.65182  0.29700  0.31800  1.0000
  N   N2        1.0  0.63128  0.31205  0.31840  1.0000
  C   C19       1.0  0.64458  0.34742  0.31793  1.0000
  H   H12       1.0  0.75265  0.33656  0.31378  1.0000
  H   H13       1.0  0.81423  0.37330  0.33186  1.0000
  C   C20       1.0  0.55631  0.40641  0.35987  1.0000
  H   H14       1.0  0.53536  0.39321  0.39880  1.0000
  C   C21       1.0  0.54492  0.45284  0.33259  1.0000
  C   C22       1.0  0.54251  0.47094  0.25792  1.0000
  N   N3        1.0  0.52550  0.48946  0.26422  1.0000
  C   C23       1.0  0.51055  0.49224  0.34085  1.0000
  C   C24       1.0  0.47390  0.54701  0.26747  1.0000
  H   H15       1.0  0.55310  0.47003  0.19801  1.0000
  N   N4        1.0  0.49044  0.52797  0.26898  1.0000
  H   H16       1.0  0.47253  0.55789  0.20857  1.0000
  N   N5        1.0  0.56230  0.43549  0.32417  1.0000
  C   C25       1.0  0.54641  0.09193  0.33262  1.0000
  C   C26       1.0  0.52838  0.07141  0.25788  1.0000
  N   N6        1.0  0.50985  0.03588  0.26420  1.0000
  C   C27       1.0  0.50702  0.01816  0.34088  1.0000
  C   C28       1.0  0.45232  0.92674  0.26748  1.0000
  H   H17       1.0  0.52931  0.08290  0.19796  1.0000
  N   N7        1.0  0.47135  0.96232  0.26899  1.0000
  H   H18       1.0  0.44146  0.91448  0.20855  1.0000
  N   N8        1.0  0.56376  0.12665  0.32420  1.0000
  C   C29       1.0  0.90731  0.45428  0.33260  1.0000
  C   C30       1.0  0.92783  0.45677  0.25786  1.0000
  N   N9        1.0  0.96335  0.47378  0.26418  1.0000
  C   C31       1.0  0.98107  0.48868  0.34085  1.0000
  C   C32       1.0  0.07249  0.52541  0.26744  1.0000
  H   H19       1.0  0.91633  0.44621  0.19794  1.0000
  N   N10       1.0  0.03692  0.50885  0.26896  1.0000
  H   H20       1.0  0.08475  0.52681  0.20853  1.0000
  N   N11       1.0  0.87258  0.43692  0.32417  1.0000
  C   C33       1.0  0.25978  0.62155  0.33379  1.0000
  C   C34       1.0  0.23644  0.63497  0.33876  1.0000
  C   C35       1.0  0.19989  0.61275  0.33100  1.0000
  C   C36       1.0  0.18531  0.57620  0.31783  1.0000
  C   C37       1.0  0.20836  0.56257  0.31336  1.0000
  C   C38       1.0  0.24489  0.58482  0.32178  1.0000
  C   C39       1.0  0.36428  0.60134  0.33862  1.0000
  C   C40       1.0  0.38651  0.58701  0.33085  1.0000
  C   C41       1.0  0.39027  0.81393  0.31783  1.0000
  C   C42       1.0  0.35359  0.79087  0.31335  1.0000
  C   C43       1.0  0.33931  0.75435  0.32179  1.0000
  H   H21       1.0  0.19878  0.53627  0.30336  1.0000
  H   H22       1.0  0.26052  0.57377  0.31701  1.0000
  H   H23       1.0  0.33797  0.58435  0.34693  1.0000
  H   H24       1.0  0.37558  0.56027  0.33302  1.0000
  H   H25       1.0  0.33686  0.80045  0.30335  1.0000
  H   H26       1.0  0.31263  0.73871  0.31699  1.0000
  N   N12       1.0  0.31939  0.63149  0.33737  1.0000
  C   C44       1.0  0.29692  0.64431  0.33773  1.0000
  N   N13       1.0  0.31148  0.67984  0.33740  1.0000
  C   C45       1.0  0.40397  0.84969  0.30553  1.0000
  C   C46       1.0  0.14955  0.55415  0.30549  1.0000
  H   H27       1.0  0.14148  0.53387  0.26402  1.0000
  H   H28       1.0  0.39180  0.85776  0.26397  1.0000
  C   C47       1.0  0.73942  0.37696  0.32311  1.0000
  C   C48       1.0  0.76231  0.36297  0.32115  1.0000
  C   C49       1.0  0.79883  0.38470  0.33146  1.0000
  C   C50       1.0  0.81386  0.42133  0.34406  1.0000
  C   C51       1.0  0.79126  0.43555  0.34496  1.0000
  C   C52       1.0  0.75476  0.41378  0.33418  1.0000
  C   C53       1.0  0.63626  0.39918  0.32105  1.0000
  C   C54       1.0  0.61453  0.41397  0.33134  1.0000
  C   C55       1.0  0.60688  0.18538  0.34415  1.0000
  C   C56       1.0  0.64369  0.20798  0.34506  1.0000
  C   C57       1.0  0.65842  0.24448  0.33430  1.0000
  H   H29       1.0  0.80112  0.46192  0.35447  1.0000
  H   H30       1.0  0.73947  0.42526  0.33672  1.0000
  H   H31       1.0  0.66267  0.41593  0.31375  1.0000
  H   H32       1.0  0.62593  0.44078  0.33188  1.0000
  H   H33       1.0  0.66021  0.19813  0.35464  1.0000
  H   H34       1.0  0.68519  0.25978  0.33687  1.0000
  N   N14       1.0  0.68017  0.36796  0.31837  1.0000
  C   C58       1.0  0.70223  0.35466  0.31797  1.0000
  N   N15       1.0  0.68719  0.31907  0.31845  1.0000
  C   C59       1.0  0.59284  0.14974  0.35993  1.0000
  C   C60       1.0  0.84950  0.44292  0.35986  1.0000
  H   H35       1.0  0.85725  0.46387  0.39882  1.0000
  H   H36       1.0  0.60602  0.14199  0.39892  1.0000
  C   C61       1.0  0.51278  0.47522  0.41906  1.0000
  C   C62       1.0  0.53023  0.45564  0.41389  1.0000
  H   H37       1.0  0.53250  0.44356  0.46974  1.0000
  C   C63       1.0  0.49306  0.51180  0.34341  1.0000
  C   C64       1.0  0.45828  0.55088  0.34572  1.0000
  C   C65       1.0  0.46000  0.53397  0.42385  1.0000
  C   C66       1.0  0.47763  0.51450  0.42409  1.0000
  C   C67       1.0  0.48016  0.49769  0.50160  1.0000
  C   C68       1.0  0.49764  0.47825  0.49913  1.0000
  H   H38       1.0  0.46925  0.49940  0.56028  1.0000
  H   H39       1.0  0.49906  0.46620  0.55607  1.0000
  H   H40       1.0  0.44849  0.53606  0.48114  1.0000
  N   N16       1.0  0.44049  0.56797  0.34835  1.0000
  C   C69       1.0  0.52397  0.03741  0.41914  1.0000
  C   C70       1.0  0.54355  0.07444  0.41397  1.0000
  H   H41       1.0  0.55559  0.08880  0.46984  1.0000
  C   C71       1.0  0.48746  0.98111  0.34344  1.0000
  C   C72       1.0  0.44840  0.90724  0.34577  1.0000
  C   C73       1.0  0.46523  0.92588  0.42395  1.0000
  C   C74       1.0  0.48470  0.96299  0.42419  1.0000
  C   C75       1.0  0.50145  0.98233  0.50173  1.0000
  C   C76       1.0  0.52089  0.01925  0.49926  1.0000
  H   H42       1.0  0.49969  0.96971  0.56046  1.0000
  H   H43       1.0  0.53289  0.03273  0.55623  1.0000
  H   H44       1.0  0.46310  0.91229  0.48129  1.0000
  N   N17       1.0  0.43128  0.87237  0.34845  1.0000
  C   C77       1.0  0.96182  0.48640  0.41909  1.0000
  C   C78       1.0  0.92479  0.46893  0.41393  1.0000
  H   H45       1.0  0.91043  0.46662  0.46979  1.0000
  C   C79       1.0  0.01813  0.50619  0.34341  1.0000
  C   C80       1.0  0.09199  0.54101  0.34572  1.0000
  C   C81       1.0  0.07335  0.53922  0.42389  1.0000
  C   C82       1.0  0.03625  0.52157  0.42413  1.0000
  C   C83       1.0  0.01690  0.51898  0.50167  1.0000
  C   C84       1.0  0.97998  0.50148  0.49921  1.0000
  H   H46       1.0  0.02952  0.52986  0.56038  1.0000
  H   H47       1.0  0.96651  0.50002  0.55616  1.0000
  H   H48       1.0  0.08694  0.55068  0.48122  1.0000
  N   N18       1.0  0.12686  0.55878  0.34839  1.0000
