data_image0
_chemical_formula_structural       C2HC2H3N2C3NC2NCH3CH3CHC3NC2NCH3CH3CHC4NC4NH4N2C3H2CHC3H2CHC2HC2H3N2C3NC2NCH3CH3CHC3NC2NCH3CH3CHC4NC4NH4N2C3H2CHC3H2CHC2HC2H3N2C3NC2NCH3CH3CHC3NC2NCH3CH3CHC4NC4NH4N2C3H2CHC3H2CHC2HC2H3N2C3NC2NCH3CH3CHC3NC2NCH3CH3CHC4NC4NH4N2C3H2CHC3H2CH
_chemical_formula_sum              "C144 H112 N40"
_cell_length_a       31.4882
_cell_length_b       31.4882
_cell_length_c       14.9644
_cell_angle_alpha    90
_cell_angle_beta     90
_cell_angle_gamma    90

_space_group_name_H-M_alt    "P 1"
_space_group_IT_number       1

loop_
  _space_group_symop_operation_xyz
  'x, y, z'

loop_
  _atom_site_type_symbol
  _atom_site_label
  _atom_site_symmetry_multiplicity
  _atom_site_fract_x
  _atom_site_fract_y
  _atom_site_fract_z
  _atom_site_occupancy
  C   C1        1.0  0.47784  0.45694  0.29674  1.0000
  C   C2        1.0  0.44639  0.42482  0.30029  1.0000
  H   H1        1.0  0.00822  0.44663  0.29024  1.0000
  C   C3        1.0  0.02267  0.11034  0.31017  1.0000
  C   C4        1.0  0.99157  0.07803  0.31010  1.0000
  H   H2        1.0  0.46108  0.08836  0.31027  1.0000
  H   H3        1.0  0.08971  0.16033  0.32102  1.0000
  H   H4        1.0  0.37858  0.37538  0.31167  1.0000
  N   N1        1.0  0.01215  0.15205  0.30675  1.0000
  N   N2        1.0  0.45575  0.38281  0.29563  1.0000
  C   C5        1.0  0.98625  0.31287  0.28294  1.0000
  C   C6        1.0  0.01765  0.28608  0.24499  1.0000
  C   C7        1.0  0.01496  0.24116  0.25322  1.0000
  N   N3        1.0  0.04457  0.21779  0.20898  1.0000
  C   C8        1.0  0.07659  0.23368  0.15842  1.0000
  C   C9        1.0  0.07921  0.27841  0.15050  1.0000
  N   N4        1.0  0.04969  0.30206  0.19415  1.0000
  C   C10       1.0  0.10556  0.20344  0.11386  1.0000
  H   H5        1.0  0.09697  0.17059  0.12883  1.0000
  H   H6        1.0  0.13805  0.20873  0.13657  1.0000
  H   H7        1.0  0.60403  0.20775  0.04157  1.0000
  C   C11       1.0  0.11091  0.30184  0.09729  1.0000
  H   H8        1.0  0.13353  0.28118  0.06344  1.0000
  H   H9        1.0  0.12843  0.32263  0.14195  1.0000
  H   H10       1.0  0.59483  0.32111  0.04693  1.0000
  C   C12       1.0  0.98947  0.35769  0.27816  1.0000
  H   H11       1.0  0.01653  0.37163  0.25449  1.0000
  C   C13       1.0  0.18957  0.01599  0.28772  1.0000
  C   C14       1.0  0.21635  0.98457  0.24984  1.0000
  C   C15       1.0  0.26127  0.98727  0.25793  1.0000
  N   N5        1.0  0.28461  0.95775  0.21337  1.0000
  C   C16       1.0  0.26869  0.92576  0.16275  1.0000
  C   C17       1.0  0.22396  0.92303  0.15527  1.0000
  N   N6        1.0  0.20034  0.95251  0.19909  1.0000
  C   C18       1.0  0.29889  0.89691  0.11773  1.0000
  H   H12       1.0  0.33176  0.90560  0.13225  1.0000
  H   H13       1.0  0.29435  0.89845  0.04550  1.0000
  H   H14       1.0  0.29378  0.36439  0.14045  1.0000
  C   C19       1.0  0.20046  0.89119  0.10258  1.0000
  H   H15       1.0  0.22109  0.86867  0.06833  1.0000
  H   H16       1.0  0.18086  0.90714  0.05259  1.0000
  H   H17       1.0  0.18001  0.37357  0.14778  1.0000
  C   C20       1.0  0.14475  0.01287  0.28256  1.0000
  H   H18       1.0  0.13082  0.98577  0.25903  1.0000
  C   C21       1.0  0.46871  0.50123  0.30479  1.0000
  C   C22       1.0  0.40297  0.43600  0.30916  1.0000
  C   C23       1.0  0.39224  0.47967  0.31262  1.0000
  C   C24       1.0  0.42453  0.51079  0.31278  1.0000
  N   N7        1.0  0.37207  0.40549  0.31370  1.0000
  C   C25       1.0  0.00122  0.03378  0.30466  1.0000
  C   C26       1.0  0.04559  0.02462  0.29888  1.0000
  C   C27       1.0  0.07765  0.05614  0.30194  1.0000
  C   C28       1.0  0.06638  0.09963  0.30863  1.0000
  N   N8        1.0  0.09683  0.13059  0.31282  1.0000
  H   H19       1.0  0.12697  0.12408  0.31213  1.0000
  H   H20       1.0  0.34243  0.41253  0.32366  1.0000
  H   H21       1.0  0.41421  0.04124  0.31636  1.0000
  H   H22       1.0  0.05598  0.49416  0.29537  1.0000
  N   N9        1.0  0.11969  0.04678  0.29862  1.0000
  N   N10       1.0  0.35051  0.49018  0.31040  1.0000
  C   C29       1.0  0.98091  0.22164  0.30016  1.0000
  C   C30       1.0  0.94843  0.24846  0.33288  1.0000
  C   C31       1.0  0.95117  0.29293  0.32498  1.0000
  H   H23       1.0  0.92752  0.31066  0.35328  1.0000
  H   H24       1.0  0.92298  0.23593  0.36632  1.0000
  C   C32       1.0  0.97762  0.17725  0.31357  1.0000
  H   H25       1.0  0.95018  0.16432  0.33805  1.0000
  C   C33       1.0  0.28080  0.02129  0.30500  1.0000
  C   C34       1.0  0.25398  0.05375  0.33780  1.0000
  C   C35       1.0  0.20951  0.05108  0.32974  1.0000
  H   H26       1.0  0.19177  0.07475  0.35795  1.0000
  H   H27       1.0  0.26652  0.07920  0.37125  1.0000
  C   C36       1.0  0.32520  0.02456  0.31840  1.0000
  H   H28       1.0  0.33811  0.05205  0.34265  1.0000
  C   C37       1.0  0.47784  0.95694  0.29674  1.0000
  C   C38       1.0  0.44639  0.92481  0.30029  1.0000
  H   H29       1.0  0.00822  0.94663  0.29024  1.0000
  C   C39       1.0  0.02267  0.61034  0.31017  1.0000
  C   C40       1.0  0.99157  0.57803  0.31010  1.0000
  H   H30       1.0  0.46108  0.58836  0.31027  1.0000
  H   H31       1.0  0.08971  0.66033  0.32102  1.0000
  H   H32       1.0  0.37858  0.87537  0.31167  1.0000
  N   N11       1.0  0.01215  0.65205  0.30675  1.0000
  N   N12       1.0  0.45575  0.88281  0.29563  1.0000
  C   C41       1.0  0.98625  0.81287  0.28294  1.0000
  C   C42       1.0  0.01765  0.78608  0.24499  1.0000
  C   C43       1.0  0.01496  0.74116  0.25322  1.0000
  N   N13       1.0  0.04457  0.71779  0.20898  1.0000
  C   C44       1.0  0.07659  0.73368  0.15842  1.0000
  C   C45       1.0  0.07921  0.77841  0.15050  1.0000
  N   N14       1.0  0.04969  0.80206  0.19415  1.0000
  C   C46       1.0  0.10556  0.70344  0.11386  1.0000
  H   H33       1.0  0.09697  0.67059  0.12883  1.0000
  H   H34       1.0  0.13805  0.70873  0.13657  1.0000
  H   H35       1.0  0.60403  0.70775  0.04157  1.0000
  C   C47       1.0  0.11091  0.80184  0.09729  1.0000
  H   H36       1.0  0.13353  0.78118  0.06344  1.0000
  H   H37       1.0  0.12843  0.82263  0.14195  1.0000
  H   H38       1.0  0.59483  0.82111  0.04693  1.0000
  C   C48       1.0  0.98947  0.85769  0.27816  1.0000
  H   H39       1.0  0.01653  0.87163  0.25449  1.0000
  C   C49       1.0  0.18957  0.51600  0.28772  1.0000
  C   C50       1.0  0.21635  0.48457  0.24984  1.0000
  C   C51       1.0  0.26127  0.48727  0.25793  1.0000
  N   N15       1.0  0.28461  0.45775  0.21337  1.0000
  C   C52       1.0  0.26869  0.42576  0.16275  1.0000
  C   C53       1.0  0.22396  0.42303  0.15527  1.0000
  N   N16       1.0  0.20034  0.45251  0.19909  1.0000
  C   C54       1.0  0.29889  0.39690  0.11773  1.0000
  H   H40       1.0  0.33176  0.40560  0.13225  1.0000
  H   H41       1.0  0.29435  0.39845  0.04550  1.0000
  H   H42       1.0  0.29378  0.86439  0.14045  1.0000
  C   C55       1.0  0.20046  0.39119  0.10258  1.0000
  H   H43       1.0  0.22109  0.36867  0.06833  1.0000
  H   H44       1.0  0.18086  0.40714  0.05259  1.0000
  H   H45       1.0  0.18001  0.87357  0.14778  1.0000
  C   C56       1.0  0.14475  0.51287  0.28256  1.0000
  H   H46       1.0  0.13082  0.48577  0.25903  1.0000
  C   C57       1.0  0.46871  0.00123  0.30479  1.0000
  C   C58       1.0  0.40297  0.93600  0.30916  1.0000
  C   C59       1.0  0.39224  0.97967  0.31262  1.0000
  C   C60       1.0  0.42453  0.01079  0.31278  1.0000
  N   N17       1.0  0.37207  0.90549  0.31370  1.0000
  C   C61       1.0  0.00122  0.53378  0.30466  1.0000
  C   C62       1.0  0.04559  0.52462  0.29888  1.0000
  C   C63       1.0  0.07765  0.55614  0.30194  1.0000
  C   C64       1.0  0.06638  0.59963  0.30863  1.0000
  N   N18       1.0  0.09683  0.63059  0.31282  1.0000
  H   H47       1.0  0.12697  0.62408  0.31213  1.0000
  H   H48       1.0  0.34243  0.91253  0.32366  1.0000
  H   H49       1.0  0.41421  0.54124  0.31636  1.0000
  H   H50       1.0  0.05598  0.99416  0.29537  1.0000
  N   N19       1.0  0.11969  0.54678  0.29862  1.0000
  N   N20       1.0  0.35051  0.99018  0.31040  1.0000
  C   C65       1.0  0.98091  0.72164  0.30016  1.0000
  C   C66       1.0  0.94843  0.74846  0.33288  1.0000
  C   C67       1.0  0.95117  0.79293  0.32498  1.0000
  H   H51       1.0  0.92752  0.81066  0.35328  1.0000
  H   H52       1.0  0.92298  0.73593  0.36632  1.0000
  C   C68       1.0  0.97762  0.67725  0.31357  1.0000
  H   H53       1.0  0.95018  0.66433  0.33805  1.0000
  C   C69       1.0  0.28080  0.52129  0.30500  1.0000
  C   C70       1.0  0.25398  0.55375  0.33780  1.0000
  C   C71       1.0  0.20951  0.55107  0.32974  1.0000
  H   H54       1.0  0.19177  0.57475  0.35795  1.0000
  H   H55       1.0  0.26652  0.57920  0.37125  1.0000
  C   C72       1.0  0.32520  0.52456  0.31840  1.0000
  H   H56       1.0  0.33811  0.55205  0.34265  1.0000
  C   C73       1.0  0.97784  0.45694  0.29674  1.0000
  C   C74       1.0  0.94639  0.42482  0.30029  1.0000
  H   H57       1.0  0.50822  0.44663  0.29024  1.0000
  C   C75       1.0  0.52267  0.11034  0.31017  1.0000
  C   C76       1.0  0.49157  0.07803  0.31010  1.0000
  H   H58       1.0  0.96108  0.08836  0.31027  1.0000
  H   H59       1.0  0.58971  0.16033  0.32102  1.0000
  H   H60       1.0  0.87858  0.37538  0.31167  1.0000
  N   N21       1.0  0.51215  0.15205  0.30675  1.0000
  N   N22       1.0  0.95575  0.38281  0.29563  1.0000
  C   C77       1.0  0.48625  0.31287  0.28294  1.0000
  C   C78       1.0  0.51765  0.28608  0.24499  1.0000
  C   C79       1.0  0.51496  0.24116  0.25322  1.0000
  N   N23       1.0  0.54456  0.21779  0.20898  1.0000
  C   C80       1.0  0.57659  0.23368  0.15842  1.0000
  C   C81       1.0  0.57921  0.27841  0.15050  1.0000
  N   N24       1.0  0.54969  0.30206  0.19415  1.0000
  C   C82       1.0  0.60556  0.20344  0.11386  1.0000
  H   H61       1.0  0.59697  0.17059  0.12883  1.0000
  H   H62       1.0  0.63805  0.20873  0.13657  1.0000
  H   H63       1.0  0.10403  0.20775  0.04157  1.0000
  C   C83       1.0  0.61091  0.30184  0.09729  1.0000
  H   H64       1.0  0.63353  0.28118  0.06344  1.0000
  H   H65       1.0  0.62843  0.32263  0.14195  1.0000
  H   H66       1.0  0.09483  0.32111  0.04693  1.0000
  C   C84       1.0  0.48946  0.35769  0.27816  1.0000
  H   H67       1.0  0.51653  0.37163  0.25449  1.0000
  C   C85       1.0  0.68957  0.01599  0.28772  1.0000
  C   C86       1.0  0.71635  0.98457  0.24984  1.0000
  C   C87       1.0  0.76127  0.98727  0.25793  1.0000
  N   N25       1.0  0.78461  0.95775  0.21337  1.0000
  C   C88       1.0  0.76869  0.92576  0.16275  1.0000
  C   C89       1.0  0.72396  0.92303  0.15527  1.0000
  N   N26       1.0  0.70034  0.95251  0.19909  1.0000
  C   C90       1.0  0.79890  0.89691  0.11773  1.0000
  H   H68       1.0  0.83176  0.90560  0.13225  1.0000
  H   H69       1.0  0.79435  0.89845  0.04550  1.0000
  H   H70       1.0  0.79378  0.36439  0.14045  1.0000
  C   C91       1.0  0.70046  0.89119  0.10258  1.0000
  H   H71       1.0  0.72109  0.86867  0.06833  1.0000
  H   H72       1.0  0.68086  0.90714  0.05259  1.0000
  H   H73       1.0  0.68001  0.37357  0.14778  1.0000
  C   C92       1.0  0.64475  0.01287  0.28256  1.0000
  H   H74       1.0  0.63082  0.98577  0.25903  1.0000
  C   C93       1.0  0.96871  0.50123  0.30479  1.0000
  C   C94       1.0  0.90297  0.43600  0.30916  1.0000
  C   C95       1.0  0.89224  0.47967  0.31262  1.0000
  C   C96       1.0  0.92453  0.51079  0.31278  1.0000
  N   N27       1.0  0.87207  0.40549  0.31370  1.0000
  C   C97       1.0  0.50123  0.03378  0.30466  1.0000
  C   C98       1.0  0.54559  0.02462  0.29888  1.0000
  C   C99       1.0  0.57765  0.05614  0.30194  1.0000
  C   C100      1.0  0.56638  0.09963  0.30863  1.0000
  N   N28       1.0  0.59683  0.13059  0.31282  1.0000
  H   H75       1.0  0.62697  0.12408  0.31213  1.0000
  H   H76       1.0  0.84243  0.41253  0.32366  1.0000
  H   H77       1.0  0.91421  0.04124  0.31636  1.0000
  H   H78       1.0  0.55598  0.49416  0.29537  1.0000
  N   N29       1.0  0.61969  0.04678  0.29862  1.0000
  N   N30       1.0  0.85051  0.49018  0.31040  1.0000
  C   C101      1.0  0.48091  0.22164  0.30016  1.0000
  C   C102      1.0  0.44843  0.24846  0.33288  1.0000
  C   C103      1.0  0.45117  0.29293  0.32498  1.0000
  H   H79       1.0  0.42752  0.31066  0.35328  1.0000
  H   H80       1.0  0.42298  0.23593  0.36632  1.0000
  C   C104      1.0  0.47762  0.17725  0.31357  1.0000
  H   H81       1.0  0.45018  0.16432  0.33805  1.0000
  C   C105      1.0  0.78080  0.02129  0.30500  1.0000
  C   C106      1.0  0.75398  0.05375  0.33780  1.0000
  C   C107      1.0  0.70951  0.05108  0.32974  1.0000
  H   H82       1.0  0.69177  0.07475  0.35795  1.0000
  H   H83       1.0  0.76652  0.07920  0.37125  1.0000
  C   C108      1.0  0.82520  0.02456  0.31840  1.0000
  H   H84       1.0  0.83812  0.05205  0.34265  1.0000
  C   C109      1.0  0.97784  0.95694  0.29674  1.0000
  C   C110      1.0  0.94639  0.92481  0.30029  1.0000
  H   H85       1.0  0.50822  0.94663  0.29024  1.0000
  C   C111      1.0  0.52267  0.61034  0.31017  1.0000
  C   C112      1.0  0.49157  0.57803  0.31010  1.0000
  H   H86       1.0  0.96108  0.58836  0.31027  1.0000
  H   H87       1.0  0.58971  0.66033  0.32102  1.0000
  H   H88       1.0  0.87858  0.87537  0.31167  1.0000
  N   N31       1.0  0.51215  0.65205  0.30675  1.0000
  N   N32       1.0  0.95575  0.88281  0.29563  1.0000
  C   C113      1.0  0.48625  0.81287  0.28294  1.0000
  C   C114      1.0  0.51765  0.78608  0.24499  1.0000
  C   C115      1.0  0.51496  0.74116  0.25322  1.0000
  N   N33       1.0  0.54456  0.71779  0.20898  1.0000
  C   C116      1.0  0.57659  0.73368  0.15842  1.0000
  C   C117      1.0  0.57921  0.77841  0.15050  1.0000
  N   N34       1.0  0.54969  0.80206  0.19415  1.0000
  C   C118      1.0  0.60556  0.70344  0.11386  1.0000
  H   H89       1.0  0.59697  0.67059  0.12883  1.0000
  H   H90       1.0  0.63805  0.70873  0.13657  1.0000
  H   H91       1.0  0.10403  0.70775  0.04157  1.0000
  C   C119      1.0  0.61091  0.80184  0.09729  1.0000
  H   H92       1.0  0.63353  0.78118  0.06344  1.0000
  H   H93       1.0  0.62843  0.82263  0.14195  1.0000
  H   H94       1.0  0.09483  0.82111  0.04693  1.0000
  C   C120      1.0  0.48946  0.85769  0.27816  1.0000
  H   H95       1.0  0.51653  0.87163  0.25449  1.0000
  C   C121      1.0  0.68957  0.51600  0.28772  1.0000
  C   C122      1.0  0.71635  0.48457  0.24984  1.0000
  C   C123      1.0  0.76127  0.48727  0.25793  1.0000
  N   N35       1.0  0.78461  0.45775  0.21337  1.0000
  C   C124      1.0  0.76869  0.42576  0.16275  1.0000
  C   C125      1.0  0.72396  0.42303  0.15527  1.0000
  N   N36       1.0  0.70034  0.45251  0.19909  1.0000
  C   C126      1.0  0.79890  0.39690  0.11773  1.0000
  H   H96       1.0  0.83176  0.40560  0.13225  1.0000
  H   H97       1.0  0.79435  0.39845  0.04550  1.0000
  H   H98       1.0  0.79378  0.86439  0.14045  1.0000
  C   C127      1.0  0.70046  0.39119  0.10258  1.0000
  H   H99       1.0  0.72109  0.36867  0.06833  1.0000
  H   H100      1.0  0.68086  0.40714  0.05259  1.0000
  H   H101      1.0  0.68001  0.87357  0.14778  1.0000
  C   C128      1.0  0.64475  0.51287  0.28256  1.0000
  H   H102      1.0  0.63082  0.48577  0.25903  1.0000
  C   C129      1.0  0.96871  0.00123  0.30479  1.0000
  C   C130      1.0  0.90297  0.93600  0.30916  1.0000
  C   C131      1.0  0.89224  0.97967  0.31262  1.0000
  C   C132      1.0  0.92453  0.01079  0.31278  1.0000
  N   N37       1.0  0.87207  0.90549  0.31370  1.0000
  C   C133      1.0  0.50123  0.53378  0.30466  1.0000
  C   C134      1.0  0.54559  0.52462  0.29888  1.0000
  C   C135      1.0  0.57765  0.55614  0.30194  1.0000
  C   C136      1.0  0.56638  0.59963  0.30863  1.0000
  N   N38       1.0  0.59683  0.63059  0.31282  1.0000
  H   H103      1.0  0.62697  0.62408  0.31213  1.0000
  H   H104      1.0  0.84243  0.91253  0.32366  1.0000
  H   H105      1.0  0.91421  0.54124  0.31636  1.0000
  H   H106      1.0  0.55598  0.99416  0.29537  1.0000
  N   N39       1.0  0.61969  0.54678  0.29862  1.0000
  N   N40       1.0  0.85051  0.99018  0.31040  1.0000
  C   C137      1.0  0.48091  0.72164  0.30016  1.0000
  C   C138      1.0  0.44843  0.74846  0.33288  1.0000
  C   C139      1.0  0.45117  0.79293  0.32498  1.0000
  H   H107      1.0  0.42752  0.81066  0.35328  1.0000
  H   H108      1.0  0.42298  0.73593  0.36632  1.0000
  C   C140      1.0  0.47762  0.67725  0.31357  1.0000
  H   H109      1.0  0.45018  0.66433  0.33805  1.0000
  C   C141      1.0  0.78080  0.52129  0.30500  1.0000
  C   C142      1.0  0.75398  0.55375  0.33780  1.0000
  C   C143      1.0  0.70951  0.55107  0.32974  1.0000
  H   H110      1.0  0.69177  0.57475  0.35795  1.0000
  H   H111      1.0  0.76652  0.57920  0.37125  1.0000
  C   C144      1.0  0.82520  0.52456  0.31840  1.0000
  H   H112      1.0  0.83812  0.55205  0.34265  1.0000
