data_image0
_chemical_formula_structural       C3H2C5HCH3C4HCH3C4HCH3N6C20H13C24H15C24H15C24H15N6C4HCH3C4HCH3C4HCH3
_chemical_formula_sum              "C126 H84 N12"
_cell_length_a       45.6181
_cell_length_b       45.6182
_cell_length_c       14.9566
_cell_angle_alpha    90
_cell_angle_beta     90
_cell_angle_gamma    120

_space_group_name_H-M_alt    "P 1"
_space_group_IT_number       1

loop_
  _space_group_symop_operation_xyz
  'x, y, z'

loop_
  _atom_site_type_symbol
  _atom_site_label
  _atom_site_symmetry_multiplicity
  _atom_site_fract_x
  _atom_site_fract_y
  _atom_site_fract_z
  _atom_site_occupancy
  C   C1        1.0  0.01211  0.03356  0.35375  1.0000
  C   C2        1.0  0.03098  0.01661  0.35165  1.0000
  C   C3        1.0  0.01261  0.98079  0.34739  1.0000
  H   H1        1.0  0.02475  0.05936  0.35984  1.0000
  H   H2        1.0  0.02576  0.96806  0.34568  1.0000
  C   C4        1.0  0.06736  0.03522  0.34854  1.0000
  C   C5        1.0  0.24673  0.12365  0.32431  1.0000
  C   C6        1.0  0.22903  0.11418  0.24224  1.0000
  C   C7        1.0  0.19322  0.09606  0.24018  1.0000
  C   C8        1.0  0.17571  0.08820  0.32334  1.0000
  H   H3        1.0  0.24233  0.11978  0.18359  1.0000
  C   C9        1.0  0.17555  0.08436  0.15270  1.0000
  H   H4        1.0  0.19300  0.08849  0.09780  1.0000
  H   H5        1.0  0.16228  0.09797  0.13650  1.0000
  H   H6        1.0  0.15735  0.05729  0.15551  1.0000
  C   C10       1.0  0.86667  0.12181  0.31828  1.0000
  C   C11       1.0  0.87036  0.10736  0.23840  1.0000
  C   C12       1.0  0.88844  0.08962  0.23727  1.0000
  C   C13       1.0  0.90294  0.08702  0.31893  1.0000
  H   H7        1.0  0.86033  0.11020  0.18012  1.0000
  C   C14       1.0  0.89038  0.07325  0.15316  1.0000
  H   H8        1.0  0.87519  0.07516  0.09948  1.0000
  H   H9        1.0  0.88113  0.04642  0.16497  1.0000
  H   H10       1.0  0.91647  0.08521  0.12975  1.0000
  C   C15       1.0  0.86844  0.74614  0.31235  1.0000
  C   C16       1.0  0.87653  0.76351  0.22977  1.0000
  C   C17       1.0  0.89417  0.79933  0.22664  1.0000
  C   C18       1.0  0.90399  0.81724  0.30924  1.0000
  H   H11       1.0  0.86869  0.74996  0.17153  1.0000
  C   C19       1.0  0.89985  0.81661  0.13866  1.0000
  H   H12       1.0  0.88635  0.79891  0.08436  1.0000
  H   H13       1.0  0.92667  0.82979  0.12185  1.0000
  H   H14       1.0  0.89100  0.83483  0.14104  1.0000
  N   N1        1.0  0.55199  0.14469  0.28201  1.0000
  N   N2        1.0  0.58028  0.14409  0.28031  1.0000
  N   N3        1.0  0.84661  0.40821  0.28047  1.0000
  N   N4        1.0  0.84726  0.43712  0.27898  1.0000
  N   N5        1.0  0.58434  0.43982  0.28146  1.0000
  N   N6        1.0  0.55545  0.41154  0.28006  1.0000
  C   C20       1.0  0.97637  0.01614  0.34838  1.0000
  C   C21       1.0  0.97676  0.96198  0.34334  1.0000
  C   C22       1.0  0.95927  0.98037  0.34337  1.0000
  C   C23       1.0  0.08479  0.06529  0.29732  1.0000
  C   C24       1.0  0.12028  0.08301  0.29058  1.0000
  C   C25       1.0  0.13987  0.07091  0.33281  1.0000
  C   C26       1.0  0.12285  0.04156  0.38638  1.0000
  C   C27       1.0  0.08728  0.02399  0.39373  1.0000
  C   C28       1.0  0.95834  0.03437  0.34346  1.0000
  C   C29       1.0  0.97012  0.06338  0.28833  1.0000
  C   C30       1.0  0.95222  0.08098  0.28127  1.0000
  C   C31       1.0  0.92167  0.07001  0.32851  1.0000
  C   C32       1.0  0.91016  0.04163  0.38544  1.0000
  C   C33       1.0  0.92808  0.02396  0.39219  1.0000
  C   C34       1.0  0.95878  0.92568  0.33586  1.0000
  C   C35       1.0  0.92784  0.90539  0.38162  1.0000
  C   C36       1.0  0.90998  0.86986  0.37322  1.0000
  C   C37       1.0  0.92222  0.85316  0.31804  1.0000
  C   C38       1.0  0.95361  0.87314  0.27462  1.0000
  C   C39       1.0  0.97129  0.90864  0.28255  1.0000
  H   H15       1.0  0.96170  0.10190  0.24099  1.0000
  H   H16       1.0  0.99159  0.07163  0.25077  1.0000
  H   H17       1.0  0.88817  0.03311  0.42089  1.0000
  H   H18       1.0  0.91887  0.00345  0.43386  1.0000
  H   H19       1.0  0.91806  0.91630  0.42274  1.0000
  H   H20       1.0  0.88756  0.85626  0.40683  1.0000
  H   H21       1.0  0.99333  0.92195  0.24733  1.0000
  H   H22       1.0  0.96418  0.86201  0.23736  1.0000
  H   H23       1.0  0.07605  0.00280  0.43303  1.0000
  H   H24       1.0  0.13622  0.03224  0.41896  1.0000
  H   H25       1.0  0.13169  0.10496  0.25428  1.0000
  H   H26       1.0  0.07176  0.07437  0.26221  1.0000
  H   H27       1.0  0.93353  0.96752  0.33543  1.0000
  C   C40       1.0  0.44496  0.25245  0.33826  1.0000
  C   C41       1.0  0.40928  0.23396  0.34132  1.0000
  C   C42       1.0  0.39136  0.19808  0.34215  1.0000
  C   C43       1.0  0.41006  0.18087  0.34106  1.0000
  C   C44       1.0  0.44586  0.19870  0.33730  1.0000
  C   C45       1.0  0.46270  0.23448  0.33735  1.0000
  C   C46       1.0  0.35525  0.17972  0.33923  1.0000
  C   C47       1.0  0.33767  0.18739  0.27393  1.0000
  C   C48       1.0  0.30214  0.16894  0.26893  1.0000
  C   C49       1.0  0.28276  0.14236  0.32965  1.0000
  C   C50       1.0  0.30034  0.13516  0.39616  1.0000
  C   C51       1.0  0.33598  0.15318  0.40007  1.0000
  C   C52       1.0  0.46363  0.28839  0.33509  1.0000
  C   C53       1.0  0.46417  0.30797  0.40888  1.0000
  C   C54       1.0  0.48832  0.34274  0.41358  1.0000
  C   C55       1.0  0.51242  0.35907  0.34453  1.0000
  C   C56       1.0  0.51006  0.33966  0.26809  1.0000
  C   C57       1.0  0.48633  0.30489  0.26379  1.0000
  C   C58       1.0  0.46536  0.18204  0.33353  1.0000
  C   C59       1.0  0.49345  0.19402  0.27510  1.0000
  C   C60       1.0  0.51641  0.18210  0.28114  1.0000
  C   C61       1.0  0.51193  0.15731  0.34497  1.0000
  C   C62       1.0  0.48233  0.14321  0.39819  1.0000
  C   C63       1.0  0.45947  0.15548  0.39291  1.0000
  H   H28       1.0  0.48902  0.35572  0.47010  1.0000
  H   H29       1.0  0.44880  0.29658  0.46285  1.0000
  H   H30       1.0  0.52742  0.34993  0.21748  1.0000
  H   H31       1.0  0.48707  0.29129  0.21020  1.0000
  H   H32       1.0  0.49854  0.21295  0.23026  1.0000
  H   H33       1.0  0.53757  0.19326  0.24159  1.0000
  H   H34       1.0  0.43965  0.14629  0.43695  1.0000
  H   H35       1.0  0.47776  0.12470  0.44375  1.0000
  H   H36       1.0  0.34779  0.14707  0.44878  1.0000
  H   H37       1.0  0.28733  0.11605  0.44121  1.0000
  H   H38       1.0  0.29054  0.17560  0.22095  1.0000
  H   H39       1.0  0.35067  0.20616  0.22801  1.0000
  H   H40       1.0  0.39625  0.24686  0.34175  1.0000
  H   H41       1.0  0.48864  0.24794  0.33785  1.0000
  H   H42       1.0  0.39739  0.15496  0.33872  1.0000
  C   C64       1.0  0.73963  0.19359  0.33696  1.0000
  C   C65       1.0  0.75807  0.17636  0.33926  1.0000
  C   C66       1.0  0.79398  0.19419  0.33814  1.0000
  C   C67       1.0  0.81120  0.23011  0.33674  1.0000
  C   C68       1.0  0.79341  0.24815  0.33428  1.0000
  C   C69       1.0  0.75764  0.22928  0.33559  1.0000
  C   C70       1.0  0.81215  0.17618  0.33408  1.0000
  C   C71       1.0  0.80235  0.14905  0.27338  1.0000
  C   C72       1.0  0.82010  0.13127  0.26821  1.0000
  C   C73       1.0  0.84845  0.13975  0.32358  1.0000
  C   C74       1.0  0.85794  0.16662  0.38520  1.0000
  C   C75       1.0  0.84038  0.18470  0.38976  1.0000
  C   C76       1.0  0.70369  0.17631  0.33439  1.0000
  C   C77       1.0  0.68425  0.15705  0.40807  1.0000
  C   C78       1.0  0.64943  0.14619  0.41302  1.0000
  C   C79       1.0  0.63294  0.15385  0.34420  1.0000
  C   C80       1.0  0.65224  0.17113  0.26782  1.0000
  C   C81       1.0  0.68705  0.18241  0.26327  1.0000
  C   C82       1.0  0.81001  0.28431  0.33054  1.0000
  C   C83       1.0  0.79788  0.30039  0.27245  1.0000
  C   C84       1.0  0.80958  0.33522  0.27890  1.0000
  C   C85       1.0  0.83422  0.35552  0.34309  1.0000
  C   C86       1.0  0.84845  0.34007  0.39603  1.0000
  C   C87       1.0  0.83644  0.30500  0.39022  1.0000
  H   H43       1.0  0.63652  0.13374  0.46942  1.0000
  H   H44       1.0  0.69575  0.15308  0.46180  1.0000
  H   H45       1.0  0.64182  0.17815  0.21744  1.0000
  H   H46       1.0  0.70055  0.19688  0.20974  1.0000
  H   H47       1.0  0.77897  0.28652  0.22759  1.0000
  H   H48       1.0  0.79827  0.34515  0.23967  1.0000
  H   H49       1.0  0.84574  0.29439  0.43398  1.0000
  H   H50       1.0  0.86692  0.35402  0.44169  1.0000
  H   H51       1.0  0.84812  0.20390  0.43536  1.0000
  H   H52       1.0  0.87831  0.17381  0.42652  1.0000
  H   H53       1.0  0.81151  0.11151  0.22421  1.0000
  H   H54       1.0  0.78232  0.14220  0.23100  1.0000
  H   H55       1.0  0.74505  0.15043  0.34032  1.0000
  H   H56       1.0  0.74420  0.24180  0.33672  1.0000
  H   H57       1.0  0.83708  0.24336  0.33320  1.0000
  C   C88       1.0  0.79916  0.54802  0.33545  1.0000
  C   C89       1.0  0.81625  0.58371  0.33654  1.0000
  C   C90       1.0  0.79817  0.60153  0.33662  1.0000
  C   C91       1.0  0.76226  0.58270  0.33676  1.0000
  C   C92       1.0  0.74440  0.54686  0.33480  1.0000
  C   C93       1.0  0.76347  0.53016  0.33564  1.0000
  C   C94       1.0  0.81582  0.63762  0.33175  1.0000
  C   C95       1.0  0.84071  0.65478  0.26530  1.0000
  C   C96       1.0  0.85779  0.69029  0.25868  1.0000
  C   C97       1.0  0.85101  0.71010  0.31896  1.0000
  C   C98       1.0  0.82657  0.69294  0.38655  1.0000
  C   C99       1.0  0.80893  0.65732  0.39204  1.0000
  C   C100      1.0  0.81650  0.52940  0.33274  1.0000
  C   C101      1.0  0.83508  0.52857  0.40722  1.0000
  C   C102      1.0  0.84554  0.50430  0.41231  1.0000
  C   C103      1.0  0.83798  0.48031  0.34309  1.0000
  C   C104      1.0  0.82130  0.48290  0.26613  1.0000
  C   C105      1.0  0.81044  0.50677  0.26138  1.0000
  C   C106      1.0  0.70825  0.52715  0.33159  1.0000
  C   C107      1.0  0.69219  0.49884  0.27383  1.0000
  C   C108      1.0  0.65737  0.47572  0.28029  1.0000
  C   C109      1.0  0.63704  0.48015  0.34416  1.0000
  C   C110      1.0  0.65247  0.50989  0.39689  1.0000
  C   C111      1.0  0.68754  0.53298  0.39098  1.0000
  H   H58       1.0  0.85761  0.50349  0.46913  1.0000
  H   H59       1.0  0.83898  0.54394  0.46115  1.0000
  H   H60       1.0  0.81423  0.46555  0.21550  1.0000
  H   H61       1.0  0.79625  0.50610  0.20751  1.0000
  H   H62       1.0  0.70605  0.49382  0.22889  1.0000
  H   H63       1.0  0.64743  0.45448  0.24102  1.0000
  H   H64       1.0  0.69812  0.55296  0.43453  1.0000
  H   H65       1.0  0.63848  0.51448  0.44227  1.0000
  H   H66       1.0  0.79129  0.64585  0.44155  1.0000
  H   H67       1.0  0.82076  0.70625  0.43134  1.0000
  H   H68       1.0  0.87579  0.70157  0.20996  1.0000
  H   H69       1.0  0.84623  0.64148  0.21973  1.0000
  H   H70       1.0  0.84218  0.59682  0.33604  1.0000
  H   H71       1.0  0.75108  0.50422  0.33730  1.0000
  H   H72       1.0  0.74892  0.59525  0.33387  1.0000
  N   N7        1.0  0.19459  0.09746  0.39942  1.0000
  N   N8        1.0  0.22770  0.11395  0.40000  1.0000
  N   N9        1.0  0.89825  0.10143  0.39307  1.0000
  N   N10       1.0  0.88143  0.11771  0.39262  1.0000
  N   N11       1.0  0.89453  0.79863  0.38580  1.0000
  N   N12       1.0  0.87795  0.76552  0.38741  1.0000
  C   C112      1.0  0.59944  0.14848  0.35402  1.0000
  C   C113      1.0  0.58697  0.15343  0.43580  1.0000
  C   C114      1.0  0.55651  0.15458  0.43892  1.0000
  C   C115      1.0  0.53844  0.14975  0.35744  1.0000
  H   H73       1.0  0.60150  0.15899  0.49217  1.0000
  C   C116      1.0  0.54642  0.16370  0.52454  1.0000
  H   H74       1.0  0.56512  0.16989  0.57747  1.0000
  H   H75       1.0  0.52264  0.14249  0.54809  1.0000
  H   H76       1.0  0.54334  0.18572  0.51495  1.0000
  C   C117      1.0  0.84299  0.45193  0.35282  1.0000
  C   C118      1.0  0.83803  0.43441  0.43445  1.0000
  C   C119      1.0  0.83687  0.40279  0.43735  1.0000
  C   C120      1.0  0.84165  0.38956  0.35578  1.0000
  H   H77       1.0  0.83264  0.44341  0.49104  1.0000
  C   C121      1.0  0.82789  0.38357  0.52295  1.0000
  H   H78       1.0  0.82172  0.39604  0.57602  1.0000
  H   H79       1.0  0.84917  0.38106  0.54624  1.0000
  H   H80       1.0  0.80590  0.35845  0.51343  1.0000
  C   C122      1.0  0.54068  0.39253  0.35401  1.0000
  C   C123      1.0  0.55810  0.40522  0.43571  1.0000
  C   C124      1.0  0.58974  0.43568  0.43846  1.0000
  C   C125      1.0  0.60300  0.45354  0.35673  1.0000
  H   H81       1.0  0.54915  0.39083  0.49231  1.0000
  C   C126      1.0  0.60893  0.44599  0.52409  1.0000
  H   H82       1.0  0.59643  0.42742  0.57729  1.0000
  H   H83       1.0  0.61146  0.46981  0.54711  1.0000
  H   H84       1.0  0.63404  0.44908  0.51473  1.0000
