data_image0
_chemical_formula_structural       C4HC3NHCO2HC4HC3NHCO2HC4HC3NHCO2HCNC2H2CO2HCNC2H2CO2HCNC2H2CO2HC6H3C6H3C6H3C6H3CNC2H2CO2HCNC2H2CO2HCNC2H2CO2HC4HC3NHCO2HC4HC3NHCO2HC4HC3NHCO2H
_chemical_formula_sum              "C96 H48 N12 O24"
_cell_length_a       34.2817
_cell_length_b       34.2924
_cell_length_c       14.8813
_cell_angle_alpha    90
_cell_angle_beta     90
_cell_angle_gamma    119.993

_space_group_name_H-M_alt    "P 1"
_space_group_IT_number       1

loop_
  _space_group_symop_operation_xyz
  'x, y, z'

loop_
  _atom_site_type_symbol
  _atom_site_label
  _atom_site_symmetry_multiplicity
  _atom_site_fract_x
  _atom_site_fract_y
  _atom_site_fract_z
  _atom_site_occupancy
  C   C1        1.0  0.34244  0.17382  0.33825  1.0000
  C   C2        1.0  0.24631  0.12667  0.33218  1.0000
  C   C3        1.0  0.27139  0.12286  0.25932  1.0000
  C   C4        1.0  0.31918  0.14642  0.26394  1.0000
  H   H1        1.0  0.33753  0.14487  0.21100  1.0000
  C   C5        1.0  0.19779  0.10445  0.33796  1.0000
  C   C6        1.0  0.10099  0.05358  0.33925  1.0000
  C   C7        1.0  0.12765  0.03988  0.29109  1.0000
  N   N1        1.0  0.17323  0.06501  0.29264  1.0000
  H   H2        1.0  0.11332  0.01151  0.25230  1.0000
  C   C8        1.0  0.25105  0.09971  0.18123  1.0000
  O   O1        1.0  0.25859  0.07011  0.15573  1.0000
  O   O2        1.0  0.23973  0.11917  0.12612  1.0000
  H   H3        1.0  0.22906  0.10858  0.07185  1.0000
  C   C9        1.0  0.83188  0.16883  0.33917  1.0000
  C   C10       1.0  0.87841  0.11919  0.33179  1.0000
  C   C11       1.0  0.88294  0.14888  0.26003  1.0000
  C   C12       1.0  0.85972  0.17343  0.26530  1.0000
  H   H4        1.0  0.86183  0.19393  0.21307  1.0000
  C   C13       1.0  0.90080  0.09303  0.33732  1.0000
  C   C14       1.0  0.95257  0.04799  0.33915  1.0000
  C   C15       1.0  0.96642  0.08878  0.29254  1.0000
  N   N2        1.0  0.94089  0.10881  0.29391  1.0000
  H   H5        1.0  0.99524  0.10350  0.25507  1.0000
  C   C16       1.0  0.90641  0.15211  0.18216  1.0000
  O   O3        1.0  0.93647  0.18931  0.15813  1.0000
  O   O4        1.0  0.88686  0.12199  0.12580  1.0000
  H   H6        1.0  0.89763  0.12227  0.07152  1.0000
  C   C17       1.0  0.83602  0.66386  0.33833  1.0000
  C   C18       1.0  0.88508  0.76005  0.33238  1.0000
  C   C19       1.0  0.85564  0.73501  0.26017  1.0000
  C   C20       1.0  0.83139  0.68723  0.26474  1.0000
  H   H7        1.0  0.81108  0.66894  0.21220  1.0000
  C   C21       1.0  0.91163  0.80859  0.33799  1.0000
  C   C22       1.0  0.95813  0.90542  0.33839  1.0000
  C   C23       1.0  0.91770  0.87887  0.29039  1.0000
  N   N3        1.0  0.89699  0.83329  0.29240  1.0000
  H   H8        1.0  0.90375  0.89325  0.25146  1.0000
  C   C24       1.0  0.85223  0.75535  0.18262  1.0000
  O   O5        1.0  0.81495  0.74810  0.15880  1.0000
  O   O6        1.0  0.88250  0.76655  0.12635  1.0000
  H   H9        1.0  0.88216  0.77724  0.07234  1.0000
  C   C25       1.0  0.66390  0.17028  0.27181  1.0000
  N   N4        1.0  0.62162  0.16348  0.28016  1.0000
  C   C26       1.0  0.52548  0.14025  0.28550  1.0000
  C   C27       1.0  0.49164  0.15261  0.28719  1.0000
  H   H10       1.0  0.46969  0.14415  0.23431  1.0000
  H   H11       1.0  0.68015  0.18183  0.21172  1.0000
  C   C28       1.0  0.52676  0.11409  0.21530  1.0000
  O   O7        1.0  0.52575  0.12574  0.13807  1.0000
  O   O8        1.0  0.51498  0.07394  0.22547  1.0000
  H   H12       1.0  0.51152  0.06056  0.27817  1.0000
  C   C29       1.0  0.83405  0.49380  0.27089  1.0000
  N   N5        1.0  0.84081  0.45831  0.27963  1.0000
  C   C30       1.0  0.86453  0.38566  0.28545  1.0000
  C   C31       1.0  0.85281  0.33964  0.28768  1.0000
  H   H13       1.0  0.86128  0.32620  0.23475  1.0000
  H   H14       1.0  0.82260  0.49849  0.21065  1.0000
  C   C32       1.0  0.89026  0.41303  0.21479  1.0000
  O   O9        1.0  0.87851  0.40005  0.13776  1.0000
  O   O10       1.0  0.93028  0.44195  0.22443  1.0000
  H   H15       1.0  0.94375  0.45219  0.27695  1.0000
  C   C33       1.0  0.51152  0.34229  0.27119  1.0000
  N   N6        1.0  0.54670  0.38470  0.27985  1.0000
  C   C34       1.0  0.61902  0.48094  0.28547  1.0000
  C   C35       1.0  0.66517  0.51489  0.28719  1.0000
  H   H16       1.0  0.67865  0.53671  0.23413  1.0000
  H   H17       1.0  0.50703  0.32617  0.21101  1.0000
  C   C36       1.0  0.59158  0.47944  0.21503  1.0000
  O   O11       1.0  0.60434  0.48056  0.13785  1.0000
  O   O12       1.0  0.56253  0.49034  0.22503  1.0000
  H   H18       1.0  0.55241  0.49360  0.27767  1.0000
  C   C37       1.0  0.05240  0.02795  0.33801  1.0000
  C   C38       1.0  0.02617  0.04943  0.33796  1.0000
  C   C39       1.0  0.97841  0.02523  0.33786  1.0000
  C   C40       1.0  0.95699  0.97755  0.33705  1.0000
  C   C41       1.0  0.98118  0.95400  0.33731  1.0000
  C   C42       1.0  0.02887  0.98020  0.33755  1.0000
  H   H19       1.0  0.92259  0.95931  0.33668  1.0000
  H   H20       1.0  0.04706  0.96399  0.33769  1.0000
  H   H21       1.0  0.04236  0.08383  0.33831  1.0000
  C   C43       1.0  0.46315  0.20061  0.34997  1.0000
  C   C44       1.0  0.48519  0.24811  0.35004  1.0000
  C   C45       1.0  0.46104  0.27140  0.34643  1.0000
  C   C46       1.0  0.41353  0.24642  0.34449  1.0000
  C   C47       1.0  0.39037  0.19870  0.34155  1.0000
  C   C48       1.0  0.41564  0.17622  0.34275  1.0000
  H   H22       1.0  0.39580  0.26318  0.34261  1.0000
  H   H23       1.0  0.39922  0.14174  0.34284  1.0000
  H   H24       1.0  0.51973  0.26626  0.35278  1.0000
  C   C49       1.0  0.80549  0.26316  0.35126  1.0000
  C   C50       1.0  0.75797  0.23777  0.35122  1.0000
  C   C51       1.0  0.73458  0.19035  0.34761  1.0000
  C   C52       1.0  0.75946  0.16772  0.34574  1.0000
  C   C53       1.0  0.80721  0.19214  0.34288  1.0000
  C   C54       1.0  0.82978  0.23992  0.34406  1.0000
  H   H25       1.0  0.74259  0.13324  0.34368  1.0000
  H   H26       1.0  0.86427  0.25792  0.34407  1.0000
  H   H27       1.0  0.73986  0.25421  0.35381  1.0000
  C   C55       1.0  0.74167  0.54338  0.34997  1.0000
  C   C56       1.0  0.76686  0.52105  0.34975  1.0000
  C   C57       1.0  0.81430  0.54489  0.34611  1.0000
  C   C58       1.0  0.83709  0.59243  0.34434  1.0000
  C   C59       1.0  0.81279  0.61590  0.34160  1.0000
  C   C60       1.0  0.76502  0.59087  0.34295  1.0000
  H   H28       1.0  0.87157  0.60995  0.34248  1.0000
  H   H29       1.0  0.74711  0.60745  0.34316  1.0000
  H   H30       1.0  0.75027  0.48652  0.35240  1.0000
  C   C61       1.0  0.31622  0.17641  0.40835  1.0000
  N   N7        1.0  0.27068  0.15305  0.40257  1.0000
  C   C62       1.0  0.17282  0.11980  0.38897  1.0000
  C   C63       1.0  0.12505  0.09419  0.38844  1.0000
  H   H31       1.0  0.10742  0.10529  0.42584  1.0000
  H   H32       1.0  0.33092  0.19538  0.46442  1.0000
  C   C64       1.0  0.19340  0.16066  0.43453  1.0000
  O   O13       1.0  0.18929  0.15905  0.51628  1.0000
  O   O14       1.0  0.19809  0.19531  0.39914  1.0000
  H   H33       1.0  0.19889  0.19980  0.34035  1.0000
  C   C65       1.0  0.82835  0.13898  0.40790  1.0000
  N   N8        1.0  0.85150  0.11658  0.40165  1.0000
  C   C66       1.0  0.88509  0.05206  0.38621  1.0000
  C   C67       1.0  0.91138  0.03063  0.38663  1.0000
  H   H34       1.0  0.90025  0.00173  0.42345  1.0000
  H   H35       1.0  0.80896  0.13420  0.46354  1.0000
  C   C68       1.0  0.84378  0.03089  0.43017  1.0000
  O   O15       1.0  0.84538  0.03784  0.51103  1.0000
  O   O16       1.0  0.81342  0.99324  0.40691  1.0000
  H   H36       1.0  0.80985  0.98257  0.35144  1.0000
  C   C69       1.0  0.86530  0.69005  0.40787  1.0000
  N   N9        1.0  0.88750  0.73559  0.40216  1.0000
  C   C70       1.0  0.95204  0.83349  0.38880  1.0000
  C   C71       1.0  0.97448  0.88126  0.38783  1.0000
  H   H37       1.0  0.00324  0.89882  0.42517  1.0000
  H   H38       1.0  0.86992  0.67532  0.46351  1.0000
  C   C72       1.0  0.97212  0.81283  0.43478  1.0000
  O   O17       1.0  0.97476  0.81725  0.51647  1.0000
  O   O18       1.0  0.00188  0.80773  0.39955  1.0000
  H   H39       1.0  0.00545  0.80666  0.34078  1.0000
  C   C73       1.0  0.68686  0.16784  0.34828  1.0000
  C   C74       1.0  0.59753  0.15191  0.35795  1.0000
  C   C75       1.0  0.61854  0.14740  0.43695  1.0000
  C   C76       1.0  0.66333  0.15574  0.43068  1.0000
  H   H40       1.0  0.68018  0.15598  0.48788  1.0000
  C   C77       1.0  0.55736  0.15479  0.35702  1.0000
  C   C78       1.0  0.48990  0.17966  0.35691  1.0000
  C   C79       1.0  0.52151  0.19175  0.42722  1.0000
  N   N10       1.0  0.55363  0.17995  0.42341  1.0000
  H   H41       1.0  0.52270  0.21210  0.47867  1.0000
  C   C80       1.0  0.59815  0.13692  0.52062  1.0000
  O   O19       1.0  0.61057  0.16759  0.57536  1.0000
  O   O20       1.0  0.55999  0.10368  0.52716  1.0000
  H   H42       1.0  0.54326  0.09647  0.57640  1.0000
  C   C81       1.0  0.83657  0.51941  0.34708  1.0000
  C   C82       1.0  0.85229  0.44582  0.35758  1.0000
  C   C83       1.0  0.85675  0.47149  0.43635  1.0000
  C   C84       1.0  0.84853  0.50800  0.42969  1.0000
  H   H43       1.0  0.84834  0.52474  0.48672  1.0000
  C   C85       1.0  0.84986  0.40294  0.35692  1.0000
  C   C86       1.0  0.82635  0.31090  0.35801  1.0000
  C   C87       1.0  0.81417  0.33038  0.42828  1.0000
  N   N11       1.0  0.82530  0.37411  0.42390  1.0000
  H   H44       1.0  0.79413  0.31126  0.48010  1.0000
  C   C88       1.0  0.86721  0.46175  0.52019  1.0000
  O   O21       1.0  0.83649  0.44346  0.57482  1.0000
  O   O22       1.0  0.90063  0.45714  0.52711  1.0000
  H   H45       1.0  0.90786  0.44775  0.57651  1.0000
  C   C89       1.0  0.48609  0.31910  0.34745  1.0000
  C   C90       1.0  0.55889  0.40870  0.35775  1.0000
  C   C91       1.0  0.53334  0.38742  0.43656  1.0000
  C   C92       1.0  0.49719  0.34251  0.42997  1.0000
  H   H46       1.0  0.48055  0.32551  0.48702  1.0000
  C   C93       1.0  0.60173  0.44911  0.35709  1.0000
  C   C94       1.0  0.69395  0.51684  0.35714  1.0000
  C   C95       1.0  0.67446  0.48538  0.42769  1.0000
  N   N12       1.0  0.63061  0.45309  0.42373  1.0000
  H   H47       1.0  0.69363  0.48430  0.47924  1.0000
  C   C96       1.0  0.54294  0.40768  0.52036  1.0000
  O   O23       1.0  0.56113  0.39529  0.57531  1.0000
  O   O24       1.0  0.54752  0.44569  0.52709  1.0000
  H   H48       1.0  0.55681  0.46232  0.57647  1.0000
