data_image0
_chemical_formula_structural       NC12H6N4C12H6N4C12H6N4C12H6N4C12H6N4C12H6N3C4H3CH3CHC4H3CH3CHC4H3CH3CHC4H3CH3CHC4H3CH3CHC4H3CH3CHC4H3CH3CHC4H3CH3CHC4H3CH3CHC6H6C6H6C6H6C6H6C6H6C6H6C4H3CH3CHC4H3CH3CHC4H3CH3CHC4H3CH3CHC4H3CH3CHC4H3CH3CHC4H3CH3CHC4H3CH3CHC4H3CH3CH
_chemical_formula_sum              "N24 C216 H198"
_cell_length_a       67.6161
_cell_length_b       67.616
_cell_length_c       14.9273
_cell_angle_alpha    90
_cell_angle_beta     90
_cell_angle_gamma    120

_space_group_name_H-M_alt    "P 1"
_space_group_IT_number       1

loop_
  _space_group_symop_operation_xyz
  'x, y, z'

loop_
  _atom_site_type_symbol
  _atom_site_label
  _atom_site_symmetry_multiplicity
  _atom_site_fract_x
  _atom_site_fract_y
  _atom_site_fract_z
  _atom_site_occupancy
  N   N1        1.0  0.16199  0.58112  0.32330  1.0000
  C   C1        1.0  0.17397  0.56892  0.33108  1.0000
  C   C2        1.0  0.17564  0.60526  0.31551  1.0000
  C   C3        1.0  0.13773  0.56981  0.32289  1.0000
  C   C4        1.0  0.20963  0.65232  0.31271  1.0000
  C   C5        1.0  0.20689  0.63810  0.23908  1.0000
  C   C6        1.0  0.18986  0.61491  0.23989  1.0000
  C   C7        1.0  0.20554  0.55269  0.33345  1.0000
  C   C8        1.0  0.19127  0.54871  0.25855  1.0000
  C   C9        1.0  0.17575  0.55690  0.25707  1.0000
  C   C10       1.0  0.08904  0.54743  0.32275  1.0000
  C   C11       1.0  0.10175  0.56036  0.24809  1.0000
  C   C12       1.0  0.12579  0.57113  0.24763  1.0000
  H   H1        1.0  0.21785  0.64433  0.18579  1.0000
  H   H2        1.0  0.18891  0.60472  0.18755  1.0000
  H   H3        1.0  0.16684  0.55536  0.19967  1.0000
  H   H4        1.0  0.19310  0.54110  0.20237  1.0000
  H   H5        1.0  0.09354  0.56190  0.19321  1.0000
  H   H6        1.0  0.13460  0.58028  0.19253  1.0000
  N   N2        1.0  0.06641  0.53832  0.32274  1.0000
  N   N3        1.0  0.22150  0.54664  0.32895  1.0000
  N   N4        1.0  0.22793  0.67303  0.31440  1.0000
  N   N5        1.0  0.42495  0.58208  0.32338  1.0000
  C   C13       1.0  0.43717  0.60628  0.33106  1.0000
  C   C14       1.0  0.40082  0.57161  0.31551  1.0000
  C   C15       1.0  0.43627  0.56915  0.32292  1.0000
  C   C16       1.0  0.35376  0.55850  0.31274  1.0000
  C   C17       1.0  0.36798  0.57003  0.23918  1.0000
  C   C18       1.0  0.39116  0.57615  0.23986  1.0000
  C   C19       1.0  0.45340  0.65407  0.33345  1.0000
  C   C20       1.0  0.45735  0.64377  0.25852  1.0000
  C   C21       1.0  0.44919  0.62007  0.25706  1.0000
  C   C22       1.0  0.45863  0.54281  0.32272  1.0000
  C   C23       1.0  0.44571  0.54261  0.24807  1.0000
  C   C24       1.0  0.43495  0.55588  0.24763  1.0000
  H   H7        1.0  0.36175  0.57478  0.18591  1.0000
  H   H8        1.0  0.40137  0.58548  0.18767  1.0000
  H   H9        1.0  0.45073  0.61270  0.19967  1.0000
  H   H10       1.0  0.46500  0.65322  0.20239  1.0000
  H   H11       1.0  0.44416  0.53286  0.19319  1.0000
  H   H12       1.0  0.42578  0.55554  0.19257  1.0000
  N   N6        1.0  0.46776  0.52930  0.32262  1.0000
  N   N7        1.0  0.45944  0.67608  0.32895  1.0000
  N   N8        1.0  0.33304  0.55610  0.31442  1.0000
  N   N9        1.0  0.42401  0.84409  0.32327  1.0000
  C   C25       1.0  0.39982  0.83209  0.33094  1.0000
  C   C26       1.0  0.43452  0.83046  0.31551  1.0000
  C   C27       1.0  0.43693  0.86834  0.32283  1.0000
  C   C28       1.0  0.44760  0.79649  0.31283  1.0000
  C   C29       1.0  0.43613  0.79922  0.23915  1.0000
  C   C30       1.0  0.42999  0.81626  0.23985  1.0000
  C   C31       1.0  0.35203  0.80052  0.33334  1.0000
  C   C32       1.0  0.36232  0.81477  0.25842  1.0000
  C   C33       1.0  0.38602  0.83030  0.25694  1.0000
  C   C34       1.0  0.46323  0.91705  0.32268  1.0000
  C   C35       1.0  0.46347  0.90434  0.24805  1.0000
  C   C36       1.0  0.45021  0.88030  0.24758  1.0000
  H   H13       1.0  0.43135  0.78822  0.18596  1.0000
  H   H14       1.0  0.42067  0.81715  0.18764  1.0000
  H   H15       1.0  0.39339  0.83927  0.19963  1.0000
  H   H16       1.0  0.35286  0.81300  0.20235  1.0000
  H   H17       1.0  0.47323  0.91254  0.19320  1.0000
  H   H18       1.0  0.45056  0.87148  0.19252  1.0000
  N   N10       1.0  0.47676  0.93968  0.32268  1.0000
  N   N11       1.0  0.33001  0.78457  0.32889  1.0000
  N   N12       1.0  0.44997  0.77816  0.31460  1.0000
  N   N13       1.0  0.84530  0.42386  0.32022  1.0000
  C   C37       1.0  0.83324  0.43599  0.32822  1.0000
  C   C38       1.0  0.83174  0.39972  0.31220  1.0000
  C   C39       1.0  0.86955  0.43528  0.31982  1.0000
  C   C40       1.0  0.79785  0.35264  0.30948  1.0000
  C   C41       1.0  0.80051  0.36685  0.23592  1.0000
  C   C42       1.0  0.81751  0.39005  0.23664  1.0000
  C   C43       1.0  0.80162  0.45215  0.33094  1.0000
  C   C44       1.0  0.81592  0.45622  0.25606  1.0000
  C   C45       1.0  0.83144  0.44804  0.25436  1.0000
  C   C46       1.0  0.91831  0.45808  0.31937  1.0000
  C   C47       1.0  0.90562  0.44545  0.24411  1.0000
  C   C48       1.0  0.88157  0.43444  0.24387  1.0000
  H   H19       1.0  0.78949  0.36062  0.18280  1.0000
  H   H20       1.0  0.81835  0.40025  0.18447  1.0000
  H   H21       1.0  0.84044  0.44971  0.19706  1.0000
  H   H22       1.0  0.81411  0.46389  0.20003  1.0000
  H   H23       1.0  0.91386  0.44435  0.18847  1.0000
  H   H24       1.0  0.87279  0.42555  0.18826  1.0000
  N   N14       1.0  0.94102  0.46759  0.31754  1.0000
  N   N15       1.0  0.78566  0.45819  0.32658  1.0000
  N   N16       1.0  0.77952  0.33194  0.31139  1.0000
  N   N17       1.0  0.58221  0.42266  0.32024  1.0000
  C   C49       1.0  0.57007  0.39847  0.32830  1.0000
  C   C50       1.0  0.60635  0.43322  0.31227  1.0000
  C   C51       1.0  0.57081  0.43550  0.31984  1.0000
  C   C52       1.0  0.65342  0.44634  0.30959  1.0000
  C   C53       1.0  0.63921  0.43481  0.23603  1.0000
  C   C54       1.0  0.61601  0.42862  0.23677  1.0000
  C   C55       1.0  0.55393  0.35069  0.33101  1.0000
  C   C56       1.0  0.54986  0.36092  0.25614  1.0000
  C   C57       1.0  0.55800  0.38461  0.25449  1.0000
  C   C58       1.0  0.54800  0.46146  0.31932  1.0000
  C   C59       1.0  0.56063  0.46139  0.24409  1.0000
  C   C60       1.0  0.57165  0.44835  0.24387  1.0000
  H   H25       1.0  0.64544  0.43003  0.18287  1.0000
  H   H26       1.0  0.60581  0.41931  0.18453  1.0000
  H   H27       1.0  0.55639  0.39194  0.19708  1.0000
  H   H28       1.0  0.54220  0.35144  0.20008  1.0000
  H   H29       1.0  0.56174  0.47073  0.18843  1.0000
  H   H30       1.0  0.58053  0.44845  0.18826  1.0000
  N   N18       1.0  0.53850  0.47466  0.31748  1.0000
  N   N19       1.0  0.54791  0.32869  0.32661  1.0000
  N   N20       1.0  0.67413  0.44875  0.31147  1.0000
  N   N21       1.0  0.58344  0.16078  0.32032  1.0000
  C   C61       1.0  0.60763  0.17282  0.32828  1.0000
  C   C62       1.0  0.57288  0.17436  0.31225  1.0000
  C   C63       1.0  0.57059  0.13653  0.31990  1.0000
  C   C64       1.0  0.55972  0.20828  0.30950  1.0000
  C   C65       1.0  0.57131  0.20564  0.23602  1.0000
  C   C66       1.0  0.57746  0.18860  0.23669  1.0000
  C   C67       1.0  0.65540  0.20445  0.33101  1.0000
  C   C68       1.0  0.64517  0.19016  0.25611  1.0000
  C   C69       1.0  0.62148  0.17460  0.25449  1.0000
  C   C70       1.0  0.54462  0.08778  0.31940  1.0000
  C   C71       1.0  0.54469  0.10047  0.24415  1.0000
  C   C72       1.0  0.55774  0.12453  0.24392  1.0000
  H   H31       1.0  0.57610  0.21665  0.18287  1.0000
  H   H32       1.0  0.58685  0.18777  0.18461  1.0000
  H   H33       1.0  0.61415  0.16564  0.19711  1.0000
  H   H34       1.0  0.65466  0.19197  0.20012  1.0000
  H   H35       1.0  0.53535  0.09224  0.18849  1.0000
  H   H36       1.0  0.55764  0.13331  0.18832  1.0000
  N   N22       1.0  0.53142  0.06507  0.31754  1.0000
  N   N23       1.0  0.67740  0.22044  0.32661  1.0000
  N   N24       1.0  0.55731  0.22659  0.31127  1.0000
  C   C73       1.0  0.97972  0.49407  0.34183  1.0000
  C   C74       1.0  0.99188  0.50145  0.25896  1.0000
  C   C75       1.0  0.01577  0.50883  0.25661  1.0000
  C   C76       1.0  0.02906  0.51505  0.17022  1.0000
  H   H37       1.0  0.01902  0.51179  0.10954  1.0000
  H   H38       1.0  0.03784  0.50526  0.16350  1.0000
  H   H39       1.0  0.04175  0.53321  0.17048  1.0000
  C   C77       1.0  0.98004  0.50188  0.17434  1.0000
  H   H40       1.0  0.96245  0.49794  0.18268  1.0000
  H   H41       1.0  0.97974  0.48946  0.12683  1.0000
  H   H42       1.0  0.98912  0.51891  0.14469  1.0000
  C   C78       1.0  0.95656  0.48731  0.34579  1.0000
  H   H43       1.0  0.95222  0.49796  0.37377  1.0000
  C   C79       1.0  0.51203  0.48689  0.34174  1.0000
  C   C80       1.0  0.50465  0.49167  0.25887  1.0000
  C   C81       1.0  0.49726  0.50817  0.25651  1.0000
  C   C82       1.0  0.49104  0.51524  0.17012  1.0000
  H   H44       1.0  0.49430  0.50846  0.10944  1.0000
  H   H45       1.0  0.50082  0.53380  0.16340  1.0000
  H   H46       1.0  0.47287  0.50976  0.17038  1.0000
  C   C83       1.0  0.50422  0.47940  0.17426  1.0000
  H   H47       1.0  0.50816  0.46575  0.18260  1.0000
  H   H48       1.0  0.51663  0.49151  0.12675  1.0000
  H   H49       1.0  0.48719  0.47144  0.14461  1.0000
  C   C84       1.0  0.51878  0.47048  0.34573  1.0000
  H   H50       1.0  0.50813  0.45550  0.37374  1.0000
  C   C85       1.0  0.51919  0.02636  0.34180  1.0000
  C   C86       1.0  0.51441  0.01420  0.25894  1.0000
  C   C87       1.0  0.49791  0.99032  0.25658  1.0000
  C   C88       1.0  0.49084  0.97702  0.17019  1.0000
  H   H51       1.0  0.49762  0.98706  0.10951  1.0000
  H   H52       1.0  0.47228  0.96825  0.16346  1.0000
  H   H53       1.0  0.49632  0.96434  0.17046  1.0000
  C   C89       1.0  0.52669  0.02605  0.17432  1.0000
  H   H54       1.0  0.54034  0.04364  0.18266  1.0000
  H   H55       1.0  0.51457  0.02635  0.12681  1.0000
  H   H56       1.0  0.53465  0.01697  0.14468  1.0000
  C   C90       1.0  0.53560  0.04952  0.34579  1.0000
  H   H57       1.0  0.55058  0.05386  0.37378  1.0000
  C   C91       1.0  0.29409  0.54089  0.33385  1.0000
  C   C92       1.0  0.28595  0.54581  0.25336  1.0000
  C   C93       1.0  0.26840  0.55171  0.25822  1.0000
  C   C94       1.0  0.29577  0.54523  0.16348  1.0000
  H   H58       1.0  0.30758  0.53871  0.16472  1.0000
  H   H59       1.0  0.30491  0.56238  0.13508  1.0000
  H   H60       1.0  0.28211  0.53405  0.11786  1.0000
  C   C95       1.0  0.26168  0.55930  0.17434  1.0000
  H   H61       1.0  0.24895  0.56447  0.18362  1.0000
  H   H62       1.0  0.25459  0.54545  0.12550  1.0000
  H   H63       1.0  0.27663  0.57399  0.14542  1.0000
  C   C96       1.0  0.31351  0.53860  0.33205  1.0000
  H   H64       1.0  0.31221  0.52372  0.34801  1.0000
  C   C97       1.0  0.46519  0.75442  0.33391  1.0000
  C   C98       1.0  0.46025  0.74135  0.25341  1.0000
  C   C99       1.0  0.45436  0.71790  0.25825  1.0000
  C   C100      1.0  0.46082  0.75175  0.16356  1.0000
  H   H65       1.0  0.46733  0.77009  0.16480  1.0000
  H   H66       1.0  0.44366  0.74374  0.13519  1.0000
  H   H67       1.0  0.47200  0.74928  0.11790  1.0000
  C   C101      1.0  0.44677  0.70360  0.17436  1.0000
  H   H68       1.0  0.44161  0.68570  0.18362  1.0000
  H   H69       1.0  0.46062  0.71037  0.12550  1.0000
  H   H70       1.0  0.43207  0.70385  0.14546  1.0000
  C   C102      1.0  0.46747  0.77612  0.33217  1.0000
  H   H71       1.0  0.48238  0.78971  0.34778  1.0000
  C   C103      1.0  0.25166  0.71199  0.33382  1.0000
  C   C104      1.0  0.26473  0.72013  0.25332  1.0000
  C   C105      1.0  0.28818  0.73768  0.25818  1.0000
  C   C106      1.0  0.25432  0.71031  0.16346  1.0000
  H   H72       1.0  0.23599  0.69849  0.16470  1.0000
  H   H73       1.0  0.26233  0.70117  0.13505  1.0000
  H   H74       1.0  0.25680  0.72396  0.11783  1.0000
  C   C107      1.0  0.30248  0.74439  0.17427  1.0000
  H   H75       1.0  0.32038  0.75712  0.18353  1.0000
  H   H76       1.0  0.29572  0.75149  0.12545  1.0000
  H   H77       1.0  0.30222  0.72945  0.14534  1.0000
  C   C108      1.0  0.22996  0.69257  0.33203  1.0000
  H   H78       1.0  0.21637  0.69386  0.34798  1.0000
  C   C109      1.0  0.71307  0.46394  0.33137  1.0000
  C   C110      1.0  0.72127  0.45909  0.25086  1.0000
  C   C111      1.0  0.73880  0.45317  0.25574  1.0000
  C   C112      1.0  0.71152  0.45977  0.16096  1.0000
  H   H79       1.0  0.69972  0.46631  0.16222  1.0000
  H   H80       1.0  0.70238  0.44264  0.13231  1.0000
  H   H81       1.0  0.72521  0.47098  0.11552  1.0000
  C   C113      1.0  0.74556  0.44564  0.17179  1.0000
  H   H82       1.0  0.75826  0.44044  0.18106  1.0000
  H   H83       1.0  0.75271  0.45954  0.12315  1.0000
  H   H84       1.0  0.73062  0.43099  0.14262  1.0000
  C   C114      1.0  0.69365  0.46622  0.32955  1.0000
  H   H85       1.0  0.69495  0.48111  0.34555  1.0000
  C   C115      1.0  0.54216  0.25035  0.33131  1.0000
  C   C116      1.0  0.54701  0.26342  0.25083  1.0000
  C   C117      1.0  0.55295  0.28688  0.25576  1.0000
  C   C118      1.0  0.54632  0.25300  0.16088  1.0000
  H   H86       1.0  0.53976  0.23466  0.16209  1.0000
  H   H87       1.0  0.56344  0.26097  0.13223  1.0000
  H   H88       1.0  0.53512  0.25550  0.11548  1.0000
  C   C119      1.0  0.56048  0.30117  0.17186  1.0000
  H   H89       1.0  0.56571  0.31908  0.18119  1.0000
  H   H90       1.0  0.54659  0.29444  0.12321  1.0000
  H   H91       1.0  0.57513  0.30088  0.14268  1.0000
  C   C120      1.0  0.53985  0.22865  0.32939  1.0000
  H   H92       1.0  0.52499  0.21507  0.34575  1.0000
  C   C121      1.0  0.75574  0.29301  0.33134  1.0000
  C   C122      1.0  0.74268  0.28481  0.25085  1.0000
  C   C123      1.0  0.71922  0.26729  0.25578  1.0000
  C   C124      1.0  0.75310  0.29456  0.16093  1.0000
  H   H93       1.0  0.77144  0.30634  0.16215  1.0000
  H   H94       1.0  0.74513  0.30371  0.13231  1.0000
  H   H95       1.0  0.75060  0.28086  0.11549  1.0000
  C   C125      1.0  0.70493  0.26054  0.17187  1.0000
  H   H96       1.0  0.68701  0.24785  0.18119  1.0000
  H   H97       1.0  0.71166  0.25338  0.12320  1.0000
  H   H98       1.0  0.70522  0.27548  0.14271  1.0000
  C   C126      1.0  0.77745  0.31241  0.32948  1.0000
  H   H99       1.0  0.79103  0.31110  0.34545  1.0000
  C   C127      1.0  0.17802  0.61960  0.38843  1.0000
  C   C128      1.0  0.19484  0.64293  0.38707  1.0000
  C   C129      1.0  0.18724  0.57167  0.40812  1.0000
  C   C130      1.0  0.20284  0.56365  0.40936  1.0000
  C   C131      1.0  0.12505  0.55721  0.39824  1.0000
  C   C132      1.0  0.10099  0.54610  0.39813  1.0000
  H   H100      1.0  0.16856  0.61277  0.44522  1.0000
  H   H101      1.0  0.19725  0.65265  0.44294  1.0000
  H   H102      1.0  0.18662  0.58079  0.46162  1.0000
  H   H103      1.0  0.21291  0.56669  0.46466  1.0000
  H   H104      1.0  0.13332  0.55620  0.45386  1.0000
  H   H105      1.0  0.09224  0.53737  0.45407  1.0000
  C   C133      1.0  0.38649  0.55964  0.38844  1.0000
  C   C134      1.0  0.36314  0.55310  0.38707  1.0000
  C   C135      1.0  0.43440  0.61679  0.40810  1.0000
  C   C136      1.0  0.44246  0.64042  0.40940  1.0000
  C   C137      1.0  0.44887  0.56905  0.39823  1.0000
  C   C138      1.0  0.45998  0.55610  0.39810  1.0000
  H   H106      1.0  0.39332  0.55696  0.44514  1.0000
  H   H107      1.0  0.35342  0.54575  0.44288  1.0000
  H   H108      1.0  0.42528  0.60704  0.46160  1.0000
  H   H109      1.0  0.43938  0.64743  0.46463  1.0000
  H   H110      1.0  0.44989  0.57834  0.45386  1.0000
  H   H111      1.0  0.46872  0.55609  0.45400  1.0000
  C   C139      1.0  0.44650  0.82811  0.38844  1.0000
  C   C140      1.0  0.45298  0.81127  0.38719  1.0000
  C   C141      1.0  0.38931  0.81881  0.40798  1.0000
  C   C142      1.0  0.36568  0.80322  0.40926  1.0000
  C   C143      1.0  0.43701  0.88103  0.39815  1.0000
  C   C144      1.0  0.44993  0.90509  0.39803  1.0000
  H   H112      1.0  0.44909  0.83755  0.44525  1.0000
  H   H113      1.0  0.46029  0.80887  0.44305  1.0000
  H   H114      1.0  0.39906  0.81944  0.46147  1.0000
  H   H115      1.0  0.35867  0.79314  0.46453  1.0000
  H   H116      1.0  0.42771  0.87275  0.45377  1.0000
  H   H117      1.0  0.44995  0.91383  0.45397  1.0000
  C   C145      1.0  0.82945  0.38541  0.38506  1.0000
  C   C146      1.0  0.81264  0.36207  0.38381  1.0000
  C   C147      1.0  0.81991  0.43311  0.40520  1.0000
  C   C148      1.0  0.80432  0.44114  0.40669  1.0000
  C   C149      1.0  0.88218  0.44755  0.39577  1.0000
  C   C150      1.0  0.90625  0.45885  0.39554  1.0000
  H   H118      1.0  0.83892  0.39225  0.44181  1.0000
  H   H119      1.0  0.81031  0.35235  0.43960  1.0000
  H   H120      1.0  0.82059  0.42401  0.45867  1.0000
  H   H121      1.0  0.79423  0.43803  0.46195  1.0000
  H   H122      1.0  0.87386  0.44821  0.45189  1.0000
  H   H123      1.0  0.91491  0.46732  0.45201  1.0000
  C   C151      1.0  0.62068  0.44524  0.38510  1.0000
  C   C152      1.0  0.64402  0.45179  0.38379  1.0000
  C   C153      1.0  0.57293  0.38802  0.40532  1.0000
  C   C154      1.0  0.56495  0.36440  0.40674  1.0000
  C   C155      1.0  0.55854  0.43587  0.39579  1.0000
  C   C156      1.0  0.54725  0.44864  0.39554  1.0000
  H   H124      1.0  0.61385  0.44790  0.44183  1.0000
  H   H125      1.0  0.65373  0.45913  0.43965  1.0000
  H   H126      1.0  0.58209  0.39781  0.45868  1.0000
  H   H127      1.0  0.56806  0.35743  0.46200  1.0000
  H   H128      1.0  0.55788  0.42689  0.45193  1.0000
  H   H129      1.0  0.53878  0.44884  0.45200  1.0000
  C   C157      1.0  0.56085  0.17667  0.38506  1.0000
  C   C158      1.0  0.55428  0.19345  0.38370  1.0000
  C   C159      1.0  0.61807  0.18614  0.40530  1.0000
  C   C160      1.0  0.64169  0.20175  0.40676  1.0000
  C   C161      1.0  0.57022  0.12390  0.39584  1.0000
  C   C162      1.0  0.55744  0.09983  0.39561  1.0000
  H   H130      1.0  0.55816  0.16715  0.44173  1.0000
  H   H131      1.0  0.54689  0.19577  0.43948  1.0000
  H   H132      1.0  0.60828  0.18552  0.45863  1.0000
  H   H133      1.0  0.64866  0.21187  0.46196  1.0000
  H   H134      1.0  0.57920  0.13222  0.45198  1.0000
  H   H135      1.0  0.55725  0.09117  0.45205  1.0000
  C   C163      1.0  0.02765  0.51068  0.33824  1.0000
  C   C164      1.0  0.01562  0.50404  0.42148  1.0000
  C   C165      1.0  0.99142  0.49493  0.42279  1.0000
  C   C166      1.0  0.02798  0.50657  0.50851  1.0000
  H   H136      1.0  0.04649  0.51502  0.50322  1.0000
  H   H137      1.0  0.02231  0.48980  0.53781  1.0000
  H   H138      1.0  0.02447  0.51681  0.55544  1.0000
  C   C167      1.0  0.97873  0.48633  0.51010  1.0000
  H   H139      1.0  0.96024  0.47828  0.50521  1.0000
  H   H140      1.0  0.98429  0.50043  0.55740  1.0000
  H   H141      1.0  0.98207  0.47343  0.53864  1.0000
  C   C168      1.0  0.05087  0.51742  0.33636  1.0000
  H   H142      1.0  0.05527  0.50567  0.34902  1.0000
  C   C169      1.0  0.49539  0.51819  0.33814  1.0000
  C   C170      1.0  0.50203  0.51280  0.42139  1.0000
  C   C171      1.0  0.51116  0.49772  0.42271  1.0000
  C   C172      1.0  0.49949  0.52262  0.50842  1.0000
  H   H143      1.0  0.49103  0.53267  0.50312  1.0000
  H   H144      1.0  0.51626  0.53374  0.53773  1.0000
  H   H145      1.0  0.48926  0.50888  0.55534  1.0000
  C   C173      1.0  0.51976  0.49365  0.51002  1.0000
  H   H146      1.0  0.52783  0.48322  0.50513  1.0000
  H   H147      1.0  0.50567  0.48509  0.55731  1.0000
  H   H148      1.0  0.53265  0.50989  0.53858  1.0000
  C   C174      1.0  0.48866  0.53468  0.33624  1.0000
  H   H149      1.0  0.50040  0.55082  0.34910  1.0000
  C   C175      1.0  0.48789  0.97844  0.33821  1.0000
  C   C176      1.0  0.49327  0.99046  0.42145  1.0000
  C   C177      1.0  0.50836  0.01467  0.42277  1.0000
  C   C178      1.0  0.48345  0.97810  0.50848  1.0000
  H   H150      1.0  0.47339  0.95959  0.50320  1.0000
  H   H151      1.0  0.47234  0.98377  0.53778  1.0000
  H   H152      1.0  0.49719  0.98161  0.55541  1.0000
  C   C179      1.0  0.51243  0.02735  0.51008  1.0000
  H   H153      1.0  0.52287  0.04584  0.50519  1.0000
  H   H154      1.0  0.52098  0.02180  0.55738  1.0000
  H   H155      1.0  0.49619  0.02400  0.53862  1.0000
  C   C180      1.0  0.47139  0.95521  0.33633  1.0000
  H   H156      1.0  0.45525  0.95082  0.34900  1.0000
  C   C181      1.0  0.25782  0.55055  0.34240  1.0000
  C   C182      1.0  0.26446  0.54346  0.42152  1.0000
  C   C183      1.0  0.28327  0.53939  0.41784  1.0000
  C   C184      1.0  0.29239  0.53387  0.50050  1.0000
  H   H157      1.0  0.28408  0.53364  0.56310  1.0000
  H   H158      1.0  0.31043  0.54652  0.50903  1.0000
  H   H159      1.0  0.29070  0.51704  0.49310  1.0000
  C   C185      1.0  0.25200  0.54032  0.50854  1.0000
  H   H160      1.0  0.23686  0.54203  0.50414  1.0000
  H   H161      1.0  0.26340  0.55290  0.55728  1.0000
  H   H162      1.0  0.24612  0.52316  0.53437  1.0000
  C   C186      1.0  0.24276  0.55883  0.34995  1.0000
  H   H163      1.0  0.24902  0.57476  0.37199  1.0000
  C   C187      1.0  0.45553  0.70848  0.34241  1.0000
  C   C188      1.0  0.46263  0.72221  0.42154  1.0000
  C   C189      1.0  0.46669  0.74509  0.41788  1.0000
  C   C190      1.0  0.47223  0.75973  0.50054  1.0000
  H   H164      1.0  0.47248  0.75166  0.56313  1.0000
  H   H165      1.0  0.45957  0.76511  0.50915  1.0000
  H   H166      1.0  0.48906  0.77488  0.49309  1.0000
  C   C191      1.0  0.46577  0.71289  0.50854  1.0000
  H   H167      1.0  0.46405  0.69603  0.50414  1.0000
  H   H168      1.0  0.45320  0.71172  0.55731  1.0000
  H   H169      1.0  0.48293  0.72416  0.53435  1.0000
  C   C192      1.0  0.44725  0.68514  0.34993  1.0000
  H   H170      1.0  0.43132  0.67548  0.37196  1.0000
  C   C193      1.0  0.29760  0.74825  0.34236  1.0000
  C   C194      1.0  0.28387  0.74162  0.42149  1.0000
  C   C195      1.0  0.26099  0.72281  0.41781  1.0000
  C   C196      1.0  0.24635  0.71370  0.50046  1.0000
  H   H171      1.0  0.25443  0.72201  0.56306  1.0000
  H   H172      1.0  0.24097  0.69566  0.50902  1.0000
  H   H173      1.0  0.23120  0.71538  0.49306  1.0000
  C   C197      1.0  0.29319  0.75407  0.50850  1.0000
  H   H174      1.0  0.31006  0.76920  0.50410  1.0000
  H   H175      1.0  0.29437  0.74266  0.55723  1.0000
  H   H176      1.0  0.28193  0.75996  0.53434  1.0000
  C   C198      1.0  0.32094  0.76331  0.34986  1.0000
  H   H177      1.0  0.33060  0.75703  0.37181  1.0000
  C   C199      1.0  0.74933  0.45426  0.33997  1.0000
  C   C200      1.0  0.74264  0.46128  0.41915  1.0000
  C   C201      1.0  0.72384  0.46535  0.41543  1.0000
  C   C202      1.0  0.71467  0.47080  0.49812  1.0000
  H   H178      1.0  0.72293  0.47098  0.56076  1.0000
  H   H179      1.0  0.69662  0.45814  0.50643  1.0000
  H   H180      1.0  0.71635  0.48764  0.49092  1.0000
  C   C203      1.0  0.75503  0.46433  0.50625  1.0000
  H   H181      1.0  0.77018  0.46261  0.50190  1.0000
  H   H182      1.0  0.74360  0.45171  0.55480  1.0000
  H   H183      1.0  0.76091  0.48147  0.53232  1.0000
  C   C204      1.0  0.76439  0.44598  0.34744  1.0000
  H   H184      1.0  0.75812  0.43003  0.36923  1.0000
  C   C205      1.0  0.55185  0.29630  0.34002  1.0000
  C   C206      1.0  0.54483  0.28258  0.41917  1.0000
  C   C207      1.0  0.54075  0.25970  0.41540  1.0000
  C   C208      1.0  0.53532  0.24508  0.49807  1.0000
  H   H185      1.0  0.53517  0.25317  0.56074  1.0000
  H   H186      1.0  0.54797  0.23968  0.50628  1.0000
  H   H187      1.0  0.51847  0.22994  0.49092  1.0000
  C   C209      1.0  0.54177  0.29190  0.50629  1.0000
  H   H188      1.0  0.54346  0.30876  0.50197  1.0000
  H   H189      1.0  0.55439  0.29310  0.55483  1.0000
  H   H190      1.0  0.52463  0.28063  0.53236  1.0000
  C   C210      1.0  0.56012  0.31964  0.34756  1.0000
  H   H191      1.0  0.57606  0.32932  0.36949  1.0000
  C   C211      1.0  0.70979  0.25677  0.34002  1.0000
  C   C212      1.0  0.72351  0.26345  0.41918  1.0000
  C   C213      1.0  0.74639  0.28225  0.41542  1.0000
  C   C214      1.0  0.76102  0.29142  0.49808  1.0000
  H   H192      1.0  0.75293  0.28317  0.56074  1.0000
  H   H193      1.0  0.76642  0.30947  0.50637  1.0000
  H   H194      1.0  0.77617  0.28972  0.49087  1.0000
  C   C215      1.0  0.71418  0.25106  0.50629  1.0000
  H   H195      1.0  0.69732  0.23592  0.50197  1.0000
  H   H196      1.0  0.71300  0.26250  0.55484  1.0000
  H   H197      1.0  0.72545  0.24519  0.53232  1.0000
  C   C216      1.0  0.68645  0.24169  0.34755  1.0000
  H   H198      1.0  0.67677  0.24796  0.36946  1.0000
