data_image0
_chemical_formula_structural       C4H2C4H2N2C4H2C4H2N2C4H2C4H2N3C2HCHNC2HCHNC2HCHNC2HCHNC2HCHNC2HCHC2HC2HN2C2HC2HN2C2HC2HN2CNC2ONH2CHCNC2ONH2CHCNC2ONH2CHCNC2ONH2CHCNC2ONH2CHCNC2ONH2CH
_chemical_formula_sum              "C78 H48 N30 O6"
_cell_length_a       31.7589
_cell_length_b       31.7588
_cell_length_c       15.0276
_cell_angle_alpha    90
_cell_angle_beta     90
_cell_angle_gamma    120

_space_group_name_H-M_alt    "P 1"
_space_group_IT_number       1

loop_
  _space_group_symop_operation_xyz
  'x, y, z'

loop_
  _atom_site_type_symbol
  _atom_site_label
  _atom_site_symmetry_multiplicity
  _atom_site_fract_x
  _atom_site_fract_y
  _atom_site_fract_z
  _atom_site_occupancy
  C   C1        1.0  0.97262  0.48470  0.32525  1.0000
  C   C2        1.0  0.86915  0.42763  0.32583  1.0000
  C   C3        1.0  0.89704  0.40461  0.33317  1.0000
  C   C4        1.0  0.94787  0.43354  0.34086  1.0000
  H   H1        1.0  0.96648  0.41584  0.35446  1.0000
  H   H2        1.0  0.83201  0.40714  0.32762  1.0000
  C   C5        1.0  0.02460  0.51344  0.32519  1.0000
  C   C6        1.0  0.04936  0.56461  0.34079  1.0000
  C   C7        1.0  0.10017  0.59354  0.33300  1.0000
  C   C8        1.0  0.12807  0.57052  0.32569  1.0000
  H   H3        1.0  0.03074  0.58231  0.35445  1.0000
  H   H4        1.0  0.16520  0.59100  0.32750  1.0000
  N   N1        1.0  0.12272  0.64250  0.34079  1.0000
  N   N2        1.0  0.87453  0.35565  0.34086  1.0000
  C   C9        1.0  0.51300  0.48747  0.32515  1.0000
  C   C10       1.0  0.57007  0.44107  0.32591  1.0000
  C   C11       1.0  0.59310  0.49199  0.33315  1.0000
  C   C12       1.0  0.56417  0.51389  0.34071  1.0000
  H   H5        1.0  0.58186  0.55020  0.35441  1.0000
  H   H6        1.0  0.59056  0.42442  0.32770  1.0000
  C   C13       1.0  0.48426  0.51072  0.32511  1.0000
  C   C14       1.0  0.43310  0.48430  0.34066  1.0000
  C   C15       1.0  0.40416  0.50619  0.33302  1.0000
  C   C16       1.0  0.42720  0.55712  0.32577  1.0000
  H   H7        1.0  0.41541  0.44800  0.35444  1.0000
  H   H8        1.0  0.40672  0.57377  0.32758  1.0000
  N   N3        1.0  0.35521  0.47979  0.34086  1.0000
  N   N4        1.0  0.64206  0.51843  0.34087  1.0000
  C   C17       1.0  0.51026  0.02508  0.32511  1.0000
  C   C18       1.0  0.55666  0.12854  0.32573  1.0000
  C   C19       1.0  0.50575  0.10066  0.33305  1.0000
  C   C20       1.0  0.48384  0.04983  0.34067  1.0000
  H   H9        1.0  0.44754  0.03122  0.35446  1.0000
  H   H10       1.0  0.57332  0.16568  0.32755  1.0000
  C   C21       1.0  0.48700  0.97309  0.32516  1.0000
  C   C22       1.0  0.51342  0.94834  0.34071  1.0000
  C   C23       1.0  0.49152  0.89751  0.33310  1.0000
  C   C24       1.0  0.44059  0.86963  0.32589  1.0000
  H   H11       1.0  0.54973  0.96696  0.35443  1.0000
  H   H12       1.0  0.42395  0.83249  0.32768  1.0000
  N   N5        1.0  0.51794  0.87498  0.34089  1.0000
  N   N6        1.0  0.47931  0.12319  0.34082  1.0000
  N   N7        1.0  0.20761  0.47970  0.27368  1.0000
  C   C25       1.0  0.24417  0.47259  0.24608  1.0000
  C   C26       1.0  0.27893  0.47633  0.30865  1.0000
  H   H13       1.0  0.24786  0.46816  0.17972  1.0000
  C   C27       1.0  0.32404  0.48256  0.28297  1.0000
  H   H14       1.0  0.33574  0.49444  0.21945  1.0000
  N   N8        1.0  0.51802  0.72747  0.27368  1.0000
  C   C28       1.0  0.52513  0.77114  0.24607  1.0000
  C   C29       1.0  0.52140  0.80216  0.30866  1.0000
  H   H15       1.0  0.52955  0.77926  0.17972  1.0000
  C   C30       1.0  0.51516  0.84104  0.28299  1.0000
  H   H16       1.0  0.50326  0.84086  0.21949  1.0000
  N   N9        1.0  0.27025  0.79008  0.27367  1.0000
  C   C31       1.0  0.22658  0.75352  0.24603  1.0000
  C   C32       1.0  0.19554  0.71877  0.30858  1.0000
  H   H17       1.0  0.21847  0.74984  0.17967  1.0000
  C   C33       1.0  0.15665  0.67368  0.28285  1.0000
  H   H18       1.0  0.15686  0.66194  0.21939  1.0000
  N   N10       1.0  0.78960  0.51843  0.27368  1.0000
  C   C34       1.0  0.75305  0.52557  0.24606  1.0000
  C   C35       1.0  0.71831  0.52187  0.30862  1.0000
  H   H19       1.0  0.74937  0.53000  0.17970  1.0000
  C   C36       1.0  0.67322  0.51568  0.28291  1.0000
  H   H20       1.0  0.66146  0.50371  0.21946  1.0000
  N   N11       1.0  0.47926  0.27072  0.27371  1.0000
  C   C37       1.0  0.47214  0.22705  0.24608  1.0000
  C   C38       1.0  0.47586  0.19602  0.30864  1.0000
  H   H21       1.0  0.46774  0.21895  0.17972  1.0000
  C   C39       1.0  0.48211  0.15715  0.28294  1.0000
  H   H22       1.0  0.49402  0.15735  0.21945  1.0000
  N   N12       1.0  0.72701  0.20809  0.27363  1.0000
  C   C40       1.0  0.77069  0.24464  0.24602  1.0000
  C   C41       1.0  0.80172  0.27939  0.30860  1.0000
  H   H23       1.0  0.77880  0.24834  0.17966  1.0000
  C   C42       1.0  0.84061  0.32449  0.28291  1.0000
  H   H24       1.0  0.84039  0.33624  0.21946  1.0000
  C   C43       1.0  0.94265  0.50574  0.31077  1.0000
  C   C44       1.0  0.89168  0.47855  0.31877  1.0000
  H   H25       1.0  0.95754  0.54207  0.29902  1.0000
  C   C45       1.0  0.10554  0.51960  0.31862  1.0000
  C   C46       1.0  0.05456  0.49240  0.31061  1.0000
  H   H26       1.0  0.03967  0.45607  0.29900  1.0000
  N   N13       1.0  0.13109  0.49592  0.32208  1.0000
  N   N14       1.0  0.86611  0.50222  0.32216  1.0000
  C   C47       1.0  0.49197  0.43646  0.31069  1.0000
  C   C48       1.0  0.51916  0.41269  0.31875  1.0000
  H   H27       1.0  0.45564  0.41503  0.29893  1.0000
  C   C49       1.0  0.47811  0.58549  0.31858  1.0000
  C   C50       1.0  0.50530  0.56171  0.31051  1.0000
  H   H28       1.0  0.54164  0.58316  0.29887  1.0000
  N   N15       1.0  0.50180  0.63473  0.32204  1.0000
  N   N16       1.0  0.49547  0.36344  0.32216  1.0000
  C   C51       1.0  0.56125  0.05504  0.31049  1.0000
  C   C52       1.0  0.58504  0.10601  0.31858  1.0000
  H   H29       1.0  0.58270  0.04014  0.29892  1.0000
  C   C53       1.0  0.41221  0.89216  0.31874  1.0000
  C   C54       1.0  0.43599  0.94312  0.31069  1.0000
  H   H30       1.0  0.41457  0.95803  0.29893  1.0000
  N   N17       1.0  0.36297  0.86660  0.32214  1.0000
  N   N18       1.0  0.63428  0.13156  0.32203  1.0000
  C   C55       1.0  0.20205  0.48974  0.35941  1.0000
  N   N19       1.0  0.27245  0.48482  0.39469  1.0000
  C   C56       1.0  0.23561  0.49137  0.42403  1.0000
  C   C57       1.0  0.23523  0.50091  0.51621  1.0000
  O   O1        1.0  0.27788  0.52174  0.56121  1.0000
  N   N20       1.0  0.19414  0.48513  0.56463  1.0000
  H   H31       1.0  0.16217  0.46510  0.53851  1.0000
  H   H32       1.0  0.19607  0.49018  0.62864  1.0000
  C   C58       1.0  0.17110  0.50881  0.37240  1.0000
  H   H33       1.0  0.17744  0.53152  0.42532  1.0000
  C   C59       1.0  0.50799  0.71187  0.35940  1.0000
  N   N21       1.0  0.51292  0.78720  0.39469  1.0000
  C   C60       1.0  0.50638  0.74381  0.42404  1.0000
  C   C61       1.0  0.49684  0.73389  0.51621  1.0000
  O   O2        1.0  0.47602  0.75571  0.56122  1.0000
  N   N22       1.0  0.51262  0.70857  0.56463  1.0000
  H   H34       1.0  0.53265  0.69663  0.53850  1.0000
  H   H35       1.0  0.50757  0.70545  0.62864  1.0000
  C   C62       1.0  0.48892  0.66185  0.37239  1.0000
  H   H36       1.0  0.46623  0.64550  0.42533  1.0000
  C   C63       1.0  0.28583  0.79563  0.35940  1.0000
  N   N23       1.0  0.21048  0.72523  0.39463  1.0000
  C   C64       1.0  0.25388  0.76207  0.42401  1.0000
  C   C65       1.0  0.26378  0.76243  0.51619  1.0000
  O   O3        1.0  0.24194  0.71978  0.56117  1.0000
  N   N24       1.0  0.28907  0.80352  0.56463  1.0000
  H   H37       1.0  0.30102  0.83549  0.53853  1.0000
  H   H38       1.0  0.29218  0.80157  0.62864  1.0000
  C   C66       1.0  0.33584  0.82658  0.37245  1.0000
  H   H39       1.0  0.35219  0.82024  0.42538  1.0000
  C   C67       1.0  0.79515  0.50840  0.35942  1.0000
  N   N25       1.0  0.72477  0.51338  0.39467  1.0000
  C   C68       1.0  0.76160  0.50681  0.42403  1.0000
  C   C69       1.0  0.76197  0.49727  0.51621  1.0000
  O   O4        1.0  0.71932  0.47647  0.56121  1.0000
  N   N26       1.0  0.80306  0.51305  0.56464  1.0000
  H   H40       1.0  0.83503  0.53307  0.53852  1.0000
  H   H41       1.0  0.80112  0.50800  0.62865  1.0000
  C   C70       1.0  0.82609  0.48932  0.37244  1.0000
  H   H42       1.0  0.81974  0.46663  0.42538  1.0000
  C   C71       1.0  0.48928  0.28630  0.35945  1.0000
  N   N27       1.0  0.48433  0.21096  0.39469  1.0000
  C   C72       1.0  0.49088  0.25435  0.42406  1.0000
  C   C73       1.0  0.50040  0.26425  0.51624  1.0000
  O   O5        1.0  0.52122  0.24241  0.56124  1.0000
  N   N28       1.0  0.48463  0.28956  0.56467  1.0000
  H   H43       1.0  0.46460  0.30150  0.53855  1.0000
  H   H44       1.0  0.48967  0.29266  0.62868  1.0000
  C   C74       1.0  0.50835  0.33632  0.37248  1.0000
  H   H45       1.0  0.53104  0.35267  0.42542  1.0000
  C   C75       1.0  0.71142  0.20252  0.35936  1.0000
  N   N29       1.0  0.78676  0.27291  0.39464  1.0000
  C   C76       1.0  0.74336  0.23607  0.42399  1.0000
  C   C77       1.0  0.73344  0.23569  0.51616  1.0000
  O   O6        1.0  0.75527  0.27834  0.56117  1.0000
  N   N30       1.0  0.70814  0.19460  0.56459  1.0000
  H   H46       1.0  0.69619  0.16263  0.53846  1.0000
  H   H47       1.0  0.70502  0.19653  0.62860  1.0000
  C   C78       1.0  0.66140  0.17157  0.37236  1.0000
  H   H48       1.0  0.64504  0.17790  0.42530  1.0000
