data_image0
_chemical_formula_structural       C3HCH3C3HCH3C3HCH3C3HCH3C3HCH3C3HCH3C3HCH3C3HCH3C3HCH3C3HCH3C3HCH3C3HCH3C3HCH3C3HCH3C3HCH3C3HCH3C3HCH3C3HCH3CNCNCNCNCNCNCNCNCNCNCNCNCNCNCNCNCNCNCNCNCNCNCNCNCNCNCNCNCNCNCNCNCNCNCNCNC3HCH3C3HCH3C3HCH3C3HCH3C3HCH3C3HCH3C3HCH3C3HCH3C3HCH3C3HCH3C3HCH3C3HCH3C3HCH3C3HCH3C3HCH3C3HCH3C3HCH3C3HCH3
_chemical_formula_sum              "C180 H144 N36"
_cell_length_a       37.1139
_cell_length_b       37.114
_cell_length_c       14.8064
_cell_angle_alpha    90
_cell_angle_beta     90
_cell_angle_gamma    120

_space_group_name_H-M_alt    "P 1"
_space_group_IT_number       1

loop_
  _space_group_symop_operation_xyz
  'x, y, z'

loop_
  _atom_site_type_symbol
  _atom_site_label
  _atom_site_symmetry_multiplicity
  _atom_site_fract_x
  _atom_site_fract_y
  _atom_site_fract_z
  _atom_site_occupancy
  C   C1        1.0  0.23233  0.44359  0.31814  1.0000
  C   C2        1.0  0.19641  0.42055  0.26310  1.0000
  C   C3        1.0  0.17432  0.37636  0.26714  1.0000
  H   H1        1.0  0.14902  0.36031  0.22584  1.0000
  C   C4        1.0  0.18128  0.44028  0.19713  1.0000
  H   H2        1.0  0.20265  0.47346  0.18837  1.0000
  H   H3        1.0  0.15128  0.43582  0.21934  1.0000
  H   H4        1.0  0.17738  0.42591  0.13077  1.0000
  C   C5        1.0  0.56402  0.78330  0.31818  1.0000
  C   C6        1.0  0.58706  0.77041  0.26311  1.0000
  C   C7        1.0  0.63126  0.79251  0.26716  1.0000
  H   H5        1.0  0.64730  0.78326  0.22584  1.0000
  C   C8        1.0  0.56733  0.73558  0.19710  1.0000
  H   H6        1.0  0.53416  0.72377  0.18831  1.0000
  H   H7        1.0  0.57177  0.71002  0.21929  1.0000
  H   H8        1.0  0.58171  0.74604  0.13076  1.0000
  C   C9        1.0  0.22432  0.77529  0.31825  1.0000
  C   C10       1.0  0.23725  0.81122  0.26319  1.0000
  C   C11       1.0  0.21514  0.83331  0.26712  1.0000
  H   H9        1.0  0.22442  0.85861  0.22580  1.0000
  C   C12       1.0  0.27213  0.82634  0.19731  1.0000
  H   H10       1.0  0.28396  0.80497  0.18864  1.0000
  H   H11       1.0  0.29766  0.85634  0.21955  1.0000
  H   H12       1.0  0.26171  0.83024  0.13091  1.0000
  C   C13       1.0  0.78144  0.55787  0.31817  1.0000
  C   C14       1.0  0.81739  0.58088  0.26319  1.0000
  C   C15       1.0  0.83949  0.62508  0.26714  1.0000
  H   H13       1.0  0.86480  0.64110  0.22585  1.0000
  C   C16       1.0  0.83252  0.56112  0.19732  1.0000
  H   H14       1.0  0.81115  0.52794  0.18860  1.0000
  H   H15       1.0  0.86251  0.56557  0.21960  1.0000
  H   H16       1.0  0.83645  0.57546  0.13093  1.0000
  C   C17       1.0  0.44979  0.21819  0.31815  1.0000
  C   C18       1.0  0.42675  0.23108  0.26311  1.0000
  C   C19       1.0  0.38255  0.20896  0.26714  1.0000
  H   H17       1.0  0.36650  0.21822  0.22584  1.0000
  C   C20       1.0  0.44647  0.26594  0.19715  1.0000
  H   H18       1.0  0.47966  0.27776  0.18840  1.0000
  H   H19       1.0  0.44201  0.29147  0.21937  1.0000
  H   H20       1.0  0.43211  0.25548  0.13079  1.0000
  C   C21       1.0  0.78949  0.22620  0.31818  1.0000
  C   C22       1.0  0.77659  0.19028  0.26312  1.0000
  C   C23       1.0  0.79869  0.16817  0.26718  1.0000
  H   H21       1.0  0.78943  0.14287  0.22586  1.0000
  C   C24       1.0  0.74176  0.17517  0.19710  1.0000
  H   H22       1.0  0.72997  0.19655  0.18830  1.0000
  H   H23       1.0  0.71620  0.14518  0.21929  1.0000
  H   H24       1.0  0.75223  0.17125  0.13077  1.0000
  C   C25       1.0  0.18497  0.22145  0.30926  1.0000
  C   C26       1.0  0.22168  0.23350  0.25745  1.0000
  C   C27       1.0  0.24293  0.21076  0.26607  1.0000
  H   H25       1.0  0.26877  0.21936  0.22690  1.0000
  C   C28       1.0  0.23842  0.26760  0.18923  1.0000
  H   H26       1.0  0.21679  0.27829  0.17213  1.0000
  H   H27       1.0  0.24531  0.25697  0.12618  1.0000
  H   H28       1.0  0.26711  0.29396  0.21471  1.0000
  C   C29       1.0  0.78617  0.95807  0.30936  1.0000
  C   C30       1.0  0.77413  0.98274  0.25753  1.0000
  C   C31       1.0  0.79687  0.02672  0.26615  1.0000
  H   H29       1.0  0.78827  0.04397  0.22698  1.0000
  C   C32       1.0  0.74002  0.96537  0.18931  1.0000
  H   H30       1.0  0.72934  0.93306  0.17220  1.0000
  H   H31       1.0  0.75066  0.98289  0.12625  1.0000
  H   H32       1.0  0.71366  0.96770  0.21477  1.0000
  C   C33       1.0  0.04957  0.82267  0.30913  1.0000
  C   C34       1.0  0.02490  0.78596  0.25732  1.0000
  C   C35       1.0  0.98092  0.76471  0.26594  1.0000
  H   H33       1.0  0.96367  0.73887  0.22677  1.0000
  C   C36       1.0  0.04226  0.76921  0.18908  1.0000
  H   H34       1.0  0.07458  0.79085  0.17197  1.0000
  H   H35       1.0  0.02474  0.76234  0.12603  1.0000
  H   H36       1.0  0.03994  0.74053  0.21454  1.0000
  C   C37       1.0  0.82884  0.78001  0.30922  1.0000
  C   C38       1.0  0.79212  0.76796  0.25744  1.0000
  C   C39       1.0  0.77087  0.79070  0.26610  1.0000
  H   H37       1.0  0.74503  0.78210  0.22694  1.0000
  C   C40       1.0  0.77537  0.73386  0.18921  1.0000
  H   H38       1.0  0.79700  0.72318  0.17208  1.0000
  H   H39       1.0  0.76848  0.74449  0.12616  1.0000
  H   H40       1.0  0.74669  0.70750  0.21469  1.0000
  C   C41       1.0  0.22765  0.04340  0.30922  1.0000
  C   C42       1.0  0.23969  0.01873  0.25740  1.0000
  C   C43       1.0  0.21695  0.97475  0.26600  1.0000
  H   H41       1.0  0.22554  0.95751  0.22681  1.0000
  C   C44       1.0  0.27380  0.03610  0.18918  1.0000
  H   H42       1.0  0.28449  0.06842  0.17210  1.0000
  H   H43       1.0  0.26317  0.01860  0.12612  1.0000
  H   H44       1.0  0.30016  0.03377  0.21465  1.0000
  C   C45       1.0  0.96424  0.17881  0.30936  1.0000
  C   C46       1.0  0.98891  0.21551  0.25753  1.0000
  C   C47       1.0  0.03289  0.23675  0.26612  1.0000
  H   H45       1.0  0.05013  0.26258  0.22694  1.0000
  C   C48       1.0  0.97154  0.23225  0.18931  1.0000
  H   H46       1.0  0.93922  0.21062  0.17221  1.0000
  H   H47       1.0  0.98905  0.23913  0.12624  1.0000
  H   H48       1.0  0.97387  0.26094  0.21477  1.0000
  C   C49       1.0  0.23252  0.57377  0.39420  1.0000
  C   C50       1.0  0.20914  0.58203  0.32931  1.0000
  C   C51       1.0  0.20836  0.62007  0.33502  1.0000
  H   H49       1.0  0.19731  0.62894  0.28106  1.0000
  C   C52       1.0  0.19170  0.55544  0.24781  1.0000
  H   H50       1.0  0.17013  0.52349  0.26837  1.0000
  H   H51       1.0  0.21673  0.55604  0.20791  1.0000
  H   H52       1.0  0.17466  0.56558  0.20440  1.0000
  C   C53       1.0  0.43382  0.65328  0.39376  1.0000
  C   C54       1.0  0.42565  0.62171  0.32875  1.0000
  C   C55       1.0  0.38762  0.58287  0.33433  1.0000
  H   H53       1.0  0.37876  0.56301  0.28029  1.0000
  C   C56       1.0  0.45228  0.63096  0.24729  1.0000
  H   H54       1.0  0.48420  0.64125  0.26789  1.0000
  H   H55       1.0  0.45174  0.65546  0.20756  1.0000
  H   H56       1.0  0.44212  0.60382  0.20368  1.0000
  C   C57       1.0  0.35432  0.77518  0.39441  1.0000
  C   C58       1.0  0.38583  0.79850  0.32922  1.0000
  C   C59       1.0  0.42466  0.79928  0.33457  1.0000
  H   H57       1.0  0.44447  0.81026  0.28045  1.0000
  C   C60       1.0  0.37654  0.81590  0.24786  1.0000
  H   H58       1.0  0.36639  0.83763  0.26859  1.0000
  H   H59       1.0  0.35192  0.79089  0.20831  1.0000
  H   H60       1.0  0.40361  0.83277  0.20404  1.0000
  C   C61       1.0  0.78139  0.42780  0.39443  1.0000
  C   C62       1.0  0.80470  0.41961  0.32921  1.0000
  C   C63       1.0  0.80547  0.38155  0.33455  1.0000
  H   H61       1.0  0.81645  0.37272  0.28041  1.0000
  C   C64       1.0  0.82210  0.44630  0.24785  1.0000
  H   H62       1.0  0.84383  0.47818  0.26858  1.0000
  H   H63       1.0  0.79708  0.44592  0.20832  1.0000
  H   H64       1.0  0.83895  0.43610  0.20400  1.0000
  C   C65       1.0  0.57997  0.34819  0.39423  1.0000
  C   C66       1.0  0.58823  0.37983  0.32930  1.0000
  C   C67       1.0  0.62628  0.41864  0.33497  1.0000
  H   H65       1.0  0.63516  0.43856  0.28102  1.0000
  C   C68       1.0  0.56163  0.37066  0.24783  1.0000
  H   H66       1.0  0.52969  0.36031  0.26839  1.0000
  H   H67       1.0  0.56221  0.34622  0.20795  1.0000
  H   H68       1.0  0.57178  0.39784  0.20439  1.0000
  C   C69       1.0  0.65948  0.22640  0.39374  1.0000
  C   C70       1.0  0.62790  0.20300  0.32874  1.0000
  C   C71       1.0  0.58907  0.20219  0.33434  1.0000
  H   H69       1.0  0.56920  0.19118  0.28031  1.0000
  C   C72       1.0  0.63714  0.18562  0.24727  1.0000
  H   H70       1.0  0.64745  0.16399  0.26787  1.0000
  H   H71       1.0  0.66164  0.21065  0.20754  1.0000
  H   H72       1.0  0.61001  0.16864  0.20368  1.0000
  C   C73       1.0  0.16289  0.24407  0.31117  1.0000
  N   N1        1.0  0.18344  0.28643  0.31464  1.0000
  C   C74       1.0  0.16355  0.30886  0.31986  1.0000
  N   N2        1.0  0.12111  0.28718  0.32164  1.0000
  C   C75       1.0  0.09876  0.24471  0.32076  1.0000
  N   N3        1.0  0.12051  0.22410  0.31518  1.0000
  C   C76       1.0  0.76355  0.91337  0.31125  1.0000
  N   N4        1.0  0.72119  0.89155  0.31469  1.0000
  C   C77       1.0  0.69875  0.84923  0.31988  1.0000
  N   N5        1.0  0.72044  0.82848  0.32165  1.0000
  C   C78       1.0  0.76291  0.84859  0.32077  1.0000
  N   N6        1.0  0.78352  0.89096  0.31522  1.0000
  C   C79       1.0  0.09427  0.84475  0.31100  1.0000
  N   N7        1.0  0.11608  0.82421  0.31446  1.0000
  C   C80       1.0  0.15840  0.84409  0.31969  1.0000
  N   N8        1.0  0.17916  0.88653  0.32148  1.0000
  C   C81       1.0  0.15904  0.90888  0.32059  1.0000
  N   N9        1.0  0.11668  0.88713  0.31503  1.0000
  C   C82       1.0  0.85092  0.75739  0.31108  1.0000
  N   N10       1.0  0.83038  0.71503  0.31453  1.0000
  C   C83       1.0  0.85027  0.69260  0.31973  1.0000
  N   N11       1.0  0.89271  0.71428  0.32148  1.0000
  C   C84       1.0  0.91506  0.75675  0.32060  1.0000
  N   N12       1.0  0.89330  0.77736  0.31506  1.0000
  C   C85       1.0  0.25027  0.08809  0.31114  1.0000
  N   N13       1.0  0.29263  0.10991  0.31462  1.0000
  C   C86       1.0  0.31506  0.15223  0.31985  1.0000
  N   N14       1.0  0.29337  0.17298  0.32161  1.0000
  C   C87       1.0  0.25090  0.15286  0.32073  1.0000
  N   N15       1.0  0.23030  0.11050  0.31514  1.0000
  C   C88       1.0  0.91954  0.15673  0.31126  1.0000
  N   N16       1.0  0.89772  0.17727  0.31470  1.0000
  C   C89       1.0  0.85540  0.15738  0.31991  1.0000
  N   N17       1.0  0.83465  0.11494  0.32168  1.0000
  C   C90       1.0  0.85476  0.09259  0.32080  1.0000
  N   N18       1.0  0.89713  0.11435  0.31525  1.0000
  C   C91       1.0  0.31484  0.54813  0.38550  1.0000
  N   N19       1.0  0.29556  0.50927  0.34888  1.0000
  C   C92       1.0  0.25363  0.48801  0.33065  1.0000
  N   N20       1.0  0.23151  0.50812  0.34489  1.0000
  C   C93       1.0  0.24946  0.54723  0.38066  1.0000
  N   N21       1.0  0.29051  0.56507  0.40006  1.0000
  C   C94       1.0  0.45945  0.76127  0.38551  1.0000
  N   N22       1.0  0.49832  0.78086  0.34894  1.0000
  C   C95       1.0  0.51960  0.76023  0.33062  1.0000
  N   N23       1.0  0.49947  0.71798  0.34470  1.0000
  C   C96       1.0  0.46032  0.69678  0.38022  1.0000
  N   N24       1.0  0.44249  0.71998  0.39987  1.0000
  C   C97       1.0  0.24632  0.69284  0.38640  1.0000
  N   N25       1.0  0.22678  0.71206  0.34933  1.0000
  C   C98       1.0  0.24740  0.75396  0.33091  1.0000
  N   N26       1.0  0.28963  0.77610  0.34521  1.0000
  C   C99       1.0  0.31081  0.75822  0.38118  1.0000
  N   N27       1.0  0.28760  0.71719  0.40082  1.0000
  C   C100      1.0  0.69902  0.45343  0.38640  1.0000
  N   N28       1.0  0.71823  0.49219  0.34930  1.0000
  C   C101      1.0  0.76013  0.51346  0.33092  1.0000
  N   N29       1.0  0.78231  0.49342  0.34520  1.0000
  C   C102      1.0  0.76443  0.45436  0.38120  1.0000
  N   N30       1.0  0.72339  0.43652  0.40084  1.0000
  C   C103      1.0  0.55432  0.24022  0.38552  1.0000
  N   N31       1.0  0.51546  0.22065  0.34889  1.0000
  C   C104      1.0  0.49421  0.24132  0.33067  1.0000
  N   N32       1.0  0.51431  0.28354  0.34491  1.0000
  C   C105      1.0  0.55342  0.30470  0.38069  1.0000
  N   N33       1.0  0.57126  0.28149  0.40009  1.0000
  C   C106      1.0  0.76746  0.30875  0.38549  1.0000
  N   N34       1.0  0.78705  0.28947  0.34893  1.0000
  C   C107      1.0  0.76642  0.24756  0.33061  1.0000
  N   N35       1.0  0.72418  0.22545  0.34469  1.0000
  C   C108      1.0  0.70298  0.24341  0.38020  1.0000
  N   N36       1.0  0.72618  0.28443  0.39984  1.0000
  C   C109      1.0  0.18657  0.35346  0.32343  1.0000
  C   C110      1.0  0.22230  0.37640  0.37899  1.0000
  C   C111      1.0  0.24447  0.42046  0.37410  1.0000
  H   H73       1.0  0.26918  0.43623  0.41709  1.0000
  C   C112      1.0  0.23673  0.35726  0.44834  1.0000
  H   H74       1.0  0.21450  0.32468  0.46160  1.0000
  H   H75       1.0  0.24186  0.37344  0.51280  1.0000
  H   H76       1.0  0.26600  0.35983  0.42644  1.0000
  C   C113      1.0  0.65415  0.82764  0.32346  1.0000
  C   C114      1.0  0.63122  0.84044  0.37902  1.0000
  C   C115      1.0  0.58717  0.81857  0.37413  1.0000
  H   H77       1.0  0.57141  0.82752  0.41711  1.0000
  C   C116      1.0  0.65037  0.87400  0.44840  1.0000
  H   H78       1.0  0.68295  0.88435  0.46167  1.0000
  H   H79       1.0  0.63418  0.86295  0.51285  1.0000
  H   H80       1.0  0.64781  0.90072  0.42651  1.0000
  C   C117      1.0  0.17997  0.82107  0.32331  1.0000
  C   C118      1.0  0.16715  0.78535  0.37891  1.0000
  C   C119      1.0  0.18902  0.76316  0.37411  1.0000
  H   H81       1.0  0.18006  0.73846  0.41711  1.0000
  C   C120      1.0  0.13357  0.77094  0.44825  1.0000
  H   H82       1.0  0.12324  0.79319  0.46148  1.0000
  H   H83       1.0  0.14461  0.76580  0.51273  1.0000
  H   H84       1.0  0.10686  0.74167  0.42633  1.0000
  C   C121      1.0  0.82725  0.64800  0.32335  1.0000
  C   C122      1.0  0.79152  0.62509  0.37893  1.0000
  C   C123      1.0  0.76933  0.58104  0.37410  1.0000
  H   H85       1.0  0.74463  0.56530  0.41709  1.0000
  C   C124      1.0  0.77712  0.64426  0.44827  1.0000
  H   H86       1.0  0.79937  0.67684  0.46154  1.0000
  H   H87       1.0  0.77197  0.62807  0.51274  1.0000
  H   H88       1.0  0.74786  0.64172  0.42637  1.0000
  C   C125      1.0  0.35966  0.17382  0.32342  1.0000
  C   C126      1.0  0.38260  0.16103  0.37897  1.0000
  C   C127      1.0  0.42665  0.18291  0.37410  1.0000
  H   H89       1.0  0.44242  0.17398  0.41708  1.0000
  C   C128      1.0  0.36346  0.12745  0.44832  1.0000
  H   H90       1.0  0.33087  0.11709  0.46157  1.0000
  H   H91       1.0  0.37964  0.13850  0.51278  1.0000
  H   H92       1.0  0.36603  0.10075  0.42640  1.0000
  C   C129      1.0  0.83382  0.18040  0.32348  1.0000
  C   C130      1.0  0.84662  0.21613  0.37905  1.0000
  C   C131      1.0  0.82475  0.23832  0.37414  1.0000
  H   H93       1.0  0.83370  0.26303  0.41711  1.0000
  C   C132      1.0  0.88018  0.23054  0.44842  1.0000
  H   H94       1.0  0.89052  0.20830  0.46169  1.0000
  H   H95       1.0  0.86912  0.23568  0.51288  1.0000
  H   H96       1.0  0.90690  0.25981  0.42653  1.0000
  C   C133      1.0  0.22880  0.17543  0.32253  1.0000
  C   C134      1.0  0.19220  0.16345  0.37463  1.0000
  C   C135      1.0  0.17094  0.18618  0.36598  1.0000
  H   H97       1.0  0.14522  0.17765  0.40550  1.0000
  C   C136      1.0  0.17564  0.12951  0.44326  1.0000
  H   H98       1.0  0.19702  0.11836  0.45909  1.0000
  H   H99       1.0  0.14650  0.10336  0.41898  1.0000
  H   H100      1.0  0.16962  0.14057  0.50674  1.0000
  C   C137      1.0  0.83219  0.04793  0.32263  1.0000
  C   C138      1.0  0.84418  0.02329  0.37470  1.0000
  C   C139      1.0  0.82144  0.97931  0.36605  1.0000
  H   H101      1.0  0.82998  0.96212  0.40555  1.0000
  C   C140      1.0  0.87812  0.04068  0.44332  1.0000
  H   H102      1.0  0.88927  0.07321  0.45917  1.0000
  H   H103      1.0  0.90428  0.03770  0.41901  1.0000
  H   H104      1.0  0.86707  0.02359  0.50679  1.0000
  C   C141      1.0  0.95972  0.77884  0.32242  1.0000
  C   C142      1.0  0.98435  0.81544  0.37453  1.0000
  C   C143      1.0  0.02833  0.83669  0.36587  1.0000
  H   H105      1.0  0.04553  0.86241  0.40538  1.0000
  C   C144      1.0  0.96697  0.83199  0.44318  1.0000
  H   H106      1.0  0.93444  0.81061  0.45902  1.0000
  H   H107      1.0  0.96995  0.86113  0.41891  1.0000
  H   H108      1.0  0.98405  0.83801  0.50665  1.0000
  C   C145      1.0  0.78500  0.82602  0.32259  1.0000
  C   C146      1.0  0.82162  0.83800  0.37463  1.0000
  C   C147      1.0  0.84288  0.81528  0.36594  1.0000
  H   H109      1.0  0.86861  0.82381  0.40542  1.0000
  C   C148      1.0  0.83819  0.87195  0.44325  1.0000
  H   H110      1.0  0.81681  0.88309  0.45913  1.0000
  H   H111      1.0  0.86732  0.89810  0.41894  1.0000
  H   H112      1.0  0.84424  0.86090  0.50671  1.0000
  C   C149      1.0  0.18162  0.95354  0.32246  1.0000
  C   C150      1.0  0.16964  0.97817  0.37456  1.0000
  C   C151      1.0  0.19237  0.02215  0.36593  1.0000
  H   H113      1.0  0.18384  0.03934  0.40545  1.0000
  C   C152      1.0  0.13569  0.96078  0.44317  1.0000
  H   H114      1.0  0.12455  0.92824  0.45901  1.0000
  H   H115      1.0  0.10954  0.96376  0.41888  1.0000
  H   H116      1.0  0.14674  0.97785  0.50665  1.0000
  C   C153      1.0  0.05410  0.22262  0.32257  1.0000
  C   C154      1.0  0.02946  0.18601  0.37468  1.0000
  C   C155      1.0  0.98548  0.16477  0.36605  1.0000
  H   H117      1.0  0.96829  0.13905  0.40556  1.0000
  C   C156      1.0  0.04685  0.16945  0.44329  1.0000
  H   H118      1.0  0.07938  0.19083  0.45911  1.0000
  H   H119      1.0  0.04385  0.14031  0.41900  1.0000
  H   H120      1.0  0.02978  0.16343  0.50678  1.0000
  C   C157      1.0  0.23021  0.64985  0.40358  1.0000
  C   C158      1.0  0.24592  0.63726  0.47741  1.0000
  C   C159      1.0  0.24700  0.60002  0.47095  1.0000
  H   H121      1.0  0.26100  0.59298  0.52226  1.0000
  C   C160      1.0  0.26225  0.66167  0.56244  1.0000
  H   H122      1.0  0.25764  0.68844  0.56556  1.0000
  H   H123      1.0  0.29542  0.67254  0.56895  1.0000
  H   H124      1.0  0.24608  0.64196  0.62041  1.0000
  C   C161      1.0  0.35784  0.57490  0.40290  1.0000
  C   C162      1.0  0.37037  0.60313  0.47686  1.0000
  C   C163      1.0  0.40760  0.64146  0.47054  1.0000
  H   H125      1.0  0.41460  0.66248  0.52189  1.0000
  C   C164      1.0  0.34593  0.59495  0.56187  1.0000
  H   H126      1.0  0.31914  0.56356  0.56481  1.0000
  H   H127      1.0  0.33507  0.61726  0.56855  1.0000
  H   H128      1.0  0.36561  0.59841  0.61984  1.0000
  C   C165      1.0  0.43270  0.77749  0.40307  1.0000
  C   C166      1.0  0.40453  0.76180  0.47713  1.0000
  C   C167      1.0  0.36620  0.76073  0.47103  1.0000
  H   H129      1.0  0.34525  0.74674  0.52249  1.0000
  C   C168      1.0  0.41277  0.74552  0.56204  1.0000
  H   H130      1.0  0.44415  0.75008  0.56481  1.0000
  H   H131      1.0  0.39045  0.71235  0.56874  1.0000
  H   H132      1.0  0.40938  0.76174  0.62007  1.0000
  C   C169      1.0  0.78369  0.35173  0.40305  1.0000
  C   C170      1.0  0.76801  0.36421  0.47712  1.0000
  C   C171      1.0  0.76694  0.40146  0.47104  1.0000
  H   H133      1.0  0.75297  0.40844  0.52251  1.0000
  C   C172      1.0  0.75173  0.33968  0.56202  1.0000
  H   H134      1.0  0.75629  0.31287  0.56478  1.0000
  H   H135      1.0  0.71857  0.32884  0.56874  1.0000
  H   H136      1.0  0.76796  0.35930  0.62007  1.0000
  C   C173      1.0  0.65603  0.42652  0.40354  1.0000
  C   C174      1.0  0.64348  0.39826  0.47743  1.0000
  C   C175      1.0  0.60622  0.35996  0.47098  1.0000
  H   H137      1.0  0.59917  0.33892  0.52230  1.0000
  C   C176      1.0  0.66789  0.40635  0.56246  1.0000
  H   H138      1.0  0.69467  0.43773  0.56555  1.0000
  H   H139      1.0  0.67876  0.38404  0.56898  1.0000
  H   H140      1.0  0.64819  0.40282  0.62043  1.0000
  C   C177      1.0  0.58109  0.22400  0.40290  1.0000
  C   C178      1.0  0.60933  0.23969  0.47686  1.0000
  C   C179      1.0  0.64766  0.24081  0.47052  1.0000
  H   H141      1.0  0.66868  0.25482  0.52187  1.0000
  C   C180      1.0  0.60115  0.25596  0.56187  1.0000
  H   H142      1.0  0.56977  0.25136  0.56483  1.0000
  H   H143      1.0  0.62346  0.28912  0.56855  1.0000
  H   H144      1.0  0.60462  0.23974  0.61984  1.0000
