data_image0
_chemical_formula_structural       CHC2HC2HC2HC2HC2HCHNC4HNC3HC2HC2HC2HC2HC4HCH3C4HCNHCH3CNHCH3C4HCNHCH3C4HCNHCH3C4HCNHCH3C4H2C4H2C4H2C4H2C4H2CNH3CNC4H2CH3C4HCH3CNC4H2CH3CNC4H2CH3CNC4H2CH3
_chemical_formula_sum              "C108 H78 N12"
_cell_length_a       31.8867
_cell_length_b       31.8867
_cell_length_c       14.7765
_cell_angle_alpha    90
_cell_angle_beta     90
_cell_angle_gamma    120

_space_group_name_H-M_alt    "P 1"
_space_group_IT_number       1

loop_
  _space_group_symop_operation_xyz
  'x, y, z'

loop_
  _atom_site_type_symbol
  _atom_site_label
  _atom_site_symmetry_multiplicity
  _atom_site_fract_x
  _atom_site_fract_y
  _atom_site_fract_z
  _atom_site_occupancy
  C   C1        1.0  0.06691  0.57186  0.33597  1.0000
  H   H1        1.0  0.05084  0.59206  0.32412  1.0000
  C   C2        1.0  0.03807  0.52041  0.34767  1.0000
  C   C3        1.0  0.06487  0.49565  0.35897  1.0000
  H   H2        1.0  0.04737  0.45925  0.37022  1.0000
  C   C4        1.0  0.11828  0.59718  0.33521  1.0000
  C   C5        1.0  0.15631  0.47921  0.28896  1.0000
  H   H3        1.0  0.13696  0.47326  0.23056  1.0000
  C   C6        1.0  0.14874  0.64853  0.32419  1.0000
  C   C7        1.0  0.18512  0.66649  0.25677  1.0000
  H   H4        1.0  0.18331  0.64319  0.20717  1.0000
  C   C8        1.0  0.14175  0.57017  0.34735  1.0000
  C   C9        1.0  0.11615  0.51964  0.35884  1.0000
  H   H5        1.0  0.17893  0.58791  0.34765  1.0000
  C   C10       1.0  0.17650  0.50832  0.44158  1.0000
  C   C11       1.0  0.14474  0.49669  0.36712  1.0000
  H   H6        1.0  0.17075  0.52407  0.49712  1.0000
  C   C12       1.0  0.15370  0.68104  0.39358  1.0000
  H   H7        1.0  0.13019  0.66976  0.44695  1.0000
  N   N1        1.0  0.19755  0.47667  0.28614  1.0000
  C   C13       1.0  0.23072  0.74373  0.33584  1.0000
  C   C14       1.0  0.22629  0.71353  0.26091  1.0000
  C   C15       1.0  0.23002  0.48891  0.35512  1.0000
  C   C16       1.0  0.21944  0.50539  0.43726  1.0000
  H   H8        1.0  0.23588  0.50117  0.57466  1.0000
  N   N2        1.0  0.19378  0.72583  0.39718  1.0000
  C   C17       1.0  0.25252  0.52495  0.51658  1.0000
  C   C18       1.0  0.90443  0.41791  0.33523  1.0000
  C   C19       1.0  0.95579  0.44324  0.33598  1.0000
  H   H9        1.0  0.97187  0.42304  0.32411  1.0000
  C   C20       1.0  0.60099  0.49027  0.33521  1.0000
  C   C21       1.0  0.57566  0.51631  0.33594  1.0000
  H   H10       1.0  0.59586  0.55258  0.32406  1.0000
  C   C22       1.0  0.44704  0.49879  0.33595  1.0000
  C   C23       1.0  0.42171  0.52483  0.33521  1.0000
  H   H11       1.0  0.42684  0.46252  0.32406  1.0000
  C   C24       1.0  0.52857  0.11449  0.33515  1.0000
  C   C25       1.0  0.50256  0.06312  0.33583  1.0000
  H   H12       1.0  0.46628  0.04702  0.32404  1.0000
  C   C26       1.0  0.52013  0.95207  0.33578  1.0000
  C   C27       1.0  0.49412  0.90071  0.33512  1.0000
  H   H13       1.0  0.55641  0.96817  0.32393  1.0000
  C   C28       1.0  0.37037  0.50395  0.32417  1.0000
  C   C29       1.0  0.27515  0.49070  0.33580  1.0000
  C   C30       1.0  0.30536  0.51651  0.26093  1.0000
  C   C31       1.0  0.35241  0.52240  0.25679  1.0000
  H   H14       1.0  0.37572  0.54392  0.20723  1.0000
  C   C32       1.0  0.29131  0.54125  0.19189  1.0000
  H   H15       1.0  0.28138  0.56567  0.22486  1.0000
  H   H16       1.0  0.26057  0.51446  0.15271  1.0000
  H   H17       1.0  0.32033  0.56271  0.14403  1.0000
  C   C33       1.0  0.51505  0.87032  0.32403  1.0000
  C   C34       1.0  0.52817  0.78822  0.33578  1.0000
  C   C35       1.0  0.50246  0.79269  0.26081  1.0000
  C   C36       1.0  0.49662  0.83388  0.25668  1.0000
  H   H18       1.0  0.47515  0.83570  0.20704  1.0000
  C   C37       1.0  0.53963  0.68085  0.28908  1.0000
  N   N3        1.0  0.54216  0.72462  0.28617  1.0000
  H   H19       1.0  0.54560  0.66747  0.23067  1.0000
  C   C38       1.0  0.47776  0.75394  0.19168  1.0000
  H   H20       1.0  0.45328  0.71957  0.22457  1.0000
  H   H21       1.0  0.50457  0.74998  0.15260  1.0000
  H   H22       1.0  0.45636  0.76155  0.14375  1.0000
  C   C39       1.0  0.33810  0.86256  0.28909  1.0000
  N   N4        1.0  0.29432  0.82132  0.28622  1.0000
  H   H23       1.0  0.35149  0.88191  0.23068  1.0000
  C   C40       1.0  0.26505  0.72759  0.19182  1.0000
  H   H24       1.0  0.29942  0.73751  0.22475  1.0000
  H   H25       1.0  0.26900  0.75835  0.15270  1.0000
  H   H26       1.0  0.25747  0.69858  0.14392  1.0000
  C   C41       1.0  0.65234  0.51115  0.32417  1.0000
  C   C42       1.0  0.74756  0.52441  0.33580  1.0000
  C   C43       1.0  0.71735  0.49859  0.26092  1.0000
  C   C44       1.0  0.67029  0.49270  0.25678  1.0000
  H   H27       1.0  0.64698  0.47118  0.20721  1.0000
  C   C45       1.0  0.86639  0.53588  0.28899  1.0000
  N   N5        1.0  0.82516  0.53842  0.28615  1.0000
  H   H28       1.0  0.88575  0.54183  0.23058  1.0000
  C   C46       1.0  0.73139  0.47386  0.19188  1.0000
  H   H29       1.0  0.74132  0.44943  0.22485  1.0000
  H   H30       1.0  0.76214  0.50065  0.15271  1.0000
  H   H31       1.0  0.70238  0.45240  0.14402  1.0000
  C   C47       1.0  0.50763  0.14489  0.32414  1.0000
  C   C48       1.0  0.49444  0.22691  0.33582  1.0000
  C   C49       1.0  0.52023  0.22249  0.26092  1.0000
  C   C50       1.0  0.52609  0.18132  0.25678  1.0000
  H   H32       1.0  0.54759  0.17952  0.20718  1.0000
  C   C51       1.0  0.48298  0.33427  0.28907  1.0000
  N   N6        1.0  0.48042  0.29049  0.28622  1.0000
  H   H33       1.0  0.47701  0.34767  0.23068  1.0000
  C   C52       1.0  0.54496  0.26127  0.19186  1.0000
  H   H34       1.0  0.56940  0.29563  0.22482  1.0000
  H   H35       1.0  0.51816  0.26524  0.15272  1.0000
  H   H36       1.0  0.56640  0.25370  0.14398  1.0000
  C   C53       1.0  0.87397  0.36657  0.32420  1.0000
  C   C54       1.0  0.79199  0.27137  0.33583  1.0000
  C   C55       1.0  0.79642  0.30157  0.26091  1.0000
  C   C56       1.0  0.83759  0.34861  0.25677  1.0000
  H   H37       1.0  0.83940  0.37192  0.20717  1.0000
  C   C57       1.0  0.68462  0.15254  0.28903  1.0000
  N   N7        1.0  0.72841  0.19376  0.28620  1.0000
  H   H38       1.0  0.67124  0.13316  0.23064  1.0000
  C   C58       1.0  0.75765  0.28752  0.19182  1.0000
  H   H39       1.0  0.72329  0.27761  0.22474  1.0000
  H   H40       1.0  0.75370  0.25676  0.15269  1.0000
  H   H41       1.0  0.76524  0.31653  0.14392  1.0000
  C   C59       1.0  0.98463  0.49469  0.34767  1.0000
  C   C60       1.0  0.95783  0.51945  0.35901  1.0000
  C   C61       1.0  0.90656  0.49545  0.35889  1.0000
  C   C62       1.0  0.88095  0.44493  0.34739  1.0000
  H   H42       1.0  0.97533  0.55585  0.37021  1.0000
  H   H43       1.0  0.84377  0.42719  0.34768  1.0000
  C   C63       1.0  0.52421  0.49369  0.34766  1.0000
  C   C64       1.0  0.49946  0.44214  0.35899  1.0000
  C   C65       1.0  0.52346  0.41487  0.35893  1.0000
  C   C66       1.0  0.57398  0.43978  0.34741  1.0000
  H   H44       1.0  0.46306  0.42324  0.37028  1.0000
  H   H45       1.0  0.59172  0.42034  0.34772  1.0000
  C   C67       1.0  0.49849  0.52140  0.34767  1.0000
  C   C68       1.0  0.44873  0.57532  0.34742  1.0000
  C   C69       1.0  0.49925  0.60022  0.35895  1.0000
  C   C70       1.0  0.52324  0.57295  0.35905  1.0000
  H   H46       1.0  0.43099  0.59476  0.34772  1.0000
  H   H47       1.0  0.55965  0.59185  0.37027  1.0000
  C   C71       1.0  0.52520  0.03431  0.34761  1.0000
  C   C72       1.0  0.57675  0.06113  0.35893  1.0000
  C   C73       1.0  0.60401  0.11241  0.35881  1.0000
  C   C74       1.0  0.57907  0.13799  0.34734  1.0000
  H   H48       1.0  0.59566  0.04364  0.37025  1.0000
  H   H49       1.0  0.59848  0.17517  0.34767  1.0000
  C   C75       1.0  0.49749  0.98088  0.34761  1.0000
  C   C76       1.0  0.44363  0.87720  0.34734  1.0000
  C   C77       1.0  0.41869  0.90278  0.35885  1.0000
  C   C78       1.0  0.44595  0.95406  0.35903  1.0000
  H   H50       1.0  0.42422  0.84002  0.34767  1.0000
  H   H51       1.0  0.42704  0.97154  0.37032  1.0000
  C   C79       1.0  0.33783  0.47635  0.39352  1.0000
  N   N8        1.0  0.29304  0.47164  0.39711  1.0000
  H   H52       1.0  0.34911  0.46410  0.44686  1.0000
  H   H53       1.0  0.28793  0.52870  0.50568  1.0000
  H   H54       1.0  0.25885  0.56095  0.53385  1.0000
  C   C80       1.0  0.54248  0.86522  0.39353  1.0000
  N   N9        1.0  0.54717  0.82513  0.39716  1.0000
  C   C81       1.0  0.52993  0.74487  0.35511  1.0000
  C   C82       1.0  0.51345  0.71781  0.43724  1.0000
  C   C83       1.0  0.51055  0.67196  0.44154  1.0000
  C   C84       1.0  0.52221  0.65175  0.36722  1.0000
  H   H55       1.0  0.49481  0.65048  0.49712  1.0000
  H   H56       1.0  0.55468  0.88870  0.44694  1.0000
  C   C85       1.0  0.49386  0.73132  0.51655  1.0000
  H   H57       1.0  0.49002  0.76292  0.50559  1.0000
  H   H58       1.0  0.51768  0.73854  0.57461  1.0000
  H   H59       1.0  0.45790  0.70161  0.53389  1.0000
  C   C86       1.0  0.27406  0.78884  0.35517  1.0000
  C   C87       1.0  0.30112  0.79943  0.43732  1.0000
  C   C88       1.0  0.34699  0.84237  0.44164  1.0000
  C   C89       1.0  0.36716  0.87418  0.36726  1.0000
  H   H60       1.0  0.36848  0.84811  0.49719  1.0000
  C   C90       1.0  0.28759  0.76633  0.51664  1.0000
  H   H61       1.0  0.25597  0.73092  0.50570  1.0000
  H   H62       1.0  0.28041  0.78296  0.57470  1.0000
  H   H63       1.0  0.31728  0.76004  0.53396  1.0000
  C   C91       1.0  0.68487  0.53875  0.39352  1.0000
  N   N10       1.0  0.72966  0.54346  0.39710  1.0000
  C   C92       1.0  0.79268  0.52619  0.35512  1.0000
  C   C93       1.0  0.80326  0.50971  0.43727  1.0000
  C   C94       1.0  0.84620  0.50678  0.44160  1.0000
  C   C95       1.0  0.87796  0.51841  0.36714  1.0000
  H   H64       1.0  0.85196  0.49103  0.49715  1.0000
  H   H65       1.0  0.67359  0.55099  0.44686  1.0000
  C   C96       1.0  0.77017  0.49015  0.51659  1.0000
  H   H66       1.0  0.73477  0.48639  0.50568  1.0000
  H   H67       1.0  0.78681  0.51394  0.57467  1.0000
  H   H68       1.0  0.76386  0.45416  0.53387  1.0000
  C   C97       1.0  0.48011  0.14990  0.39354  1.0000
  N   N11       1.0  0.47541  0.18998  0.39716  1.0000
  C   C98       1.0  0.49268  0.27025  0.35517  1.0000
  C   C99       1.0  0.50921  0.29733  0.43730  1.0000
  C   C100      1.0  0.51215  0.34320  0.44165  1.0000
  C   C101      1.0  0.50049  0.36332  0.36721  1.0000
  H   H69       1.0  0.52792  0.36470  0.49717  1.0000
  H   H70       1.0  0.46789  0.12639  0.44690  1.0000
  C   C102      1.0  0.52879  0.28379  0.51658  1.0000
  H   H71       1.0  0.53255  0.25216  0.50563  1.0000
  H   H72       1.0  0.50502  0.27664  0.57469  1.0000
  H   H73       1.0  0.56478  0.31347  0.53384  1.0000
  C   C103      1.0  0.86900  0.33405  0.39359  1.0000
  N   N12       1.0  0.82892  0.28927  0.39718  1.0000
  C   C104      1.0  0.74864  0.22627  0.35515  1.0000
  C   C105      1.0  0.72154  0.21572  0.43725  1.0000
  C   C106      1.0  0.67566  0.17280  0.44157  1.0000
  C   C107      1.0  0.65555  0.14102  0.36714  1.0000
  H   H74       1.0  0.65414  0.16707  0.49707  1.0000
  H   H75       1.0  0.89251  0.34534  0.44696  1.0000
  C   C108      1.0  0.73505  0.24884  0.51652  1.0000
  H   H76       1.0  0.76671  0.28423  0.50561  1.0000
  H   H77       1.0  0.74216  0.23221  0.57466  1.0000
  H   H78       1.0  0.70538  0.25518  0.53370  1.0000
