data_image0
_chemical_formula_structural       C2H2C2H2C2H2C2H2C2H2C2H2CNCNCNC18H12CNCNCNC18H12C8H3NH2C8H3NH2C8H3NH2
_chemical_formula_sum              "C78 H51 N9"
_cell_length_a       36.9792
_cell_length_b       36.9793
_cell_length_c       14.9632
_cell_angle_alpha    90
_cell_angle_beta     90
_cell_angle_gamma    120

_space_group_name_H-M_alt    "P 1"
_space_group_IT_number       1

loop_
  _space_group_symop_operation_xyz
  'x, y, z'

loop_
  _atom_site_type_symbol
  _atom_site_label
  _atom_site_symmetry_multiplicity
  _atom_site_fract_x
  _atom_site_fract_y
  _atom_site_fract_z
  _atom_site_occupancy
  C   C1        1.0  0.53588  0.49086  0.26907  1.0000
  C   C2        1.0  0.55837  0.46951  0.26744  1.0000
  H   H1        1.0  0.53696  0.50782  0.21398  1.0000
  H   H2        1.0  0.57457  0.47095  0.21078  1.0000
  C   C3        1.0  0.43417  0.52147  0.28495  1.0000
  C   C4        1.0  0.45598  0.49933  0.28646  1.0000
  H   H3        1.0  0.40912  0.51136  0.24292  1.0000
  H   H4        1.0  0.44580  0.47343  0.24692  1.0000
  C   C5        1.0  0.51222  0.04563  0.26908  1.0000
  C   C6        1.0  0.53359  0.08948  0.26744  1.0000
  H   H5        1.0  0.49526  0.02975  0.21398  1.0000
  H   H6        1.0  0.53212  0.10423  0.21081  1.0000
  C   C7        1.0  0.48160  0.91332  0.28491  1.0000
  C   C8        1.0  0.50375  0.95726  0.28646  1.0000
  H   H7        1.0  0.49173  0.89838  0.24292  1.0000
  H   H8        1.0  0.52965  0.97298  0.24694  1.0000
  C   C9        1.0  0.95744  0.46724  0.26905  1.0000
  C   C10       1.0  0.91359  0.44476  0.26742  1.0000
  H   H9        1.0  0.97332  0.46617  0.21392  1.0000
  H   H10       1.0  0.89883  0.42856  0.21076  1.0000
  C   C11       1.0  0.08976  0.56889  0.28490  1.0000
  C   C12       1.0  0.04581  0.54710  0.28646  1.0000
  H   H11       1.0  0.10470  0.59396  0.24290  1.0000
  H   H12       1.0  0.03010  0.55728  0.24690  1.0000
  C   C13       1.0  0.35662  0.71104  0.33624  1.0000
  N   N1        1.0  0.37698  0.68892  0.33626  1.0000
  C   C14       1.0  0.35688  0.64646  0.33624  1.0000
  N   N2        1.0  0.31440  0.62610  0.33627  1.0000
  C   C15       1.0  0.29204  0.64620  0.33624  1.0000
  N   N3        1.0  0.31416  0.68867  0.33626  1.0000
  C   C16       1.0  0.37932  0.62428  0.33652  1.0000
  C   C17       1.0  0.42354  0.64559  0.33332  1.0000
  C   C18       1.0  0.44565  0.62374  0.33402  1.0000
  C   C19       1.0  0.42449  0.57961  0.33771  1.0000
  C   C20       1.0  0.38034  0.55822  0.34073  1.0000
  C   C21       1.0  0.35825  0.58008  0.34023  1.0000
  C   C22       1.0  0.37879  0.75565  0.33651  1.0000
  C   C23       1.0  0.42300  0.77879  0.34021  1.0000
  C   C24       1.0  0.44486  0.82273  0.34068  1.0000
  C   C25       1.0  0.42347  0.84550  0.33769  1.0000
  C   C26       1.0  0.37934  0.82252  0.33401  1.0000
  C   C27       1.0  0.35749  0.77857  0.33330  1.0000
  C   C28       1.0  0.24742  0.62376  0.33653  1.0000
  C   C29       1.0  0.22429  0.64482  0.34023  1.0000
  C   C30       1.0  0.18034  0.62274  0.34070  1.0000
  C   C31       1.0  0.15757  0.57858  0.33770  1.0000
  C   C32       1.0  0.18055  0.55743  0.33405  1.0000
  C   C33       1.0  0.22451  0.57953  0.33334  1.0000
  H   H13       1.0  0.47674  0.83799  0.34503  1.0000
  H   H14       1.0  0.44002  0.76392  0.34318  1.0000
  H   H15       1.0  0.36255  0.83764  0.33033  1.0000
  H   H16       1.0  0.32560  0.76353  0.33012  1.0000
  H   H17       1.0  0.23916  0.67672  0.34316  1.0000
  H   H18       1.0  0.16508  0.63937  0.34501  1.0000
  H   H19       1.0  0.23954  0.56268  0.33015  1.0000
  H   H20       1.0  0.16543  0.52553  0.33036  1.0000
  H   H21       1.0  0.32636  0.56305  0.34318  1.0000
  H   H22       1.0  0.36371  0.52633  0.34503  1.0000
  H   H23       1.0  0.47755  0.64052  0.33035  1.0000
  H   H24       1.0  0.44040  0.67748  0.33014  1.0000
  C   C34       1.0  0.64699  0.29149  0.33568  1.0000
  N   N4        1.0  0.62665  0.31361  0.33574  1.0000
  C   C35       1.0  0.64696  0.35608  0.33568  1.0000
  N   N5        1.0  0.68943  0.37642  0.33576  1.0000
  C   C36       1.0  0.71159  0.35612  0.33570  1.0000
  N   N6        1.0  0.68946  0.31365  0.33576  1.0000
  C   C37       1.0  0.62469  0.37835  0.33641  1.0000
  C   C38       1.0  0.58175  0.35823  0.35897  1.0000
  C   C39       1.0  0.55990  0.38031  0.36119  1.0000
  C   C40       1.0  0.57998  0.42324  0.33935  1.0000
  C   C41       1.0  0.62270  0.44338  0.31567  1.0000
  C   C42       1.0  0.64470  0.42142  0.31506  1.0000
  C   C43       1.0  0.62472  0.24695  0.33643  1.0000
  C   C44       1.0  0.58165  0.22389  0.31507  1.0000
  C   C45       1.0  0.55970  0.17993  0.31573  1.0000
  C   C46       1.0  0.57984  0.15735  0.33938  1.0000
  C   C47       1.0  0.62276  0.18020  0.36123  1.0000
  C   C48       1.0  0.64485  0.22413  0.35900  1.0000
  C   C49       1.0  0.75613  0.37839  0.33645  1.0000
  C   C50       1.0  0.77918  0.35837  0.31509  1.0000
  C   C51       1.0  0.82314  0.38038  0.31573  1.0000
  C   C52       1.0  0.84572  0.42309  0.33941  1.0000
  C   C53       1.0  0.82288  0.44317  0.36130  1.0000
  C   C54       1.0  0.77895  0.42133  0.35905  1.0000
  H   H25       1.0  0.52854  0.16452  0.30041  1.0000
  H   H26       1.0  0.56569  0.23884  0.29784  1.0000
  H   H27       1.0  0.63856  0.16497  0.37775  1.0000
  H   H28       1.0  0.67585  0.23925  0.37556  1.0000
  H   H29       1.0  0.76423  0.32746  0.29783  1.0000
  H   H30       1.0  0.83856  0.36464  0.30038  1.0000
  H   H31       1.0  0.76383  0.43721  0.37559  1.0000
  H   H32       1.0  0.83810  0.47420  0.37779  1.0000
  H   H33       1.0  0.67562  0.43738  0.29782  1.0000
  H   H34       1.0  0.63844  0.47453  0.30039  1.0000
  H   H35       1.0  0.52888  0.36452  0.37773  1.0000
  H   H36       1.0  0.56586  0.32723  0.37553  1.0000
  C   C55       1.0  0.55778  0.44555  0.34146  1.0000
  C   C56       1.0  0.53432  0.44404  0.41745  1.0000
  C   C57       1.0  0.51170  0.46565  0.42107  1.0000
  C   C58       1.0  0.51259  0.48944  0.34527  1.0000
  C   C59       1.0  0.49096  0.51218  0.34275  1.0000
  C   C60       1.0  0.50411  0.54812  0.39614  1.0000
  C   C61       1.0  0.48241  0.57037  0.39402  1.0000
  C   C62       1.0  0.44691  0.55737  0.33875  1.0000
  H   H37       1.0  0.52946  0.55823  0.43734  1.0000
  H   H38       1.0  0.49233  0.59574  0.43502  1.0000
  H   H39       1.0  0.53396  0.42704  0.47186  1.0000
  N   N7        1.0  0.48936  0.46204  0.49620  1.0000
  H   H40       1.0  0.48889  0.44525  0.54677  1.0000
  H   H41       1.0  0.47217  0.47499  0.50117  1.0000
  C   C63       1.0  0.55753  0.11285  0.34149  1.0000
  C   C64       1.0  0.55904  0.09089  0.41747  1.0000
  C   C65       1.0  0.53743  0.04666  0.42107  1.0000
  C   C66       1.0  0.51363  0.02375  0.34528  1.0000
  C   C67       1.0  0.49089  0.97939  0.34275  1.0000
  C   C68       1.0  0.45495  0.95660  0.39612  1.0000
  C   C69       1.0  0.43272  0.91265  0.39404  1.0000
  C   C70       1.0  0.44571  0.89015  0.33874  1.0000
  H   H42       1.0  0.44484  0.97184  0.43733  1.0000
  H   H43       1.0  0.40733  0.89720  0.43499  1.0000
  H   H44       1.0  0.57603  0.10752  0.47190  1.0000
  N   N8        1.0  0.54102  0.02792  0.49622  1.0000
  H   H45       1.0  0.55782  0.04425  0.54679  1.0000
  H   H46       1.0  0.52808  0.99779  0.50118  1.0000
  C   C71       1.0  0.89023  0.44530  0.34150  1.0000
  C   C72       1.0  0.91218  0.46873  0.41751  1.0000
  C   C73       1.0  0.95642  0.49135  0.42111  1.0000
  C   C74       1.0  0.97932  0.49050  0.34527  1.0000
  C   C75       1.0  0.02368  0.51211  0.34273  1.0000
  C   C76       1.0  0.04647  0.49897  0.39612  1.0000
  C   C77       1.0  0.09042  0.52067  0.39403  1.0000
  C   C78       1.0  0.11292  0.55617  0.33874  1.0000
  H   H47       1.0  0.03123  0.47363  0.43735  1.0000
  H   H48       1.0  0.10587  0.51075  0.43503  1.0000
  H   H49       1.0  0.89556  0.46906  0.47196  1.0000
  N   N9        1.0  0.97516  0.51366  0.49628  1.0000
  H   H50       1.0  0.95883  0.51420  0.54676  1.0000
  H   H51       1.0  0.00528  0.53095  0.50111  1.0000
