data_image0
_chemical_formula_structural       C15H12C5H3CH3C5H3CH3C2NC2NC5NC3NC17H14C3H3CH3C3H3CH3C15H12C5H3CH3C5H3CH3C2NC2NC5NC3NC17H14C3H3CH3C3H3CH3C15H12C5H3CH3C5H3CH3C2NC2NC5NC3NC17H14C3H3CH3C3H3CH3C15H12C5H3CH3C5H3CH3C2NC2NC5NC3NC17H14C3H3CH3C3H3CH3
_chemical_formula_sum              "C256 H200 N16"
_cell_length_a       43.0012
_cell_length_b       43.0012
_cell_length_c       14.974
_cell_angle_alpha    90
_cell_angle_beta     90
_cell_angle_gamma    90

_space_group_name_H-M_alt    "P 1"
_space_group_IT_number       1

loop_
  _space_group_symop_operation_xyz
  'x, y, z'

loop_
  _atom_site_type_symbol
  _atom_site_label
  _atom_site_symmetry_multiplicity
  _atom_site_fract_x
  _atom_site_fract_y
  _atom_site_fract_z
  _atom_site_occupancy
  C   C1        1.0  0.43454  0.47179  0.33692  1.0000
  C   C2        1.0  0.03026  0.43354  0.33615  1.0000
  C   C3        1.0  0.50045  0.08261  0.33542  1.0000
  C   C4        1.0  0.47106  0.06723  0.33670  1.0000
  C   C5        1.0  0.41944  0.05930  0.33310  1.0000
  C   C6        1.0  0.44204  0.08180  0.33919  1.0000
  C   C7        1.0  0.33516  0.48305  0.27217  1.0000
  C   C8        1.0  0.36780  0.48503  0.26852  1.0000
  C   C9        1.0  0.50072  0.11622  0.33483  1.0000
  C   C10       1.0  0.48329  0.16597  0.27134  1.0000
  C   C11       1.0  0.48514  0.13333  0.26757  1.0000
  C   C12       1.0  0.13352  0.01562  0.26758  1.0000
  C   C13       1.0  0.16616  0.01762  0.27136  1.0000
  C   C14       1.0  0.01594  0.36744  0.26713  1.0000
  C   C15       1.0  0.01777  0.33479  0.27086  1.0000
  H   H1        1.0  0.03119  0.32369  0.22438  1.0000
  H   H2        1.0  0.02748  0.37876  0.21694  1.0000
  H   H3        1.0  0.43760  0.39691  0.33021  1.0000
  H   H4        1.0  0.12215  0.02715  0.21750  1.0000
  H   H5        1.0  0.17720  0.03114  0.22500  1.0000
  H   H6        1.0  0.06370  0.10386  0.32896  1.0000
  H   H7        1.0  0.39625  0.06422  0.33035  1.0000
  H   H8        1.0  0.43721  0.10501  0.34208  1.0000
  H   H9        1.0  0.47346  0.12201  0.21768  1.0000
  H   H10       1.0  0.46968  0.17705  0.22529  1.0000
  H   H11       1.0  0.37919  0.47350  0.21845  1.0000
  H   H12       1.0  0.32413  0.46951  0.22585  1.0000
  C   C16       1.0  0.00050  0.28384  0.33422  1.0000
  C   C17       1.0  0.99730  0.26669  0.25291  1.0000
  C   C18       1.0  0.00356  0.23411  0.25280  1.0000
  C   C19       1.0  0.00070  0.21696  0.33422  1.0000
  C   C20       1.0  0.01444  0.21945  0.16742  1.0000
  H   H13       1.0  0.03108  0.23462  0.13371  1.0000
  H   H14       1.0  0.49484  0.21531  0.12273  1.0000
  H   H15       1.0  0.02666  0.19756  0.17816  1.0000
  C   C21       1.0  0.98606  0.28136  0.16793  1.0000
  H   H16       1.0  0.97392  0.30326  0.17910  1.0000
  H   H17       1.0  0.46926  0.26621  0.13485  1.0000
  H   H18       1.0  0.00547  0.28549  0.12253  1.0000
  C   C22       1.0  0.21721  0.00042  0.33447  1.0000
  C   C23       1.0  0.23438  0.99728  0.25317  1.0000
  C   C24       1.0  0.26699  0.00342  0.25327  1.0000
  C   C25       1.0  0.28408  0.00041  0.33475  1.0000
  C   C26       1.0  0.28175  0.01433  0.16807  1.0000
  H   H19       1.0  0.26664  0.03098  0.13425  1.0000
  H   H20       1.0  0.28595  0.49474  0.12337  1.0000
  H   H21       1.0  0.30363  0.02654  0.17907  1.0000
  C   C27       1.0  0.21970  0.98625  0.16799  1.0000
  H   H22       1.0  0.19782  0.97404  0.17897  1.0000
  H   H23       1.0  0.23485  0.46955  0.13447  1.0000
  H   H24       1.0  0.21554  0.00577  0.12304  1.0000
  C   C28       1.0  0.44264  0.42006  0.33336  1.0000
  C   C29       1.0  0.42014  0.44267  0.33932  1.0000
  N   N1        1.0  0.46553  0.46538  0.33579  1.0000
  C   C30       1.0  0.47182  0.43437  0.33493  1.0000
  C   C31       1.0  0.50085  0.41817  0.33530  1.0000
  N   N2        1.0  0.03646  0.46446  0.33546  1.0000
  C   C32       1.0  0.06740  0.47055  0.33448  1.0000
  C   C33       1.0  0.08187  0.44148  0.33220  1.0000
  C   C34       1.0  0.05928  0.41896  0.33809  1.0000
  C   C35       1.0  0.08287  0.49990  0.33531  1.0000
  C   C36       1.0  0.06677  0.02899  0.33614  1.0000
  N   N3        1.0  0.03578  0.03540  0.33550  1.0000
  C   C37       1.0  0.02949  0.06641  0.33450  1.0000
  C   C38       1.0  0.05866  0.08071  0.33208  1.0000
  C   C39       1.0  0.08118  0.05811  0.33802  1.0000
  N   N4        1.0  0.46485  0.03631  0.33588  1.0000
  C   C40       1.0  0.43390  0.03022  0.33518  1.0000
  C   C41       1.0  0.41843  0.50087  0.33606  1.0000
  C   C42       1.0  0.38482  0.50067  0.33586  1.0000
  C   C43       1.0  0.36752  0.01619  0.40284  1.0000
  C   C44       1.0  0.33489  0.01801  0.39836  1.0000
  C   C45       1.0  0.31774  0.50049  0.33505  1.0000
  C   C46       1.0  0.01640  0.13343  0.40169  1.0000
  C   C47       1.0  0.01831  0.16607  0.39739  1.0000
  C   C48       1.0  0.50079  0.18330  0.33428  1.0000
  C   C49       1.0  0.11647  0.50008  0.33507  1.0000
  C   C50       1.0  0.18355  0.50029  0.33453  1.0000
  C   C51       1.0  0.16639  0.48284  0.39795  1.0000
  C   C52       1.0  0.13375  0.48459  0.40217  1.0000
  C   C53       1.0  0.50058  0.38457  0.33478  1.0000
  C   C54       1.0  0.48511  0.36738  0.40208  1.0000
  C   C55       1.0  0.48314  0.33474  0.39781  1.0000
  C   C56       1.0  0.50045  0.31749  0.33426  1.0000
  H   H25       1.0  0.46974  0.32360  0.44425  1.0000
  H   H26       1.0  0.47369  0.37864  0.45260  1.0000
  H   H27       1.0  0.39696  0.43773  0.34292  1.0000
  H   H28       1.0  0.48134  0.48114  0.33533  1.0000
  H   H29       1.0  0.01997  0.01964  0.33574  1.0000
  H   H30       1.0  0.06410  0.39575  0.34079  1.0000
  H   H31       1.0  0.10506  0.43657  0.32902  1.0000
  H   H32       1.0  0.12255  0.47302  0.45251  1.0000
  H   H33       1.0  0.17760  0.46938  0.44414  1.0000
  H   H34       1.0  0.10435  0.06306  0.34125  1.0000
  H   H35       1.0  0.02798  0.12218  0.45192  1.0000
  H   H36       1.0  0.03188  0.17722  0.44338  1.0000
  H   H37       1.0  0.32366  0.03151  0.44440  1.0000
  H   H38       1.0  0.37869  0.02783  0.45309  1.0000
  C   C57       1.0  0.99770  0.23410  0.41561  1.0000
  C   C58       1.0  0.00380  0.26670  0.41552  1.0000
  C   C59       1.0  0.98681  0.21941  0.50094  1.0000
  H   H39       1.0  0.97470  0.19747  0.49016  1.0000
  H   H40       1.0  0.47007  0.23451  0.53448  1.0000
  H   H41       1.0  0.00639  0.21536  0.54580  1.0000
  C   C60       1.0  0.01504  0.28140  0.50047  1.0000
  H   H42       1.0  0.02710  0.30334  0.48930  1.0000
  H   H43       1.0  0.03191  0.26630  0.53346  1.0000
  H   H44       1.0  0.49564  0.28544  0.54597  1.0000
  C   C61       1.0  0.26689  0.99740  0.41604  1.0000
  C   C62       1.0  0.23432  0.00359  0.41586  1.0000
  C   C63       1.0  0.28149  0.98635  0.50134  1.0000
  H   H45       1.0  0.30346  0.97427  0.49060  1.0000
  H   H46       1.0  0.26636  0.46954  0.53443  1.0000
  H   H47       1.0  0.28547  0.00584  0.54655  1.0000
  C   C64       1.0  0.21962  0.01481  0.50084  1.0000
  H   H48       1.0  0.19765  0.02684  0.48970  1.0000
  H   H49       1.0  0.23471  0.03169  0.53379  1.0000
  H   H50       1.0  0.21560  0.49540  0.54634  1.0000
  C   C65       1.0  0.43454  0.97179  0.33692  1.0000
  C   C66       1.0  0.03026  0.93354  0.33615  1.0000
  C   C67       1.0  0.50045  0.58261  0.33542  1.0000
  C   C68       1.0  0.47106  0.56723  0.33670  1.0000
  C   C69       1.0  0.41944  0.55929  0.33310  1.0000
  C   C70       1.0  0.44204  0.58180  0.33919  1.0000
  C   C71       1.0  0.33516  0.98306  0.27217  1.0000
  C   C72       1.0  0.36780  0.98503  0.26852  1.0000
  C   C73       1.0  0.50072  0.61621  0.33483  1.0000
  C   C74       1.0  0.48329  0.66597  0.27134  1.0000
  C   C75       1.0  0.48514  0.63333  0.26757  1.0000
  C   C76       1.0  0.13352  0.51562  0.26758  1.0000
  C   C77       1.0  0.16616  0.51762  0.27136  1.0000
  C   C78       1.0  0.01594  0.86744  0.26713  1.0000
  C   C79       1.0  0.01777  0.83479  0.27086  1.0000
  H   H51       1.0  0.03119  0.82369  0.22438  1.0000
  H   H52       1.0  0.02748  0.87875  0.21694  1.0000
  H   H53       1.0  0.43760  0.89691  0.33021  1.0000
  H   H54       1.0  0.12215  0.52715  0.21750  1.0000
  H   H55       1.0  0.17720  0.53114  0.22500  1.0000
  H   H56       1.0  0.06370  0.60386  0.32896  1.0000
  H   H57       1.0  0.39625  0.56422  0.33035  1.0000
  H   H58       1.0  0.43721  0.60501  0.34208  1.0000
  H   H59       1.0  0.47346  0.62201  0.21768  1.0000
  H   H60       1.0  0.46968  0.67705  0.22529  1.0000
  H   H61       1.0  0.37919  0.97350  0.21845  1.0000
  H   H62       1.0  0.32413  0.96950  0.22585  1.0000
  C   C80       1.0  0.00050  0.78383  0.33422  1.0000
  C   C81       1.0  0.99730  0.76669  0.25291  1.0000
  C   C82       1.0  0.00356  0.73411  0.25280  1.0000
  C   C83       1.0  0.00070  0.71696  0.33422  1.0000
  C   C84       1.0  0.01444  0.71945  0.16742  1.0000
  H   H63       1.0  0.03108  0.73461  0.13371  1.0000
  H   H64       1.0  0.49484  0.71531  0.12273  1.0000
  H   H65       1.0  0.02666  0.69756  0.17816  1.0000
  C   C85       1.0  0.98606  0.78136  0.16793  1.0000
  H   H66       1.0  0.97392  0.80326  0.17910  1.0000
  H   H67       1.0  0.46926  0.76621  0.13485  1.0000
  H   H68       1.0  0.00547  0.78549  0.12253  1.0000
  C   C86       1.0  0.21721  0.50042  0.33447  1.0000
  C   C87       1.0  0.23438  0.49728  0.25317  1.0000
  C   C88       1.0  0.26699  0.50342  0.25327  1.0000
  C   C89       1.0  0.28408  0.50041  0.33475  1.0000
  C   C90       1.0  0.28175  0.51433  0.16807  1.0000
  H   H69       1.0  0.26664  0.53098  0.13425  1.0000
  H   H70       1.0  0.28595  0.99474  0.12337  1.0000
  H   H71       1.0  0.30363  0.52654  0.17907  1.0000
  C   C91       1.0  0.21970  0.48625  0.16799  1.0000
  H   H72       1.0  0.19782  0.47404  0.17897  1.0000
  H   H73       1.0  0.23485  0.96955  0.13447  1.0000
  H   H74       1.0  0.21554  0.50577  0.12304  1.0000
  C   C92       1.0  0.44264  0.92006  0.33336  1.0000
  C   C93       1.0  0.42014  0.94267  0.33932  1.0000
  N   N5        1.0  0.46553  0.96538  0.33579  1.0000
  C   C94       1.0  0.47182  0.93437  0.33493  1.0000
  C   C95       1.0  0.50085  0.91817  0.33530  1.0000
  N   N6        1.0  0.03646  0.96446  0.33546  1.0000
  C   C96       1.0  0.06740  0.97055  0.33448  1.0000
  C   C97       1.0  0.08187  0.94148  0.33220  1.0000
  C   C98       1.0  0.05928  0.91896  0.33809  1.0000
  C   C99       1.0  0.08287  0.99990  0.33531  1.0000
  C   C100      1.0  0.06677  0.52899  0.33614  1.0000
  N   N7        1.0  0.03578  0.53540  0.33550  1.0000
  C   C101      1.0  0.02949  0.56641  0.33450  1.0000
  C   C102      1.0  0.05866  0.58071  0.33208  1.0000
  C   C103      1.0  0.08118  0.55811  0.33802  1.0000
  N   N8        1.0  0.46485  0.53631  0.33588  1.0000
  C   C104      1.0  0.43390  0.53022  0.33518  1.0000
  C   C105      1.0  0.41843  0.00087  0.33606  1.0000
  C   C106      1.0  0.38482  0.00067  0.33586  1.0000
  C   C107      1.0  0.36752  0.51619  0.40284  1.0000
  C   C108      1.0  0.33489  0.51801  0.39836  1.0000
  C   C109      1.0  0.31774  0.00049  0.33505  1.0000
  C   C110      1.0  0.01640  0.63343  0.40169  1.0000
  C   C111      1.0  0.01831  0.66607  0.39739  1.0000
  C   C112      1.0  0.50079  0.68330  0.33428  1.0000
  C   C113      1.0  0.11647  0.00008  0.33507  1.0000
  C   C114      1.0  0.18355  0.00029  0.33453  1.0000
  C   C115      1.0  0.16639  0.98283  0.39795  1.0000
  C   C116      1.0  0.13375  0.98459  0.40217  1.0000
  C   C117      1.0  0.50058  0.88457  0.33478  1.0000
  C   C118      1.0  0.48511  0.86738  0.40208  1.0000
  C   C119      1.0  0.48314  0.83474  0.39781  1.0000
  C   C120      1.0  0.50045  0.81749  0.33426  1.0000
  H   H75       1.0  0.46974  0.82359  0.44425  1.0000
  H   H76       1.0  0.47369  0.87864  0.45260  1.0000
  H   H77       1.0  0.39696  0.93772  0.34292  1.0000
  H   H78       1.0  0.48134  0.98114  0.33533  1.0000
  H   H79       1.0  0.01997  0.51964  0.33574  1.0000
  H   H80       1.0  0.06410  0.89575  0.34079  1.0000
  H   H81       1.0  0.10506  0.93657  0.32902  1.0000
  H   H82       1.0  0.12255  0.97302  0.45251  1.0000
  H   H83       1.0  0.17760  0.96938  0.44414  1.0000
  H   H84       1.0  0.10435  0.56306  0.34125  1.0000
  H   H85       1.0  0.02798  0.62218  0.45192  1.0000
  H   H86       1.0  0.03188  0.67722  0.44338  1.0000
  H   H87       1.0  0.32366  0.53151  0.44440  1.0000
  H   H88       1.0  0.37869  0.52783  0.45309  1.0000
  C   C121      1.0  0.99770  0.73410  0.41561  1.0000
  C   C122      1.0  0.00380  0.76670  0.41552  1.0000
  C   C123      1.0  0.98681  0.71941  0.50094  1.0000
  H   H89       1.0  0.97470  0.69747  0.49016  1.0000
  H   H90       1.0  0.47007  0.73451  0.53448  1.0000
  H   H91       1.0  0.00639  0.71537  0.54580  1.0000
  C   C124      1.0  0.01504  0.78139  0.50047  1.0000
  H   H92       1.0  0.02710  0.80334  0.48930  1.0000
  H   H93       1.0  0.03191  0.76630  0.53346  1.0000
  H   H94       1.0  0.49564  0.78544  0.54597  1.0000
  C   C125      1.0  0.26689  0.49740  0.41604  1.0000
  C   C126      1.0  0.23432  0.50359  0.41586  1.0000
  C   C127      1.0  0.28149  0.48635  0.50134  1.0000
  H   H95       1.0  0.30346  0.47428  0.49060  1.0000
  H   H96       1.0  0.26636  0.96953  0.53443  1.0000
  H   H97       1.0  0.28547  0.50584  0.54655  1.0000
  C   C128      1.0  0.21962  0.51480  0.50084  1.0000
  H   H98       1.0  0.19765  0.52684  0.48970  1.0000
  H   H99       1.0  0.23471  0.53169  0.53379  1.0000
  H   H100      1.0  0.21560  0.99540  0.54634  1.0000
  C   C129      1.0  0.93454  0.47179  0.33692  1.0000
  C   C130      1.0  0.53026  0.43354  0.33615  1.0000
  C   C131      1.0  0.00045  0.08261  0.33542  1.0000
  C   C132      1.0  0.97105  0.06723  0.33670  1.0000
  C   C133      1.0  0.91944  0.05930  0.33310  1.0000
  C   C134      1.0  0.94203  0.08180  0.33919  1.0000
  C   C135      1.0  0.83515  0.48305  0.27217  1.0000
  C   C136      1.0  0.86780  0.48503  0.26852  1.0000
  C   C137      1.0  0.00072  0.11622  0.33483  1.0000
  C   C138      1.0  0.98329  0.16597  0.27134  1.0000
  C   C139      1.0  0.98514  0.13333  0.26757  1.0000
  C   C140      1.0  0.63352  0.01562  0.26758  1.0000
  C   C141      1.0  0.66616  0.01762  0.27136  1.0000
  C   C142      1.0  0.51594  0.36744  0.26713  1.0000
  C   C143      1.0  0.51777  0.33479  0.27086  1.0000
  H   H101      1.0  0.53119  0.32369  0.22438  1.0000
  H   H102      1.0  0.52748  0.37876  0.21694  1.0000
  H   H103      1.0  0.93760  0.39691  0.33021  1.0000
  H   H104      1.0  0.62215  0.02715  0.21750  1.0000
  H   H105      1.0  0.67720  0.03114  0.22500  1.0000
  H   H106      1.0  0.56370  0.10386  0.32896  1.0000
  H   H107      1.0  0.89625  0.06422  0.33035  1.0000
  H   H108      1.0  0.93721  0.10501  0.34208  1.0000
  H   H109      1.0  0.97345  0.12201  0.21768  1.0000
  H   H110      1.0  0.96967  0.17705  0.22529  1.0000
  H   H111      1.0  0.87918  0.47350  0.21845  1.0000
  H   H112      1.0  0.82413  0.46951  0.22585  1.0000
  C   C144      1.0  0.50050  0.28384  0.33422  1.0000
  C   C145      1.0  0.49730  0.26669  0.25291  1.0000
  C   C146      1.0  0.50356  0.23411  0.25280  1.0000
  C   C147      1.0  0.50070  0.21696  0.33422  1.0000
  C   C148      1.0  0.51444  0.21945  0.16742  1.0000
  H   H113      1.0  0.53108  0.23462  0.13371  1.0000
  H   H114      1.0  0.99483  0.21531  0.12273  1.0000
  H   H115      1.0  0.52666  0.19756  0.17816  1.0000
  C   C149      1.0  0.48606  0.28136  0.16793  1.0000
  H   H116      1.0  0.47392  0.30326  0.17910  1.0000
  H   H117      1.0  0.96926  0.26621  0.13485  1.0000
  H   H118      1.0  0.50547  0.28549  0.12253  1.0000
  C   C150      1.0  0.71721  0.00042  0.33447  1.0000
  C   C151      1.0  0.73438  0.99728  0.25317  1.0000
  C   C152      1.0  0.76698  0.00342  0.25327  1.0000
  C   C153      1.0  0.78408  0.00041  0.33475  1.0000
  C   C154      1.0  0.78175  0.01433  0.16807  1.0000
  H   H119      1.0  0.76664  0.03098  0.13425  1.0000
  H   H120      1.0  0.78594  0.49474  0.12337  1.0000
  H   H121      1.0  0.80363  0.02654  0.17907  1.0000
  C   C155      1.0  0.71970  0.98625  0.16799  1.0000
  H   H122      1.0  0.69782  0.97404  0.17897  1.0000
  H   H123      1.0  0.73485  0.46955  0.13447  1.0000
  H   H124      1.0  0.71554  0.00577  0.12304  1.0000
  C   C156      1.0  0.94264  0.42006  0.33336  1.0000
  C   C157      1.0  0.92014  0.44267  0.33932  1.0000
  N   N9        1.0  0.96553  0.46538  0.33579  1.0000
  C   C158      1.0  0.97182  0.43437  0.33493  1.0000
  C   C159      1.0  0.00085  0.41817  0.33530  1.0000
  N   N10       1.0  0.53646  0.46446  0.33546  1.0000
  C   C160      1.0  0.56740  0.47055  0.33448  1.0000
  C   C161      1.0  0.58187  0.44148  0.33220  1.0000
  C   C162      1.0  0.55928  0.41896  0.33809  1.0000
  C   C163      1.0  0.58287  0.49990  0.33531  1.0000
  C   C164      1.0  0.56677  0.02899  0.33614  1.0000
  N   N11       1.0  0.53578  0.03540  0.33550  1.0000
  C   C165      1.0  0.52949  0.06641  0.33450  1.0000
  C   C166      1.0  0.55866  0.08071  0.33208  1.0000
  C   C167      1.0  0.58118  0.05811  0.33802  1.0000
  N   N12       1.0  0.96485  0.03631  0.33588  1.0000
  C   C168      1.0  0.93390  0.03022  0.33518  1.0000
  C   C169      1.0  0.91843  0.50087  0.33606  1.0000
  C   C170      1.0  0.88482  0.50067  0.33586  1.0000
  C   C171      1.0  0.86752  0.01619  0.40284  1.0000
  C   C172      1.0  0.83488  0.01801  0.39836  1.0000
  C   C173      1.0  0.81774  0.50049  0.33505  1.0000
  C   C174      1.0  0.51640  0.13343  0.40169  1.0000
  C   C175      1.0  0.51831  0.16607  0.39739  1.0000
  C   C176      1.0  0.00079  0.18330  0.33428  1.0000
  C   C177      1.0  0.61647  0.50008  0.33507  1.0000
  C   C178      1.0  0.68355  0.50029  0.33453  1.0000
  C   C179      1.0  0.66639  0.48284  0.39795  1.0000
  C   C180      1.0  0.63375  0.48459  0.40217  1.0000
  C   C181      1.0  0.00058  0.38457  0.33478  1.0000
  C   C182      1.0  0.98511  0.36738  0.40208  1.0000
  C   C183      1.0  0.98314  0.33474  0.39781  1.0000
  C   C184      1.0  0.00045  0.31749  0.33426  1.0000
  H   H125      1.0  0.96974  0.32360  0.44425  1.0000
  H   H126      1.0  0.97369  0.37864  0.45260  1.0000
  H   H127      1.0  0.89696  0.43773  0.34292  1.0000
  H   H128      1.0  0.98134  0.48114  0.33533  1.0000
  H   H129      1.0  0.51997  0.01964  0.33574  1.0000
  H   H130      1.0  0.56410  0.39575  0.34079  1.0000
  H   H131      1.0  0.60506  0.43657  0.32902  1.0000
  H   H132      1.0  0.62255  0.47302  0.45251  1.0000
  H   H133      1.0  0.67760  0.46938  0.44414  1.0000
  H   H134      1.0  0.60435  0.06306  0.34125  1.0000
  H   H135      1.0  0.52798  0.12218  0.45192  1.0000
  H   H136      1.0  0.53188  0.17722  0.44338  1.0000
  H   H137      1.0  0.82366  0.03151  0.44440  1.0000
  H   H138      1.0  0.87870  0.02783  0.45309  1.0000
  C   C185      1.0  0.49770  0.23410  0.41561  1.0000
  C   C186      1.0  0.50380  0.26670  0.41552  1.0000
  C   C187      1.0  0.48681  0.21941  0.50094  1.0000
  H   H139      1.0  0.47470  0.19747  0.49016  1.0000
  H   H140      1.0  0.97007  0.23451  0.53448  1.0000
  H   H141      1.0  0.50639  0.21536  0.54580  1.0000
  C   C188      1.0  0.51504  0.28140  0.50047  1.0000
  H   H142      1.0  0.52710  0.30334  0.48930  1.0000
  H   H143      1.0  0.53191  0.26630  0.53346  1.0000
  H   H144      1.0  0.99564  0.28544  0.54597  1.0000
  C   C189      1.0  0.76689  0.99740  0.41604  1.0000
  C   C190      1.0  0.73432  0.00359  0.41586  1.0000
  C   C191      1.0  0.78149  0.98635  0.50134  1.0000
  H   H145      1.0  0.80346  0.97427  0.49060  1.0000
  H   H146      1.0  0.76636  0.46954  0.53443  1.0000
  H   H147      1.0  0.78547  0.00584  0.54655  1.0000
  C   C192      1.0  0.71962  0.01481  0.50084  1.0000
  H   H148      1.0  0.69765  0.02684  0.48970  1.0000
  H   H149      1.0  0.73471  0.03169  0.53379  1.0000
  H   H150      1.0  0.71560  0.49540  0.54634  1.0000
  C   C193      1.0  0.93454  0.97179  0.33692  1.0000
  C   C194      1.0  0.53026  0.93354  0.33615  1.0000
  C   C195      1.0  0.00045  0.58261  0.33542  1.0000
  C   C196      1.0  0.97105  0.56723  0.33670  1.0000
  C   C197      1.0  0.91944  0.55929  0.33310  1.0000
  C   C198      1.0  0.94203  0.58180  0.33919  1.0000
  C   C199      1.0  0.83515  0.98306  0.27217  1.0000
  C   C200      1.0  0.86780  0.98503  0.26852  1.0000
  C   C201      1.0  0.00072  0.61621  0.33483  1.0000
  C   C202      1.0  0.98329  0.66597  0.27134  1.0000
  C   C203      1.0  0.98514  0.63333  0.26757  1.0000
  C   C204      1.0  0.63352  0.51562  0.26758  1.0000
  C   C205      1.0  0.66616  0.51762  0.27136  1.0000
  C   C206      1.0  0.51594  0.86744  0.26713  1.0000
  C   C207      1.0  0.51777  0.83479  0.27086  1.0000
  H   H151      1.0  0.53119  0.82369  0.22438  1.0000
  H   H152      1.0  0.52748  0.87875  0.21694  1.0000
  H   H153      1.0  0.93760  0.89691  0.33021  1.0000
  H   H154      1.0  0.62215  0.52715  0.21750  1.0000
  H   H155      1.0  0.67720  0.53114  0.22500  1.0000
  H   H156      1.0  0.56370  0.60386  0.32896  1.0000
  H   H157      1.0  0.89625  0.56422  0.33035  1.0000
  H   H158      1.0  0.93721  0.60501  0.34208  1.0000
  H   H159      1.0  0.97345  0.62201  0.21768  1.0000
  H   H160      1.0  0.96967  0.67705  0.22529  1.0000
  H   H161      1.0  0.87918  0.97350  0.21845  1.0000
  H   H162      1.0  0.82413  0.96950  0.22585  1.0000
  C   C208      1.0  0.50050  0.78383  0.33422  1.0000
  C   C209      1.0  0.49730  0.76669  0.25291  1.0000
  C   C210      1.0  0.50356  0.73411  0.25280  1.0000
  C   C211      1.0  0.50070  0.71696  0.33422  1.0000
  C   C212      1.0  0.51444  0.71945  0.16742  1.0000
  H   H163      1.0  0.53108  0.73461  0.13371  1.0000
  H   H164      1.0  0.99483  0.71531  0.12273  1.0000
  H   H165      1.0  0.52666  0.69756  0.17816  1.0000
  C   C213      1.0  0.48606  0.78136  0.16793  1.0000
  H   H166      1.0  0.47392  0.80326  0.17910  1.0000
  H   H167      1.0  0.96926  0.76621  0.13485  1.0000
  H   H168      1.0  0.50547  0.78549  0.12253  1.0000
  C   C214      1.0  0.71721  0.50042  0.33447  1.0000
  C   C215      1.0  0.73438  0.49728  0.25317  1.0000
  C   C216      1.0  0.76698  0.50342  0.25327  1.0000
  C   C217      1.0  0.78408  0.50041  0.33475  1.0000
  C   C218      1.0  0.78175  0.51433  0.16807  1.0000
  H   H169      1.0  0.76664  0.53098  0.13425  1.0000
  H   H170      1.0  0.78594  0.99474  0.12337  1.0000
  H   H171      1.0  0.80363  0.52654  0.17907  1.0000
  C   C219      1.0  0.71970  0.48625  0.16799  1.0000
  H   H172      1.0  0.69782  0.47404  0.17897  1.0000
  H   H173      1.0  0.73485  0.96955  0.13447  1.0000
  H   H174      1.0  0.71554  0.50577  0.12304  1.0000
  C   C220      1.0  0.94264  0.92006  0.33336  1.0000
  C   C221      1.0  0.92014  0.94267  0.33932  1.0000
  N   N13       1.0  0.96553  0.96538  0.33579  1.0000
  C   C222      1.0  0.97182  0.93437  0.33493  1.0000
  C   C223      1.0  0.00085  0.91817  0.33530  1.0000
  N   N14       1.0  0.53646  0.96446  0.33546  1.0000
  C   C224      1.0  0.56740  0.97055  0.33448  1.0000
  C   C225      1.0  0.58187  0.94148  0.33220  1.0000
  C   C226      1.0  0.55928  0.91896  0.33809  1.0000
  C   C227      1.0  0.58287  0.99990  0.33531  1.0000
  C   C228      1.0  0.56677  0.52899  0.33614  1.0000
  N   N15       1.0  0.53578  0.53540  0.33550  1.0000
  C   C229      1.0  0.52949  0.56641  0.33450  1.0000
  C   C230      1.0  0.55866  0.58071  0.33208  1.0000
  C   C231      1.0  0.58118  0.55811  0.33802  1.0000
  N   N16       1.0  0.96485  0.53631  0.33588  1.0000
  C   C232      1.0  0.93390  0.53022  0.33518  1.0000
  C   C233      1.0  0.91843  0.00087  0.33606  1.0000
  C   C234      1.0  0.88482  0.00067  0.33586  1.0000
  C   C235      1.0  0.86752  0.51619  0.40284  1.0000
  C   C236      1.0  0.83488  0.51801  0.39836  1.0000
  C   C237      1.0  0.81774  0.00049  0.33505  1.0000
  C   C238      1.0  0.51640  0.63343  0.40169  1.0000
  C   C239      1.0  0.51831  0.66607  0.39739  1.0000
  C   C240      1.0  0.00079  0.68330  0.33428  1.0000
  C   C241      1.0  0.61647  0.00008  0.33507  1.0000
  C   C242      1.0  0.68355  0.00029  0.33453  1.0000
  C   C243      1.0  0.66639  0.98283  0.39795  1.0000
  C   C244      1.0  0.63375  0.98459  0.40217  1.0000
  C   C245      1.0  0.00058  0.88457  0.33478  1.0000
  C   C246      1.0  0.98511  0.86738  0.40208  1.0000
  C   C247      1.0  0.98314  0.83474  0.39781  1.0000
  C   C248      1.0  0.00045  0.81749  0.33426  1.0000
  H   H175      1.0  0.96974  0.82359  0.44425  1.0000
  H   H176      1.0  0.97369  0.87864  0.45260  1.0000
  H   H177      1.0  0.89696  0.93772  0.34292  1.0000
  H   H178      1.0  0.98134  0.98114  0.33533  1.0000
  H   H179      1.0  0.51997  0.51964  0.33574  1.0000
  H   H180      1.0  0.56410  0.89575  0.34079  1.0000
  H   H181      1.0  0.60506  0.93657  0.32902  1.0000
  H   H182      1.0  0.62255  0.97302  0.45251  1.0000
  H   H183      1.0  0.67760  0.96938  0.44414  1.0000
  H   H184      1.0  0.60435  0.56306  0.34125  1.0000
  H   H185      1.0  0.52798  0.62218  0.45192  1.0000
  H   H186      1.0  0.53188  0.67722  0.44338  1.0000
  H   H187      1.0  0.82366  0.53151  0.44440  1.0000
  H   H188      1.0  0.87870  0.52783  0.45309  1.0000
  C   C249      1.0  0.49770  0.73410  0.41561  1.0000
  C   C250      1.0  0.50380  0.76670  0.41552  1.0000
  C   C251      1.0  0.48681  0.71941  0.50094  1.0000
  H   H189      1.0  0.47470  0.69747  0.49016  1.0000
  H   H190      1.0  0.97007  0.73451  0.53448  1.0000
  H   H191      1.0  0.50639  0.71537  0.54580  1.0000
  C   C252      1.0  0.51504  0.78139  0.50047  1.0000
  H   H192      1.0  0.52710  0.80334  0.48930  1.0000
  H   H193      1.0  0.53191  0.76630  0.53346  1.0000
  H   H194      1.0  0.99564  0.78544  0.54597  1.0000
  C   C253      1.0  0.76689  0.49740  0.41604  1.0000
  C   C254      1.0  0.73432  0.50359  0.41586  1.0000
  C   C255      1.0  0.78149  0.48635  0.50134  1.0000
  H   H195      1.0  0.80346  0.47428  0.49060  1.0000
  H   H196      1.0  0.76636  0.96953  0.53443  1.0000
  H   H197      1.0  0.78547  0.50584  0.54655  1.0000
  C   C256      1.0  0.71962  0.51480  0.50084  1.0000
  H   H198      1.0  0.69765  0.52684  0.48970  1.0000
  H   H199      1.0  0.73471  0.53169  0.53379  1.0000
  H   H200      1.0  0.71560  0.99540  0.54634  1.0000
