data_image0
_chemical_formula_structural       C12H6CH2C2O2C12H6CH2C2O2C12H6CH2C2O2C3H2ONHC3H2ONHC3H2ONHC3H2ONHC3H2ONHC3H2ONHC12H6C2H2C2O2C12H6C2H2C2O2C12H6C2H2C2O2C3NC2NH2NHC3NC2NH2NHC3NC2NH2NHC3NC2NH2NHC3NC2NH2NHC3NC2NH2NH
_chemical_formula_sum              "C141 H84 O18 N24"
_cell_length_a       34.3583
_cell_length_b       34.3583
_cell_length_c       15.0379
_cell_angle_alpha    90
_cell_angle_beta     90
_cell_angle_gamma    120

_space_group_name_H-M_alt    "P 1"
_space_group_IT_number       1

loop_
  _space_group_symop_operation_xyz
  'x, y, z'

loop_
  _atom_site_type_symbol
  _atom_site_label
  _atom_site_symmetry_multiplicity
  _atom_site_fract_x
  _atom_site_fract_y
  _atom_site_fract_z
  _atom_site_occupancy
  C   C1        1.0  0.96778  0.50990  0.27526  1.0000
  C   C2        1.0  0.96853  0.50997  0.18071  1.0000
  C   C3        1.0  0.02776  0.48757  0.18075  1.0000
  C   C4        1.0  0.02848  0.48763  0.27529  1.0000
  C   C5        1.0  0.06012  0.47877  0.31808  1.0000
  C   C6        1.0  0.09097  0.47161  0.26895  1.0000
  C   C7        1.0  0.08855  0.47039  0.17540  1.0000
  C   C8        1.0  0.05693  0.47785  0.13179  1.0000
  C   C9        1.0  0.93933  0.51964  0.13171  1.0000
  C   C10       1.0  0.90770  0.52709  0.17528  1.0000
  C   C11       1.0  0.90527  0.52589  0.26883  1.0000
  C   C12       1.0  0.93614  0.51878  0.31801  1.0000
  H   H1        1.0  0.06270  0.58192  0.27367  1.0000
  H   H2        1.0  0.93350  0.41566  0.27355  1.0000
  H   H3        1.0  0.11049  0.46518  0.13813  1.0000
  H   H4        1.0  0.05670  0.47802  0.06367  1.0000
  H   H5        1.0  0.93960  0.51951  0.06359  1.0000
  H   H6        1.0  0.88578  0.53232  0.13798  1.0000
  C   C13       1.0  0.99814  0.49876  0.12918  1.0000
  H   H7        1.0  0.01932  0.52754  0.08658  1.0000
  H   H8        1.0  0.97697  0.46997  0.08660  1.0000
  C   C14       1.0  0.86958  0.52749  0.31156  1.0000
  C   C15       1.0  0.12666  0.47005  0.31173  1.0000
  O   O1        1.0  0.11686  0.68053  0.29178  1.0000
  O   O2        1.0  0.87938  0.31685  0.29217  1.0000
  C   C16       1.0  0.48699  0.45724  0.27530  1.0000
  C   C17       1.0  0.48694  0.45791  0.18076  1.0000
  C   C18       1.0  0.50931  0.53954  0.18076  1.0000
  C   C19       1.0  0.50926  0.54021  0.27531  1.0000
  C   C20       1.0  0.51814  0.58074  0.31807  1.0000
  C   C21       1.0  0.52526  0.61872  0.26889  1.0000
  C   C22       1.0  0.52649  0.61751  0.17534  1.0000
  C   C23       1.0  0.51900  0.57842  0.13177  1.0000
  C   C24       1.0  0.47725  0.41903  0.13176  1.0000
  C   C25       1.0  0.46980  0.37996  0.17534  1.0000
  C   C26       1.0  0.47101  0.37874  0.26889  1.0000
  C   C27       1.0  0.47811  0.41672  0.31806  1.0000
  H   H9        1.0  0.41502  0.48026  0.27355  1.0000
  H   H10       1.0  0.58128  0.51731  0.27373  1.0000
  H   H11       1.0  0.53170  0.64465  0.13805  1.0000
  H   H12       1.0  0.51888  0.57802  0.06365  1.0000
  H   H13       1.0  0.47738  0.41943  0.06365  1.0000
  H   H14       1.0  0.46458  0.35281  0.13805  1.0000
  C   C28       1.0  0.49812  0.49872  0.12921  1.0000
  H   H15       1.0  0.46933  0.49110  0.08663  1.0000
  H   H16       1.0  0.52690  0.50635  0.08661  1.0000
  C   C29       1.0  0.46944  0.34147  0.31162  1.0000
  C   C30       1.0  0.52687  0.65601  0.31159  1.0000
  O   O3        1.0  0.31621  0.43555  0.29213  1.0000
  O   O4        1.0  0.67979  0.56166  0.29164  1.0000
  C   C31       1.0  0.53957  0.02909  0.27532  1.0000
  C   C32       1.0  0.53889  0.02837  0.18078  1.0000
  C   C33       1.0  0.45726  0.96911  0.18078  1.0000
  C   C34       1.0  0.45660  0.96837  0.27533  1.0000
  C   C35       1.0  0.41609  0.93671  0.31810  1.0000
  C   C36       1.0  0.37810  0.90588  0.26894  1.0000
  C   C37       1.0  0.37929  0.90831  0.17539  1.0000
  C   C38       1.0  0.41839  0.93989  0.13180  1.0000
  C   C39       1.0  0.57776  0.05758  0.13179  1.0000
  C   C40       1.0  0.61685  0.08917  0.17536  1.0000
  C   C41       1.0  0.61805  0.09160  0.26891  1.0000
  C   C42       1.0  0.58009  0.06070  0.31810  1.0000
  H   H17       1.0  0.51663  0.93415  0.27368  1.0000
  H   H18       1.0  0.47956  0.06333  0.27363  1.0000
  H   H19       1.0  0.35215  0.88637  0.13811  1.0000
  H   H20       1.0  0.41877  0.94019  0.06369  1.0000
  H   H21       1.0  0.57737  0.05729  0.06367  1.0000
  H   H22       1.0  0.64399  0.11111  0.13807  1.0000
  C   C43       1.0  0.49807  0.99874  0.12923  1.0000
  H   H23       1.0  0.50570  0.97758  0.08663  1.0000
  H   H24       1.0  0.49044  0.01990  0.08664  1.0000
  C   C44       1.0  0.65534  0.12728  0.31166  1.0000
  C   C45       1.0  0.34083  0.87017  0.31168  1.0000
  O   O5        1.0  0.56109  0.88001  0.29168  1.0000
  O   O6        1.0  0.43517  0.11755  0.29162  1.0000
  C   C46       1.0  0.20636  0.49592  0.31321  1.0000
  C   C47       1.0  0.23500  0.49516  0.24688  1.0000
  C   C48       1.0  0.27411  0.49431  0.26951  1.0000
  H   H25       1.0  0.29476  0.49510  0.21964  1.0000
  H   H26       1.0  0.22752  0.49539  0.18109  1.0000
  O   O7        1.0  0.25156  0.50020  0.00158  1.0000
  N   N1        1.0  0.16986  0.49858  0.28642  1.0000
  H   H27       1.0  0.17505  0.51997  0.23869  1.0000
  C   C49       1.0  0.50094  0.70985  0.31310  1.0000
  C   C50       1.0  0.50170  0.73927  0.24682  1.0000
  C   C51       1.0  0.50253  0.77922  0.26953  1.0000
  H   H28       1.0  0.50171  0.79908  0.21970  1.0000
  H   H29       1.0  0.50148  0.73159  0.18102  1.0000
  O   O8        1.0  0.49673  0.75067  0.00156  1.0000
  N   N2        1.0  0.49841  0.67075  0.28618  1.0000
  H   H30       1.0  0.47700  0.65453  0.23850  1.0000
  C   C52       1.0  0.28701  0.79046  0.31320  1.0000
  C   C53       1.0  0.25762  0.76179  0.24689  1.0000
  C   C54       1.0  0.21766  0.72268  0.26955  1.0000
  H   H31       1.0  0.19781  0.70201  0.21970  1.0000
  H   H32       1.0  0.26532  0.76926  0.18110  1.0000
  O   O9        1.0  0.24612  0.74536  0.00162  1.0000
  N   N3        1.0  0.32617  0.82698  0.28637  1.0000
  H   H33       1.0  0.34236  0.82179  0.23863  1.0000
  C   C55       1.0  0.78986  0.50158  0.31312  1.0000
  C   C56       1.0  0.76116  0.50230  0.24685  1.0000
  C   C57       1.0  0.72204  0.50312  0.26956  1.0000
  H   H34       1.0  0.70137  0.50230  0.21973  1.0000
  H   H35       1.0  0.76862  0.50207  0.18105  1.0000
  O   O10       1.0  0.74483  0.49737  0.00159  1.0000
  N   N4        1.0  0.82639  0.49899  0.28624  1.0000
  H   H36       1.0  0.82118  0.47759  0.23851  1.0000
  C   C58       1.0  0.49537  0.28767  0.31313  1.0000
  C   C59       1.0  0.49467  0.25830  0.24679  1.0000
  C   C60       1.0  0.49384  0.21835  0.26941  1.0000
  H   H37       1.0  0.49469  0.19852  0.21955  1.0000
  H   H38       1.0  0.49493  0.26603  0.18100  1.0000
  O   O11       1.0  0.49943  0.24664  0.00152  1.0000
  N   N5        1.0  0.49798  0.32681  0.28632  1.0000
  H   H39       1.0  0.51937  0.34305  0.23862  1.0000
  C   C61       1.0  0.70920  0.20700  0.31318  1.0000
  C   C62       1.0  0.73861  0.23565  0.24688  1.0000
  C   C63       1.0  0.77855  0.27477  0.26953  1.0000
  H   H40       1.0  0.79842  0.29542  0.21967  1.0000
  H   H41       1.0  0.73092  0.22816  0.18108  1.0000
  O   O12       1.0  0.75004  0.25220  0.00158  1.0000
  N   N6        1.0  0.67005  0.17048  0.28634  1.0000
  H   H42       1.0  0.65387  0.17569  0.23860  1.0000
  C   C64       1.0  0.96810  0.45711  0.38392  1.0000
  C   C65       1.0  0.96923  0.45771  0.47847  1.0000
  C   C66       1.0  0.02697  0.53975  0.47853  1.0000
  C   C67       1.0  0.02812  0.54040  0.38398  1.0000
  C   C68       1.0  0.05524  0.57883  0.52781  1.0000
  C   C69       1.0  0.08666  0.61808  0.48458  1.0000
  C   C70       1.0  0.08998  0.61916  0.39113  1.0000
  C   C71       1.0  0.05975  0.58105  0.34151  1.0000
  C   C72       1.0  0.93652  0.41646  0.34137  1.0000
  C   C73       1.0  0.90621  0.37835  0.39093  1.0000
  C   C74       1.0  0.90954  0.37939  0.48438  1.0000
  C   C75       1.0  0.94098  0.41860  0.52768  1.0000
  H   H43       1.0  0.88804  0.35215  0.52195  1.0000
  H   H44       1.0  0.94154  0.41898  0.59580  1.0000
  H   H45       1.0  0.05460  0.57844  0.59592  1.0000
  H   H46       1.0  0.10810  0.64532  0.52219  1.0000
  H   H47       1.0  0.06251  0.48031  0.38603  1.0000
  H   H48       1.0  0.93370  0.51720  0.38595  1.0000
  C   C76       1.0  0.99812  0.49876  0.32961  1.0000
  C   C77       1.0  0.99809  0.49872  0.53004  1.0000
  H   H49       1.0  0.97640  0.50561  0.57263  1.0000
  H   H50       1.0  0.01978  0.49182  0.57263  1.0000
  C   C78       1.0  0.12643  0.65639  0.34986  1.0000
  C   C79       1.0  0.86974  0.34120  0.34956  1.0000
  O   O13       1.0  0.11584  0.43693  0.37203  1.0000
  O   O14       1.0  0.88040  0.56052  0.37208  1.0000
  C   C80       1.0  0.53974  0.51035  0.38403  1.0000
  C   C81       1.0  0.53908  0.51082  0.47858  1.0000
  C   C82       1.0  0.45705  0.48656  0.47848  1.0000
  C   C83       1.0  0.45645  0.48708  0.38394  1.0000
  C   C84       1.0  0.41795  0.47575  0.52767  1.0000
  C   C85       1.0  0.37873  0.46794  0.48436  1.0000
  C   C86       1.0  0.37770  0.47023  0.39091  1.0000
  C   C87       1.0  0.41581  0.47804  0.34137  1.0000
  C   C88       1.0  0.58040  0.51938  0.34156  1.0000
  C   C89       1.0  0.61851  0.52727  0.39121  1.0000
  C   C90       1.0  0.61741  0.52948  0.48465  1.0000
  C   C91       1.0  0.57814  0.52160  0.52787  1.0000
  H   H51       1.0  0.64464  0.53527  0.52229  1.0000
  H   H52       1.0  0.57776  0.52186  0.59599  1.0000
  H   H53       1.0  0.41829  0.47545  0.59579  1.0000
  H   H54       1.0  0.35147  0.46215  0.52192  1.0000
  H   H55       1.0  0.51656  0.58158  0.38601  1.0000
  H   H56       1.0  0.47968  0.41586  0.38600  1.0000
  C   C92       1.0  0.49811  0.49872  0.32963  1.0000
  C   C93       1.0  0.49805  0.49867  0.53008  1.0000
  H   H57       1.0  0.49112  0.47006  0.57263  1.0000
  H   H58       1.0  0.50494  0.52725  0.57269  1.0000
  C   C94       1.0  0.34055  0.46955  0.34952  1.0000
  C   C95       1.0  0.65575  0.52805  0.35000  1.0000
  O   O15       1.0  0.55985  0.67819  0.37222  1.0000
  O   O16       1.0  0.43638  0.31921  0.37206  1.0000
  C   C96       1.0  0.48644  0.02874  0.38399  1.0000
  C   C97       1.0  0.48594  0.02761  0.47853  1.0000
  C   C98       1.0  0.51023  0.96988  0.47856  1.0000
  C   C99       1.0  0.50973  0.96873  0.38401  1.0000
  C   C100      1.0  0.52106  0.94161  0.52782  1.0000
  C   C101      1.0  0.52891  0.91021  0.48457  1.0000
  C   C102      1.0  0.52662  0.90686  0.39113  1.0000
  C   C103      1.0  0.51878  0.93712  0.34151  1.0000
  C   C104      1.0  0.47736  0.06032  0.34145  1.0000
  C   C105      1.0  0.46958  0.09063  0.39105  1.0000
  C   C106      1.0  0.46735  0.08734  0.48450  1.0000
  C   C107      1.0  0.47511  0.05588  0.52777  1.0000
  H   H59       1.0  0.46161  0.10883  0.52209  1.0000
  H   H60       1.0  0.47494  0.05532  0.59589  1.0000
  H   H61       1.0  0.52131  0.94224  0.59594  1.0000
  H   H62       1.0  0.53467  0.88874  0.52219  1.0000
  H   H63       1.0  0.41524  0.93431  0.38604  1.0000
  H   H64       1.0  0.58092  0.06316  0.38603  1.0000
  C   C108      1.0  0.49809  0.99873  0.32965  1.0000
  C   C109      1.0  0.49810  0.99875  0.53009  1.0000
  H   H65       1.0  0.52669  0.02045  0.57265  1.0000
  H   H66       1.0  0.46951  0.97707  0.57270  1.0000
  C   C110      1.0  0.52741  0.87042  0.34985  1.0000
  C   C111      1.0  0.46885  0.12710  0.34975  1.0000
  O   O17       1.0  0.31855  0.88098  0.37203  1.0000
  O   O18       1.0  0.67753  0.11646  0.37223  1.0000
  C   C112      1.0  0.28587  0.49439  0.35946  1.0000
  C   C113      1.0  0.25801  0.49616  0.42762  1.0000
  C   C114      1.0  0.21848  0.49726  0.40358  1.0000
  N   N7        1.0  0.19329  0.50085  0.46937  1.0000
  C   C115      1.0  0.20309  0.50218  0.55683  1.0000
  C   C116      1.0  0.24112  0.49960  0.58133  1.0000
  N   N8        1.0  0.26722  0.49671  0.51660  1.0000
  H   H67       1.0  0.18281  0.50458  0.60355  1.0000
  H   H68       1.0  0.29311  0.49464  0.53612  1.0000
  N   N9        1.0  0.32599  0.49746  0.37952  1.0000
  H   H69       1.0  0.34484  0.52077  0.42219  1.0000
  C   C117      1.0  0.50244  0.79085  0.35949  1.0000
  C   C118      1.0  0.50072  0.76123  0.42761  1.0000
  C   C119      1.0  0.49963  0.72060  0.40349  1.0000
  N   N10       1.0  0.49604  0.69181  0.46924  1.0000
  C   C120      1.0  0.49472  0.70025  0.55671  1.0000
  C   C121      1.0  0.49732  0.74086  0.58129  1.0000
  N   N11       1.0  0.50019  0.76987  0.51662  1.0000
  H   H70       1.0  0.49233  0.67756  0.60339  1.0000
  H   H71       1.0  0.50227  0.79782  0.53619  1.0000
  N   N12       1.0  0.49943  0.82792  0.37968  1.0000
  H   H72       1.0  0.47618  0.82348  0.42250  1.0000
  C   C122      1.0  0.20600  0.71096  0.35951  1.0000
  C   C123      1.0  0.23561  0.73884  0.42766  1.0000
  C   C124      1.0  0.27624  0.77836  0.40358  1.0000
  N   N13       1.0  0.30503  0.80357  0.46935  1.0000
  C   C125      1.0  0.29657  0.79379  0.55681  1.0000
  C   C126      1.0  0.25595  0.75578  0.58135  1.0000
  N   N14       1.0  0.22695  0.72966  0.51666  1.0000
  H   H73       1.0  0.31925  0.81409  0.60352  1.0000
  H   H74       1.0  0.19900  0.70378  0.53619  1.0000
  N   N15       1.0  0.16893  0.67086  0.37964  1.0000
  H   H75       1.0  0.17336  0.65203  0.42241  1.0000
  C   C127      1.0  0.71034  0.50306  0.35952  1.0000
  C   C128      1.0  0.73824  0.50135  0.42764  1.0000
  C   C129      1.0  0.77777  0.50025  0.40351  1.0000
  N   N16       1.0  0.80299  0.49667  0.46926  1.0000
  C   C130      1.0  0.79323  0.49536  0.55673  1.0000
  C   C131      1.0  0.75522  0.49795  0.58131  1.0000
  N   N17       1.0  0.72909  0.50082  0.51665  1.0000
  H   H76       1.0  0.81354  0.49297  0.60341  1.0000
  H   H77       1.0  0.70322  0.50291  0.53623  1.0000
  N   N18       1.0  0.67025  0.50004  0.37972  1.0000
  H   H78       1.0  0.65146  0.47681  0.42257  1.0000
  C   C132      1.0  0.49389  0.20667  0.35935  1.0000
  C   C133      1.0  0.49557  0.23623  0.42753  1.0000
  C   C134      1.0  0.49666  0.27687  0.40350  1.0000
  N   N19       1.0  0.50020  0.30562  0.46931  1.0000
  C   C135      1.0  0.50149  0.29713  0.55677  1.0000
  C   C136      1.0  0.49889  0.25651  0.58125  1.0000
  N   N20       1.0  0.49606  0.22755  0.51652  1.0000
  H   H79       1.0  0.50382  0.31977  0.60350  1.0000
  H   H80       1.0  0.49398  0.19959  0.53603  1.0000
  N   N21       1.0  0.49693  0.16960  0.37945  1.0000
  H   H81       1.0  0.52016  0.17401  0.42230  1.0000
  C   C137      1.0  0.79021  0.28652  0.35948  1.0000
  C   C138      1.0  0.76059  0.25866  0.42763  1.0000
  C   C139      1.0  0.71996  0.21912  0.40356  1.0000
  N   N22       1.0  0.69117  0.19393  0.46934  1.0000
  C   C140      1.0  0.69962  0.20374  0.55680  1.0000
  C   C141      1.0  0.74022  0.24177  0.58132  1.0000
  N   N23       1.0  0.76923  0.26787  0.51662  1.0000
  H   H82       1.0  0.67693  0.18345  0.60350  1.0000
  H   H83       1.0  0.79717  0.29376  0.53614  1.0000
  N   N24       1.0  0.82726  0.32664  0.37956  1.0000
  H   H84       1.0  0.82281  0.34550  0.42222  1.0000
