data_image0
_chemical_formula_structural       C6H6N2C8H5CN2HNC8H5CN2HNC8H5CN2HNC5NH3CHC5NH3CHC5NH3CHC2NC3H3CHC2NC3H3CHC2NC3H3CHC12H5CNC2NHN2C10H6CNCN2C10H6CNCN2C10H6CNCN2C2NC3H3CHC2NC3H3CHC2NC3H3CHC5NH3CHC5NH3CHC5NH3CH
_chemical_formula_sum              "C156 H96 N36"
_cell_length_a       67.5112
_cell_length_b       67.5212
_cell_length_c       14.9984
_cell_angle_alpha    90
_cell_angle_beta     90
_cell_angle_gamma    119.981

_space_group_name_H-M_alt    "P 1"
_space_group_IT_number       1

loop_
  _space_group_symop_operation_xyz
  'x, y, z'

loop_
  _atom_site_type_symbol
  _atom_site_label
  _atom_site_symmetry_multiplicity
  _atom_site_fract_x
  _atom_site_fract_y
  _atom_site_fract_z
  _atom_site_occupancy
  C   C1        1.0  0.96833  0.01913  0.33548  1.0000
  C   C2        1.0  0.93641  0.91153  0.32176  1.0000
  C   C3        1.0  0.94766  0.93556  0.32214  1.0000
  C   C4        1.0  0.94434  0.00694  0.34913  1.0000
  C   C5        1.0  0.93154  0.01821  0.34985  1.0000
  C   C6        1.0  0.94227  0.04194  0.33478  1.0000
  H   H1        1.0  0.91907  0.90249  0.31313  1.0000
  H   H2        1.0  0.93801  0.94319  0.31233  1.0000
  H   H3        1.0  0.93584  0.98967  0.36003  1.0000
  H   H4        1.0  0.91428  0.00891  0.36071  1.0000
  H   H5        1.0  0.08829  0.01626  0.31299  1.0000
  H   H6        1.0  0.04759  0.99449  0.31222  1.0000
  N   N1        1.0  0.97106  0.98457  0.33557  1.0000
  N   N2        1.0  0.92968  0.05200  0.33850  1.0000
  C   C7        1.0  0.45501  0.26406  0.33424  1.0000
  C   C8        1.0  0.36978  0.20484  0.32233  1.0000
  C   C9        1.0  0.34573  0.19323  0.32015  1.0000
  C   C10       1.0  0.49001  0.19198  0.33321  1.0000
  C   C11       1.0  0.47764  0.20362  0.33160  1.0000
  C   C12       1.0  0.47883  0.27555  0.31661  1.0000
  C   C13       1.0  0.49185  0.29954  0.31500  1.0000
  C   C14       1.0  0.48161  0.31289  0.33259  1.0000
  H   H7        1.0  0.33756  0.20228  0.30788  1.0000
  H   H8        1.0  0.48665  0.22095  0.32272  1.0000
  H   H9        1.0  0.50742  0.20112  0.32639  1.0000
  H   H10       1.0  0.48706  0.26660  0.30371  1.0000
  H   H11       1.0  0.50900  0.30720  0.30174  1.0000
  C   C15       1.0  0.44201  0.23972  0.33626  1.0000
  N   N3        1.0  0.45261  0.22713  0.33794  1.0000
  N   N4        1.0  0.41877  0.22801  0.33677  1.0000
  H   H12       1.0  0.37833  0.22208  0.31088  1.0000
  N   N5        1.0  0.49517  0.33538  0.32943  1.0000
  C   C16       1.0  0.72685  0.19086  0.33418  1.0000
  C   C17       1.0  0.78610  0.16487  0.32231  1.0000
  C   C18       1.0  0.79772  0.15243  0.32013  1.0000
  C   C19       1.0  0.79887  0.29789  0.33349  1.0000
  C   C20       1.0  0.78726  0.27390  0.33185  1.0000
  C   C21       1.0  0.71535  0.20318  0.31645  1.0000
  C   C22       1.0  0.69136  0.19222  0.31482  1.0000
  C   C23       1.0  0.67801  0.16864  0.33247  1.0000
  H   H13       1.0  0.78867  0.13522  0.30784  1.0000
  H   H14       1.0  0.76991  0.26557  0.32304  1.0000
  H   H15       1.0  0.78973  0.30616  0.32673  1.0000
  H   H16       1.0  0.72430  0.22035  0.30351  1.0000
  H   H17       1.0  0.68370  0.20171  0.30150  1.0000
  C   C24       1.0  0.75120  0.20221  0.33625  1.0000
  N   N6        1.0  0.76378  0.22538  0.33798  1.0000
  N   N7        1.0  0.76291  0.19068  0.33676  1.0000
  H   H18       1.0  0.76886  0.15618  0.31085  1.0000
  N   N8        1.0  0.65552  0.15972  0.32935  1.0000
  C   C25       1.0  0.79997  0.53579  0.33408  1.0000
  C   C26       1.0  0.82591  0.62099  0.32245  1.0000
  C   C27       1.0  0.83835  0.64504  0.32030  1.0000
  C   C28       1.0  0.69290  0.50079  0.33310  1.0000
  C   C29       1.0  0.71689  0.51316  0.33150  1.0000
  C   C30       1.0  0.78767  0.51199  0.31623  1.0000
  C   C31       1.0  0.79866  0.49898  0.31441  1.0000
  C   C32       1.0  0.82225  0.50923  0.33198  1.0000
  H   H19       1.0  0.85556  0.65321  0.30800  1.0000
  H   H20       1.0  0.72523  0.50416  0.32251  1.0000
  H   H21       1.0  0.68463  0.48338  0.32615  1.0000
  H   H22       1.0  0.77049  0.50376  0.30335  1.0000
  H   H23       1.0  0.78919  0.48184  0.30097  1.0000
  C   C33       1.0  0.78860  0.54878  0.33624  1.0000
  N   N9        1.0  0.76542  0.53819  0.33794  1.0000
  N   N10       1.0  0.80012  0.57202  0.33680  1.0000
  H   H24       1.0  0.83461  0.61245  0.31093  1.0000
  N   N11       1.0  0.83122  0.49570  0.32852  1.0000
  C   C34       1.0  0.26282  0.13179  0.27790  1.0000
  C   C35       1.0  0.23905  0.12118  0.26452  1.0000
  C   C36       1.0  0.19974  0.10075  0.32920  1.0000
  C   C37       1.0  0.15173  0.07454  0.30328  1.0000
  C   C38       1.0  0.16733  0.08150  0.23147  1.0000
  N   N12       1.0  0.19015  0.09395  0.24695  1.0000
  H   H25       1.0  0.16183  0.07699  0.16723  1.0000
  H   H26       1.0  0.27334  0.13727  0.22337  1.0000
  H   H27       1.0  0.23297  0.11947  0.20086  1.0000
  C   C39       1.0  0.12853  0.06041  0.28841  1.0000
  H   H28       1.0  0.12356  0.04957  0.23722  1.0000
  C   C40       1.0  0.85916  0.13093  0.27786  1.0000
  C   C41       1.0  0.86972  0.11772  0.26450  1.0000
  C   C42       1.0  0.89011  0.09879  0.32921  1.0000
  C   C43       1.0  0.91626  0.07692  0.30332  1.0000
  C   C44       1.0  0.90932  0.08558  0.23150  1.0000
  N   N13       1.0  0.89689  0.09597  0.24695  1.0000
  H   H29       1.0  0.91382  0.08456  0.16726  1.0000
  H   H30       1.0  0.85367  0.13597  0.22333  1.0000
  H   H31       1.0  0.87142  0.11334  0.20084  1.0000
  C   C45       1.0  0.93036  0.06779  0.28846  1.0000
  H   H32       1.0  0.94120  0.07364  0.23727  1.0000
  C   C46       1.0  0.85981  0.72795  0.27798  1.0000
  C   C47       1.0  0.87301  0.75171  0.26456  1.0000
  C   C48       1.0  0.89192  0.79102  0.32920  1.0000
  C   C49       1.0  0.91381  0.83902  0.30323  1.0000
  C   C50       1.0  0.90514  0.82342  0.23144  1.0000
  N   N14       1.0  0.89474  0.80061  0.24693  1.0000
  H   H33       1.0  0.90616  0.82893  0.16718  1.0000
  H   H34       1.0  0.85478  0.71742  0.22346  1.0000
  H   H35       1.0  0.87740  0.75778  0.20090  1.0000
  C   C51       1.0  0.92295  0.86224  0.28831  1.0000
  H   H36       1.0  0.91711  0.86723  0.23709  1.0000
  C   C52       1.0  0.51772  0.14755  0.30005  1.0000
  C   C53       1.0  0.55396  0.13797  0.32147  1.0000
  N   N15       1.0  0.54681  0.14081  0.24006  1.0000
  C   C54       1.0  0.52939  0.14499  0.22663  1.0000
  C   C55       1.0  0.58731  0.13752  0.25237  1.0000
  C   C56       1.0  0.60853  0.13865  0.26344  1.0000
  H   H37       1.0  0.58222  0.13868  0.18929  1.0000
  H   H38       1.0  0.61822  0.14050  0.20818  1.0000
  H   H39       1.0  0.52597  0.14765  0.16270  1.0000
  C   C57       1.0  0.50299  0.15609  0.28652  1.0000
  H   H40       1.0  0.50357  0.16335  0.22788  1.0000
  C   C58       1.0  0.84325  0.37001  0.30014  1.0000
  C   C59       1.0  0.85286  0.41583  0.32146  1.0000
  N   N16       1.0  0.85008  0.40585  0.24005  1.0000
  C   C60       1.0  0.84589  0.38425  0.22668  1.0000
  C   C61       1.0  0.85342  0.44966  0.25221  1.0000
  C   C62       1.0  0.85232  0.46977  0.26317  1.0000
  H   H41       1.0  0.85233  0.44343  0.18915  1.0000
  H   H42       1.0  0.85055  0.47764  0.20784  1.0000
  H   H43       1.0  0.84328  0.37818  0.16274  1.0000
  C   C63       1.0  0.83473  0.34675  0.28666  1.0000
  H   H44       1.0  0.82746  0.34007  0.22805  1.0000
  C   C64       1.0  0.62074  0.47307  0.30009  1.0000
  C   C65       1.0  0.57490  0.43694  0.32147  1.0000
  N   N17       1.0  0.58490  0.44407  0.24007  1.0000
  C   C66       1.0  0.60650  0.46147  0.22664  1.0000
  C   C67       1.0  0.54114  0.40358  0.25235  1.0000
  C   C68       1.0  0.52106  0.38236  0.26342  1.0000
  H   H45       1.0  0.54739  0.40866  0.18928  1.0000
  H   H46       1.0  0.51323  0.37266  0.20818  1.0000
  H   H47       1.0  0.61260  0.46482  0.16273  1.0000
  C   C69       1.0  0.64401  0.48774  0.28666  1.0000
  H   H48       1.0  0.65070  0.48716  0.22804  1.0000
  C   C70       1.0  0.97161  0.94885  0.33538  1.0000
  C   C71       1.0  0.04188  0.02239  0.33546  1.0000
  C   C72       1.0  0.98381  0.93704  0.34905  1.0000
  C   C73       1.0  0.97254  0.91299  0.34974  1.0000
  C   C74       1.0  0.94880  0.89999  0.33459  1.0000
  C   C75       1.0  0.96619  0.05433  0.32192  1.0000
  C   C76       1.0  0.97898  0.04308  0.32229  1.0000
  C   C77       1.0  0.05367  0.04638  0.34922  1.0000
  C   C78       1.0  0.07772  0.05918  0.34992  1.0000
  C   C79       1.0  0.09075  0.04847  0.33464  1.0000
  C   C80       1.0  0.07924  0.02456  0.32172  1.0000
  C   C81       1.0  0.05520  0.01176  0.32211  1.0000
  H   H49       1.0  0.98184  0.90502  0.36065  1.0000
  H   H50       1.0  0.99626  0.05273  0.31249  1.0000
  H   H51       1.0  0.97450  0.07168  0.31335  1.0000
  H   H52       1.0  0.04489  0.05486  0.36032  1.0000
  H   H53       1.0  0.08568  0.07644  0.36091  1.0000
  C   C82       1.0  0.01752  0.00938  0.33561  1.0000
  N   N18       1.0  0.00460  0.01967  0.33561  1.0000
  C   C83       1.0  0.98135  0.00777  0.33562  1.0000
  C   C84       1.0  0.98297  0.97322  0.33557  1.0000
  N   N19       1.0  0.00617  0.98612  0.33556  1.0000
  H   H54       1.0  0.00107  0.94581  0.36003  1.0000
  N   N20       1.0  0.11339  0.06107  0.33839  1.0000
  N   N21       1.0  0.93874  0.87735  0.33836  1.0000
  C   C85       1.0  0.45353  0.19180  0.34182  1.0000
  C   C86       1.0  0.38189  0.19303  0.33810  1.0000
  C   C87       1.0  0.33299  0.16951  0.33571  1.0000
  C   C88       1.0  0.34481  0.15748  0.35068  1.0000
  C   C89       1.0  0.36886  0.16907  0.35180  1.0000
  C   C90       1.0  0.44235  0.16777  0.35424  1.0000
  C   C91       1.0  0.45476  0.15607  0.35667  1.0000
  C   C92       1.0  0.47866  0.16806  0.34466  1.0000
  C   C93       1.0  0.45787  0.30171  0.34970  1.0000
  C   C94       1.0  0.44478  0.27765  0.35013  1.0000
  H   H55       1.0  0.33599  0.14015  0.35977  1.0000
  H   H56       1.0  0.37672  0.15969  0.36302  1.0000
  H   H57       1.0  0.42501  0.15849  0.36283  1.0000
  H   H58       1.0  0.44627  0.13876  0.36653  1.0000
  H   H59       1.0  0.44991  0.31097  0.36120  1.0000
  H   H60       1.0  0.42765  0.27018  0.36325  1.0000
  C   C95       1.0  0.44125  0.20392  0.34032  1.0000
  N   N22       1.0  0.41801  0.19318  0.34078  1.0000
  C   C96       1.0  0.40628  0.20475  0.33888  1.0000
  N   N23       1.0  0.49073  0.15748  0.34927  1.0000
  N   N24       1.0  0.31034  0.15923  0.33106  1.0000
  C   C97       1.0  0.79910  0.26162  0.34194  1.0000
  C   C98       1.0  0.79791  0.18878  0.33811  1.0000
  C   C99       1.0  0.82145  0.16340  0.33570  1.0000
  C   C100      1.0  0.83347  0.18724  0.35071  1.0000
  C   C101      1.0  0.82187  0.19970  0.35184  1.0000
  C   C102      1.0  0.82313  0.27448  0.35426  1.0000
  C   C103      1.0  0.83481  0.29857  0.35673  1.0000
  C   C104      1.0  0.82280  0.31047  0.34482  1.0000
  C   C105      1.0  0.68920  0.15609  0.34970  1.0000
  C   C106      1.0  0.71327  0.16705  0.35013  1.0000
  H   H61       1.0  0.85080  0.19575  0.35982  1.0000
  H   H62       1.0  0.83125  0.21693  0.36309  1.0000
  H   H63       1.0  0.83242  0.26642  0.36276  1.0000
  H   H64       1.0  0.85213  0.30740  0.36649  1.0000
  H   H65       1.0  0.67994  0.13888  0.36127  1.0000
  H   H66       1.0  0.72074  0.15741  0.36337  1.0000
  C   C107      1.0  0.78699  0.23723  0.34040  1.0000
  N   N25       1.0  0.79774  0.22474  0.34086  1.0000
  C   C108      1.0  0.78618  0.20144  0.33890  1.0000
  N   N26       1.0  0.83337  0.33311  0.34942  1.0000
  N   N27       1.0  0.83173  0.15103  0.33107  1.0000
  C   C109      1.0  0.72917  0.53726  0.34189  1.0000
  C   C110      1.0  0.80200  0.60889  0.33824  1.0000
  C   C111      1.0  0.82737  0.65779  0.33595  1.0000
  C   C112      1.0  0.80352  0.64597  0.35093  1.0000
  C   C113      1.0  0.79107  0.62193  0.35202  1.0000
  C   C114      1.0  0.71630  0.54843  0.35445  1.0000
  C   C115      1.0  0.69220  0.53602  0.35690  1.0000
  C   C116      1.0  0.68031  0.51213  0.34469  1.0000
  C   C117      1.0  0.83478  0.53295  0.34936  1.0000
  C   C118      1.0  0.82378  0.54603  0.34996  1.0000
  H   H67       1.0  0.79501  0.65480  0.36005  1.0000
  H   H68       1.0  0.77384  0.61408  0.36325  1.0000
  H   H69       1.0  0.72435  0.56576  0.36321  1.0000
  H   H70       1.0  0.68337  0.54450  0.36687  1.0000
  H   H71       1.0  0.85200  0.54091  0.36081  1.0000
  H   H72       1.0  0.83342  0.56314  0.36325  1.0000
  C   C119      1.0  0.75356  0.54955  0.34040  1.0000
  N   N28       1.0  0.76604  0.57278  0.34092  1.0000
  C   C120      1.0  0.78934  0.58451  0.33899  1.0000
  N   N29       1.0  0.65766  0.50006  0.34932  1.0000
  N   N30       1.0  0.83974  0.68044  0.33129  1.0000
  C   C121      1.0  0.27196  0.13411  0.36464  1.0000
  C   C122      1.0  0.22400  0.11275  0.33834  1.0000
  N   N31       1.0  0.23354  0.11548  0.42069  1.0000
  C   C123      1.0  0.25633  0.12563  0.43634  1.0000
  C   C124      1.0  0.18474  0.09434  0.40310  1.0000
  C   C125      1.0  0.16095  0.08136  0.38992  1.0000
  H   H73       1.0  0.19085  0.09869  0.46673  1.0000
  H   H74       1.0  0.15047  0.07642  0.44456  1.0000
  H   H75       1.0  0.26178  0.12662  0.50066  1.0000
  C   C126      1.0  0.29515  0.14315  0.37990  1.0000
  H   H76       1.0  0.30006  0.13721  0.43105  1.0000
  C   C127      1.0  0.85684  0.13775  0.36460  1.0000
  C   C128      1.0  0.87813  0.11108  0.33833  1.0000
  N   N32       1.0  0.87542  0.11790  0.42066  1.0000
  C   C129      1.0  0.86530  0.13057  0.43631  1.0000
  C   C130      1.0  0.89649  0.09017  0.40312  1.0000
  C   C131      1.0  0.90945  0.07933  0.38995  1.0000
  H   H77       1.0  0.89214  0.09195  0.46674  1.0000
  H   H78       1.0  0.91436  0.07377  0.44460  1.0000
  H   H79       1.0  0.86432  0.13505  0.50062  1.0000
  C   C132      1.0  0.84782  0.15192  0.37985  1.0000
  H   H80       1.0  0.85378  0.16278  0.43095  1.0000
  C   C133      1.0  0.85300  0.71882  0.36473  1.0000
  C   C134      1.0  0.87964  0.76677  0.33837  1.0000
  N   N33       1.0  0.87282  0.75724  0.42071  1.0000
  C   C135      1.0  0.86016  0.73446  0.43640  1.0000
  C   C136      1.0  0.90055  0.80602  0.40309  1.0000
  C   C137      1.0  0.91139  0.82981  0.38988  1.0000
  H   H81       1.0  0.89880  0.79991  0.46671  1.0000
  H   H82       1.0  0.91699  0.84030  0.44450  1.0000
  H   H83       1.0  0.85568  0.72901  0.50072  1.0000
  C   C138      1.0  0.83884  0.69564  0.38003  1.0000
  H   H84       1.0  0.82797  0.69075  0.43110  1.0000
  C   C139      1.0  0.52418  0.14409  0.38595  1.0000
  C   C140      1.0  0.54202  0.13921  0.39689  1.0000
  C   C141      1.0  0.57413  0.13624  0.32793  1.0000
  C   C142      1.0  0.61676  0.13819  0.34956  1.0000
  C   C143      1.0  0.60270  0.13589  0.42297  1.0000
  N   N34       1.0  0.58259  0.13542  0.40953  1.0000
  H   H85       1.0  0.60791  0.13585  0.48695  1.0000
  H   H86       1.0  0.51677  0.14624  0.44186  1.0000
  H   H87       1.0  0.54688  0.13781  0.46009  1.0000
  C   C144      1.0  0.63852  0.14168  0.36236  1.0000
  H   H88       1.0  0.64095  0.13140  0.40268  1.0000
  C   C145      1.0  0.84668  0.37992  0.38604  1.0000
  C   C146      1.0  0.85156  0.40263  0.39692  1.0000
  C   C147      1.0  0.85460  0.43772  0.32786  1.0000
  C   C148      1.0  0.85269  0.47843  0.34925  1.0000
  C   C149      1.0  0.85488  0.46663  0.42276  1.0000
  N   N35       1.0  0.85533  0.44697  0.40943  1.0000
  H   H89       1.0  0.85484  0.47186  0.48672  1.0000
  H   H90       1.0  0.84445  0.37034  0.44199  1.0000
  H   H91       1.0  0.85289  0.40887  0.46012  1.0000
  C   C150      1.0  0.84923  0.49673  0.36187  1.0000
  H   H92       1.0  0.85929  0.50926  0.40328  1.0000
  C   C151      1.0  0.61081  0.46667  0.38599  1.0000
  C   C152      1.0  0.58808  0.44887  0.39690  1.0000
  C   C153      1.0  0.55302  0.41676  0.32792  1.0000
  C   C154      1.0  0.51237  0.37413  0.34955  1.0000
  C   C155      1.0  0.52411  0.38821  0.42295  1.0000
  N   N36       1.0  0.54374  0.40832  0.40952  1.0000
  H   H93       1.0  0.51884  0.38301  0.48693  1.0000
  H   H94       1.0  0.62038  0.47402  0.44192  1.0000
  H   H95       1.0  0.58183  0.44399  0.46010  1.0000
  C   C156      1.0  0.49411  0.35238  0.36238  1.0000
  H   H96       1.0  0.48140  0.34995  0.40268  1.0000
