data_image0
_chemical_formula_structural       CH4CH4NC2HNHNC2HNHNC2HNHC29H17C3O3C29H17C3O3CNC2O2HNHCNC2O2HNHCNC2O2HNH
_chemical_formula_sum              "C81 H54 N12 O12"
_cell_length_a       44.9071
_cell_length_b       44.9071
_cell_length_c       14.9962
_cell_angle_alpha    90
_cell_angle_beta     90
_cell_angle_gamma    120

_space_group_name_H-M_alt    "P 1"
_space_group_IT_number       1

loop_
  _space_group_symop_operation_xyz
  'x, y, z'

loop_
  _atom_site_type_symbol
  _atom_site_label
  _atom_site_symmetry_multiplicity
  _atom_site_fract_x
  _atom_site_fract_y
  _atom_site_fract_z
  _atom_site_occupancy
  C   C1        1.0  0.40784  0.85472  0.32183  1.0000
  H   H1        1.0  0.39670  0.86979  0.32059  1.0000
  H   H2        1.0  0.36087  0.80938  0.29905  1.0000
  H   H3        1.0  0.47335  0.60363  0.32062  1.0000
  H   H4        1.0  0.13052  0.52696  0.32072  1.0000
  C   C2        1.0  0.59102  0.14541  0.34288  1.0000
  H   H5        1.0  0.60183  0.13007  0.34036  1.0000
  H   H6        1.0  0.63895  0.19054  0.35609  1.0000
  H   H7        1.0  0.52848  0.39848  0.34018  1.0000
  H   H8        1.0  0.87025  0.47184  0.34029  1.0000
  N   N1        1.0  0.52152  0.49925  0.27743  1.0000
  C   C3        1.0  0.50633  0.51820  0.26023  1.0000
  C   C4        1.0  0.48465  0.52018  0.32510  1.0000
  H   H9        1.0  0.51025  0.53015  0.19989  1.0000
  N   N2        1.0  0.46884  0.53923  0.31129  1.0000
  H   H10       1.0  0.47766  0.55576  0.26241  1.0000
  N   N3        1.0  0.50106  0.02233  0.27746  1.0000
  C   C5        1.0  0.48212  0.98819  0.26025  1.0000
  C   C6        1.0  0.48014  0.96453  0.32512  1.0000
  H   H11       1.0  0.47015  0.98016  0.19993  1.0000
  N   N4        1.0  0.46109  0.92967  0.31130  1.0000
  H   H12       1.0  0.44457  0.92197  0.26241  1.0000
  N   N5        1.0  0.97799  0.47880  0.27746  1.0000
  C   C7        1.0  0.01213  0.49401  0.26024  1.0000
  C   C8        1.0  0.03579  0.51568  0.32513  1.0000
  H   H13       1.0  0.02017  0.49004  0.19997  1.0000
  N   N6        1.0  0.07064  0.53149  0.31134  1.0000
  H   H14       1.0  0.07835  0.52266  0.26247  1.0000
  C   C9        1.0  0.44341  0.86929  0.33925  1.0000
  C   C10       1.0  0.45708  0.84695  0.34352  1.0000
  C   C11       1.0  0.43599  0.81133  0.33061  1.0000
  C   C12       1.0  0.40032  0.79679  0.31497  1.0000
  C   C13       1.0  0.38662  0.81904  0.30973  1.0000
  C   C14       1.0  0.37876  0.76156  0.30473  1.0000
  C   C15       1.0  0.37829  0.73809  0.36134  1.0000
  C   C16       1.0  0.35605  0.70298  0.35348  1.0000
  C   C17       1.0  0.32000  0.68907  0.35415  1.0000
  C   C18       1.0  0.29735  0.65314  0.35360  1.0000
  C   C19       1.0  0.31125  0.63099  0.35420  1.0000
  C   C20       1.0  0.34718  0.64427  0.35359  1.0000
  C   C21       1.0  0.36933  0.68032  0.35410  1.0000
  C   C22       1.0  0.36006  0.62203  0.36143  1.0000
  C   C23       1.0  0.38306  0.62157  0.30479  1.0000
  C   C24       1.0  0.39673  0.60000  0.31502  1.0000
  C   C25       1.0  0.43268  0.61371  0.30981  1.0000
  C   C26       1.0  0.37560  0.56434  0.33065  1.0000
  C   C27       1.0  0.39013  0.54324  0.34358  1.0000
  C   C28       1.0  0.42614  0.55691  0.33927  1.0000
  C   C29       1.0  0.44714  0.59249  0.32178  1.0000
  C   C30       1.0  0.26223  0.64026  0.36146  1.0000
  C   C31       1.0  0.23876  0.61724  0.30487  1.0000
  C   C32       1.0  0.20353  0.60358  0.31509  1.0000
  C   C33       1.0  0.18899  0.62471  0.33070  1.0000
  C   C34       1.0  0.18128  0.56763  0.30993  1.0000
  C   C35       1.0  0.14560  0.55317  0.32193  1.0000
  C   C36       1.0  0.13102  0.57418  0.33933  1.0000
  C   C37       1.0  0.15337  0.61018  0.34360  1.0000
  H   H15       1.0  0.48272  0.85645  0.35528  1.0000
  H   H16       1.0  0.44690  0.79607  0.33359  1.0000
  H   H17       1.0  0.39542  0.69017  0.35725  1.0000
  H   H18       1.0  0.31015  0.70531  0.35727  1.0000
  H   H19       1.0  0.29501  0.60490  0.35736  1.0000
  H   H20       1.0  0.20425  0.65089  0.33365  1.0000
  H   H21       1.0  0.44877  0.63945  0.29907  1.0000
  H   H22       1.0  0.37399  0.51760  0.35531  1.0000
  H   H23       1.0  0.34942  0.55342  0.33363  1.0000
  H   H24       1.0  0.14388  0.62633  0.35532  1.0000
  H   H25       1.0  0.19093  0.55154  0.29919  1.0000
  H   H26       1.0  0.39196  0.63838  0.25474  1.0000
  H   H27       1.0  0.35147  0.60558  0.41228  1.0000
  H   H28       1.0  0.36192  0.75365  0.25471  1.0000
  H   H29       1.0  0.39475  0.74594  0.41218  1.0000
  H   H30       1.0  0.24667  0.60833  0.25482  1.0000
  H   H31       1.0  0.25438  0.64887  0.41230  1.0000
  C   C38       1.0  0.09515  0.55966  0.35576  1.0000
  C   C39       1.0  0.44067  0.53557  0.35572  1.0000
  C   C40       1.0  0.46477  0.90517  0.35569  1.0000
  O   O1        1.0  0.42399  0.50943  0.41449  1.0000
  O   O2        1.0  0.49088  0.91462  0.41457  1.0000
  O   O3        1.0  0.08569  0.57633  0.41456  1.0000
  C   C41       1.0  0.55500  0.13109  0.33454  1.0000
  C   C42       1.0  0.54176  0.15384  0.33488  1.0000
  C   C43       1.0  0.56365  0.18954  0.34405  1.0000
  C   C44       1.0  0.59963  0.20371  0.35134  1.0000
  C   C45       1.0  0.61299  0.18113  0.35143  1.0000
  C   C46       1.0  0.62179  0.23889  0.35928  1.0000
  C   C47       1.0  0.62157  0.26216  0.30318  1.0000
  C   C48       1.0  0.64411  0.29730  0.30934  1.0000
  C   C49       1.0  0.68013  0.31099  0.30868  1.0000
  C   C50       1.0  0.70301  0.34688  0.30930  1.0000
  C   C51       1.0  0.68933  0.36921  0.30869  1.0000
  C   C52       1.0  0.65344  0.35620  0.30931  1.0000
  C   C53       1.0  0.63110  0.32018  0.30871  1.0000
  C   C54       1.0  0.64083  0.37874  0.30314  1.0000
  C   C55       1.0  0.61735  0.37852  0.35924  1.0000
  C   C56       1.0  0.60432  0.40068  0.35131  1.0000
  C   C57       1.0  0.56838  0.38732  0.35132  1.0000
  C   C58       1.0  0.62613  0.43666  0.34406  1.0000
  C   C59       1.0  0.61233  0.45855  0.33488  1.0000
  C   C60       1.0  0.57634  0.44531  0.33447  1.0000
  C   C61       1.0  0.55463  0.40929  0.34278  1.0000
  C   C62       1.0  0.73815  0.35948  0.30313  1.0000
  C   C63       1.0  0.76142  0.38296  0.35923  1.0000
  C   C64       1.0  0.79661  0.39600  0.35127  1.0000
  C   C65       1.0  0.81078  0.37418  0.34396  1.0000
  C   C66       1.0  0.81918  0.43193  0.35131  1.0000
  C   C67       1.0  0.85491  0.44568  0.34278  1.0000
  C   C68       1.0  0.86922  0.42398  0.33445  1.0000
  C   C69       1.0  0.84648  0.38799  0.33481  1.0000
  H   H32       1.0  0.51587  0.14460  0.32981  1.0000
  H   H33       1.0  0.55305  0.20511  0.34502  1.0000
  H   H34       1.0  0.60503  0.31050  0.30610  1.0000
  H   H35       1.0  0.68981  0.29460  0.30609  1.0000
  H   H36       1.0  0.70572  0.39528  0.30606  1.0000
  H   H37       1.0  0.79521  0.34801  0.34494  1.0000
  H   H38       1.0  0.55183  0.36136  0.35595  1.0000
  H   H39       1.0  0.62898  0.48445  0.32983  1.0000
  H   H40       1.0  0.65230  0.44726  0.34508  1.0000
  H   H41       1.0  0.85572  0.37134  0.32970  1.0000
  H   H42       1.0  0.80978  0.44848  0.35605  1.0000
  H   H43       1.0  0.60774  0.36092  0.40740  1.0000
  H   H44       1.0  0.65022  0.39616  0.25451  1.0000
  H   H45       1.0  0.63939  0.24689  0.40745  1.0000
  H   H46       1.0  0.60416  0.25413  0.25453  1.0000
  H   H47       1.0  0.75343  0.39257  0.40740  1.0000
  H   H48       1.0  0.74618  0.35010  0.25447  1.0000
  C   C70       1.0  0.90530  0.43771  0.32325  1.0000
  C   C71       1.0  0.56261  0.46766  0.32327  1.0000
  C   C72       1.0  0.53265  0.09502  0.32336  1.0000
  O   O4        1.0  0.58132  0.49659  0.27451  1.0000
  O   O5        1.0  0.50375  0.08479  0.27446  1.0000
  O   O6        1.0  0.91553  0.41902  0.27440  1.0000
  C   C73       1.0  0.51804  0.48220  0.35535  1.0000
  N   N7        1.0  0.48134  0.50331  0.40306  1.0000
  C   C74       1.0  0.49657  0.48436  0.42163  1.0000
  C   C75       1.0  0.49164  0.46954  0.50549  1.0000
  O   O7        1.0  0.46320  0.45738  0.53968  1.0000
  O   O8        1.0  0.51553  0.47946  0.55964  1.0000
  H   H49       1.0  0.53768  0.49154  0.54611  1.0000
  N   N8        1.0  0.53331  0.46237  0.36474  1.0000
  H   H50       1.0  0.52273  0.44344  0.40713  1.0000
  C   C76       1.0  0.51812  0.03590  0.35536  1.0000
  N   N9        1.0  0.49701  0.97809  0.40308  1.0000
  C   C77       1.0  0.51597  0.01227  0.42162  1.0000
  C   C78       1.0  0.53080  0.02216  0.50554  1.0000
  O   O9        1.0  0.54337  0.00611  0.53880  1.0000
  O   O10       1.0  0.52068  0.03596  0.55964  1.0000
  H   H51       1.0  0.50844  0.04587  0.54613  1.0000
  N   N10       1.0  0.53794  0.07100  0.36481  1.0000
  H   H52       1.0  0.55685  0.07935  0.40725  1.0000
  C   C79       1.0  0.96441  0.48229  0.35534  1.0000
  N   N11       1.0  0.02222  0.51900  0.40307  1.0000
  C   C80       1.0  0.98804  0.50378  0.42160  1.0000
  C   C81       1.0  0.97814  0.50872  0.50551  1.0000
  O   O11       1.0  0.99418  0.53735  0.53875  1.0000
  O   O12       1.0  0.96435  0.48480  0.55963  1.0000
  H   H53       1.0  0.95446  0.46265  0.54613  1.0000
  N   N12       1.0  0.92931  0.46699  0.36480  1.0000
  H   H54       1.0  0.92096  0.47756  0.40720  1.0000
