data_image0
_chemical_formula_structural       CHCN2CHNCHNC24H15C24H15C2NCOCH3C2NCOCH3C2OCH3
_chemical_formula_sum              "C63 H42 N6 O3"
_cell_length_a       29.9218
_cell_length_b       29.9217
_cell_length_c       14.8933
_cell_angle_alpha    90
_cell_angle_beta     90
_cell_angle_gamma    120

_space_group_name_H-M_alt    "P 1"
_space_group_IT_number       1

loop_
  _space_group_symop_operation_xyz
  'x, y, z'

loop_
  _atom_site_type_symbol
  _atom_site_label
  _atom_site_symmetry_multiplicity
  _atom_site_fract_x
  _atom_site_fract_y
  _atom_site_fract_z
  _atom_site_occupancy
  C   C1        1.0  0.02909  0.51543  0.26142  1.0000
  H   H1        1.0  0.04575  0.52376  0.19922  1.0000
  C   C2        1.0  0.05898  0.53039  0.34025  1.0000
  N   N1        1.0  0.03368  0.51774  0.42002  1.0000
  N   N2        1.0  0.51958  0.48938  0.26914  1.0000
  C   C3        1.0  0.49352  0.51545  0.26141  1.0000
  H   H2        1.0  0.48519  0.52378  0.19922  1.0000
  N   N3        1.0  0.51959  0.03201  0.26916  1.0000
  C   C4        1.0  0.49352  0.97987  0.26143  1.0000
  H   H3        1.0  0.48518  0.96321  0.19922  1.0000
  N   N4        1.0  0.97695  0.48936  0.26914  1.0000
  C   C5        1.0  0.28232  0.64206  0.33988  1.0000
  C   C6        1.0  0.31210  0.61704  0.33978  1.0000
  C   C7        1.0  0.36690  0.64206  0.33983  1.0000
  C   C8        1.0  0.39191  0.69685  0.33984  1.0000
  C   C9        1.0  0.36690  0.72663  0.33990  1.0000
  C   C10       1.0  0.31210  0.69685  0.33997  1.0000
  C   C11       1.0  0.39535  0.61361  0.33965  1.0000
  C   C12       1.0  0.37023  0.55851  0.33965  1.0000
  C   C13       1.0  0.39717  0.53111  0.33941  1.0000
  C   C14       1.0  0.45139  0.55756  0.33892  1.0000
  C   C15       1.0  0.47785  0.61178  0.33937  1.0000
  C   C16       1.0  0.45044  0.63872  0.33960  1.0000
  C   C17       1.0  0.22542  0.61361  0.33968  1.0000
  C   C18       1.0  0.19544  0.55851  0.33970  1.0000
  C   C19       1.0  0.14110  0.53111  0.33944  1.0000
  C   C20       1.0  0.11334  0.55757  0.33892  1.0000
  C   C21       1.0  0.14110  0.61179  0.33934  1.0000
  C   C22       1.0  0.19544  0.63873  0.33957  1.0000
  C   C23       1.0  0.39535  0.78353  0.33970  1.0000
  C   C24       1.0  0.37023  0.81351  0.33958  1.0000
  C   C25       1.0  0.39717  0.86786  0.33935  1.0000
  C   C26       1.0  0.45139  0.89562  0.33892  1.0000
  C   C27       1.0  0.47785  0.86786  0.33943  1.0000
  C   C28       1.0  0.45044  0.81351  0.33968  1.0000
  H   H4        1.0  0.12193  0.49158  0.33977  1.0000
  H   H5        1.0  0.21195  0.53599  0.34013  1.0000
  H   H6        1.0  0.12193  0.63214  0.33958  1.0000
  H   H7        1.0  0.21195  0.67775  0.33982  1.0000
  H   H8        1.0  0.33120  0.79701  0.33985  1.0000
  H   H9        1.0  0.37681  0.88703  0.33959  1.0000
  H   H10       1.0  0.47297  0.79701  0.34009  1.0000
  H   H11       1.0  0.51737  0.88703  0.33974  1.0000
  H   H12       1.0  0.47297  0.67775  0.33992  1.0000
  H   H13       1.0  0.51737  0.63214  0.33964  1.0000
  H   H14       1.0  0.37681  0.49158  0.33972  1.0000
  H   H15       1.0  0.33120  0.53599  0.34003  1.0000
  H   H16       1.0  0.29277  0.57839  0.33950  1.0000
  H   H17       1.0  0.29278  0.71618  0.33999  1.0000
  H   H18       1.0  0.43057  0.71618  0.33964  1.0000
  C   C29       1.0  0.72842  0.36511  0.33587  1.0000
  C   C30       1.0  0.69864  0.39012  0.33515  1.0000
  C   C31       1.0  0.64385  0.36511  0.33539  1.0000
  C   C32       1.0  0.61884  0.31032  0.33541  1.0000
  C   C33       1.0  0.64385  0.28054  0.33595  1.0000
  C   C34       1.0  0.69865  0.31031  0.33680  1.0000
  C   C35       1.0  0.61540  0.39356  0.33652  1.0000
  C   C36       1.0  0.64052  0.44865  0.33752  1.0000
  C   C37       1.0  0.61360  0.47604  0.34083  1.0000
  C   C38       1.0  0.55941  0.44955  0.34470  1.0000
  C   C39       1.0  0.53292  0.39536  0.34070  1.0000
  C   C40       1.0  0.56031  0.36844  0.33731  1.0000
  C   C41       1.0  0.78531  0.39356  0.33692  1.0000
  C   C42       1.0  0.81528  0.44865  0.33811  1.0000
  C   C43       1.0  0.86959  0.47603  0.34117  1.0000
  C   C44       1.0  0.89730  0.44954  0.34474  1.0000
  C   C45       1.0  0.86960  0.39536  0.34037  1.0000
  C   C46       1.0  0.81529  0.36844  0.33698  1.0000
  C   C47       1.0  0.61540  0.22365  0.33700  1.0000
  C   C48       1.0  0.64051  0.19367  0.33707  1.0000
  C   C49       1.0  0.61360  0.13936  0.34046  1.0000
  C   C50       1.0  0.55941  0.11165  0.34477  1.0000
  C   C51       1.0  0.53293  0.13936  0.34112  1.0000
  C   C52       1.0  0.56031  0.19367  0.33806  1.0000
  H   H19       1.0  0.88874  0.51555  0.34288  1.0000
  H   H20       1.0  0.79878  0.47118  0.33738  1.0000
  H   H21       1.0  0.88875  0.37500  0.34129  1.0000
  H   H22       1.0  0.79880  0.32944  0.33471  1.0000
  H   H23       1.0  0.67952  0.21016  0.33485  1.0000
  H   H24       1.0  0.63397  0.12021  0.34137  1.0000
  H   H25       1.0  0.53778  0.21017  0.33715  1.0000
  H   H26       1.0  0.49341  0.12021  0.34275  1.0000
  H   H27       1.0  0.53778  0.32942  0.33586  1.0000
  H   H28       1.0  0.49341  0.37499  0.34201  1.0000
  H   H29       1.0  0.63397  0.51555  0.34229  1.0000
  H   H30       1.0  0.67954  0.47118  0.33633  1.0000
  H   H31       1.0  0.71797  0.42878  0.33457  1.0000
  H   H32       1.0  0.71796  0.29099  0.33910  1.0000
  H   H33       1.0  0.58018  0.29099  0.33531  1.0000
  C   C53       1.0  0.53224  0.47671  0.34919  1.0000
  C   C54       1.0  0.47857  0.53039  0.34025  1.0000
  N   N5        1.0  0.49121  0.51773  0.42002  1.0000
  C   C55       1.0  0.51731  0.49164  0.42949  1.0000
  O   O1        1.0  0.52462  0.48431  0.51830  1.0000
  C   C56       1.0  0.55085  0.45811  0.54864  1.0000
  H   H34       1.0  0.55071  0.45823  0.62179  1.0000
  H   H35       1.0  0.59091  0.47797  0.52624  1.0000
  H   H36       1.0  0.53103  0.41805  0.52621  1.0000
  C   C57       1.0  0.53226  0.05733  0.34922  1.0000
  C   C58       1.0  0.47857  0.94997  0.34025  1.0000
  N   N6        1.0  0.49122  0.97527  0.42002  1.0000
  C   C59       1.0  0.51731  0.02746  0.42951  1.0000
  O   O2        1.0  0.52465  0.04208  0.51832  1.0000
  C   C60       1.0  0.55085  0.09452  0.54868  1.0000
  H   H37       1.0  0.55076  0.09424  0.62182  1.0000
  H   H38       1.0  0.53096  0.11471  0.52635  1.0000
  H   H39       1.0  0.59089  0.11477  0.52618  1.0000
  C   C61       1.0  0.95163  0.47670  0.34920  1.0000
  C   C62       1.0  0.98149  0.49165  0.42950  1.0000
  O   O3        1.0  0.96686  0.48431  0.51831  1.0000
  C   C63       1.0  0.91443  0.45809  0.54866  1.0000
  H   H40       1.0  0.91470  0.45817  0.62180  1.0000
  H   H41       1.0  0.89419  0.41805  0.52614  1.0000
  H   H42       1.0  0.89423  0.47797  0.52635  1.0000
