data_image0
_chemical_formula_structural       C2HC2HN2C6H2NH2NO2CHC6H2NH2NO2CHC4H2C4H2N2C2HC4HNH2NO2CHC2HC4HNH2NO2CHC2HC2HN2C6H2NH2NO2CHC6H2NH2NO2CHC4H2C4H2N2C2HC4HNH2NO2CHC2HC4HNH2NO2CHC2HC2HN2C6H2NH2NO2CHC6H2NH2NO2CHC4H2C4H2N2C2HC4HNH2NO2CHC2HC4HNH2NO2CHC2HC2HN2C6H2NH2NO2CHC6H2NH2NO2CHC4H2C4H2N2C2HC4HNH2NO2CHC2HC4HNH2NO2CH
_chemical_formula_sum              "C160 H104 N48 O32"
_cell_length_a       39.3376
_cell_length_b       39.3376
_cell_length_c       15.0614
_cell_angle_alpha    90
_cell_angle_beta     90
_cell_angle_gamma    90

_space_group_name_H-M_alt    "P 1"
_space_group_IT_number       1

loop_
  _space_group_symop_operation_xyz
  'x, y, z'

loop_
  _atom_site_type_symbol
  _atom_site_label
  _atom_site_symmetry_multiplicity
  _atom_site_fract_x
  _atom_site_fract_y
  _atom_site_fract_z
  _atom_site_occupancy
  C   C1        1.0  0.00325  0.04051  0.27257  1.0000
  C   C2        1.0  0.02854  0.06585  0.27148  1.0000
  H   H1        1.0  0.47924  0.04748  0.25490  1.0000
  C   C3        1.0  0.46562  0.42233  0.33429  1.0000
  C   C4        1.0  0.49066  0.44677  0.31357  1.0000
  H   H2        1.0  0.01405  0.43825  0.29532  1.0000
  N   N1        1.0  0.47075  0.38837  0.33141  1.0000
  N   N2        1.0  0.02230  0.09910  0.25811  1.0000
  C   C5        1.0  0.49578  0.15355  0.24242  1.0000
  C   C6        1.0  0.46795  0.17395  0.21526  1.0000
  C   C7        1.0  0.46937  0.20949  0.22864  1.0000
  C   C8        1.0  0.49768  0.22561  0.26884  1.0000
  C   C9        1.0  0.02642  0.28186  0.24958  1.0000
  C   C10       1.0  0.02565  0.31714  0.26678  1.0000
  H   H3        1.0  0.04615  0.33147  0.24753  1.0000
  H   H4        1.0  0.44972  0.22391  0.20470  1.0000
  N   N3        1.0  0.05352  0.26930  0.20363  1.0000
  H   H5        1.0  0.05352  0.24637  0.18000  1.0000
  H   H6        1.0  0.07187  0.28406  0.18366  1.0000
  N   N4        1.0  0.43942  0.15893  0.17313  1.0000
  O   O1        1.0  0.91256  0.16399  0.21632  1.0000
  O   O2        1.0  0.43546  0.16999  0.09552  1.0000
  C   C11       1.0  0.99506  0.11779  0.23434  1.0000
  H   H7        1.0  0.97338  0.10562  0.21468  1.0000
  C   C12       1.0  0.33744  0.50537  0.37100  1.0000
  C   C13       1.0  0.31598  0.53065  0.33409  1.0000
  C   C14       1.0  0.28062  0.52916  0.35042  1.0000
  C   C15       1.0  0.26555  0.50420  0.40589  1.0000
  C   C16       1.0  0.20732  0.03046  0.41073  1.0000
  C   C17       1.0  0.17228  0.02608  0.39287  1.0000
  H   H8        1.0  0.15695  0.04710  0.39467  1.0000
  H   H9        1.0  0.26550  0.54569  0.31581  1.0000
  N   N5        1.0  0.21810  0.06199  0.43573  1.0000
  H   H10       1.0  0.24060  0.06547  0.46056  1.0000
  H   H11       1.0  0.20224  0.08088  0.44148  1.0000
  N   N6        1.0  0.32945  0.55553  0.27569  1.0000
  O   O3        1.0  0.32389  0.08514  0.30349  1.0000
  O   O4        1.0  0.31749  0.55276  0.19862  1.0000
  C   C18       1.0  0.37258  0.00443  0.35178  1.0000
  H   H12       1.0  0.38354  0.02394  0.31728  1.0000
  C   C19       1.0  0.01033  0.00656  0.29908  1.0000
  C   C20       1.0  0.06205  0.05740  0.29442  1.0000
  C   C21       1.0  0.07074  0.02385  0.31631  1.0000
  C   C22       1.0  0.04503  0.99882  0.31771  1.0000
  H   H13       1.0  0.05167  0.47554  0.34174  1.0000
  H   H14       1.0  0.08037  0.07596  0.29533  1.0000
  C   C23       1.0  0.48378  0.48218  0.31213  1.0000
  C   C24       1.0  0.44938  0.49180  0.32740  1.0000
  C   C25       1.0  0.42392  0.46790  0.34934  1.0000
  C   C26       1.0  0.43262  0.43333  0.35520  1.0000
  H   H15       1.0  0.44286  0.01681  0.33091  1.0000
  H   H16       1.0  0.41413  0.41571  0.36898  1.0000
  N   N7        1.0  0.39092  0.47576  0.36397  1.0000
  N   N8        1.0  0.10365  0.01850  0.33775  1.0000
  C   C27       1.0  0.52478  0.20493  0.30080  1.0000
  C   C28       1.0  0.52386  0.16967  0.28373  1.0000
  H   H17       1.0  0.54354  0.15523  0.30734  1.0000
  C   C29       1.0  0.49802  0.26160  0.27540  1.0000
  C   C30       1.0  0.49688  0.33358  0.30332  1.0000
  C   C31       1.0  0.46815  0.31351  0.32625  1.0000
  C   C32       1.0  0.46916  0.27807  0.31151  1.0000
  H   H18       1.0  0.44878  0.26391  0.33216  1.0000
  N   N9        1.0  0.05051  0.21699  0.35272  1.0000
  H   H19       1.0  0.06791  0.20194  0.37667  1.0000
  H   H20       1.0  0.05018  0.23994  0.37626  1.0000
  N   N10       1.0  0.43900  0.32831  0.36586  1.0000
  O   O5        1.0  0.43362  0.31685  0.44250  1.0000
  O   O6        1.0  0.41283  0.32403  0.31933  1.0000
  C   C33       1.0  0.49815  0.36932  0.31078  1.0000
  H   H21       1.0  0.52001  0.38157  0.29277  1.0000
  C   C34       1.0  0.28761  0.48032  0.44807  1.0000
  C   C35       1.0  0.32271  0.48067  0.42749  1.0000
  H   H22       1.0  0.33814  0.46324  0.45796  1.0000
  C   C36       1.0  0.22938  0.50167  0.40747  1.0000
  C   C37       1.0  0.15758  0.49379  0.37683  1.0000
  C   C38       1.0  0.17903  0.46486  0.38023  1.0000
  C   C39       1.0  0.21433  0.46932  0.39362  1.0000
  H   H23       1.0  0.22945  0.44829  0.38714  1.0000
  N   N11       1.0  0.27679  0.95839  0.51219  1.0000
  H   H24       1.0  0.29258  0.94337  0.54290  1.0000
  H   H25       1.0  0.25417  0.96018  0.53754  1.0000
  N   N12       1.0  0.16551  0.43194  0.36515  1.0000
  O   O7        1.0  0.17789  0.41836  0.29687  1.0000
  O   O8        1.0  0.17056  0.41269  0.43044  1.0000
  C   C40       1.0  0.12253  0.49084  0.35735  1.0000
  H   H26       1.0  0.11159  0.46742  0.35075  1.0000
  C   C41       1.0  0.00325  0.54051  0.27257  1.0000
  C   C42       1.0  0.02854  0.56585  0.27148  1.0000
  H   H27       1.0  0.47924  0.54748  0.25490  1.0000
  C   C43       1.0  0.46562  0.92233  0.33429  1.0000
  C   C44       1.0  0.49066  0.94677  0.31357  1.0000
  H   H28       1.0  0.01405  0.93825  0.29532  1.0000
  N   N13       1.0  0.47075  0.88837  0.33141  1.0000
  N   N14       1.0  0.02230  0.59911  0.25811  1.0000
  C   C45       1.0  0.49578  0.65355  0.24242  1.0000
  C   C46       1.0  0.46795  0.67395  0.21526  1.0000
  C   C47       1.0  0.46937  0.70949  0.22864  1.0000
  C   C48       1.0  0.49768  0.72561  0.26884  1.0000
  C   C49       1.0  0.02642  0.78186  0.24958  1.0000
  C   C50       1.0  0.02565  0.81714  0.26678  1.0000
  H   H29       1.0  0.04615  0.83148  0.24753  1.0000
  H   H30       1.0  0.44972  0.72391  0.20470  1.0000
  N   N15       1.0  0.05352  0.76930  0.20363  1.0000
  H   H31       1.0  0.05352  0.74637  0.18000  1.0000
  H   H32       1.0  0.07187  0.78406  0.18366  1.0000
  N   N16       1.0  0.43942  0.65893  0.17313  1.0000
  O   O9        1.0  0.91256  0.66399  0.21632  1.0000
  O   O10       1.0  0.43546  0.67000  0.09552  1.0000
  C   C51       1.0  0.99506  0.61779  0.23434  1.0000
  H   H33       1.0  0.97338  0.60562  0.21468  1.0000
  C   C52       1.0  0.33744  0.00537  0.37100  1.0000
  C   C53       1.0  0.31598  0.03065  0.33409  1.0000
  C   C54       1.0  0.28062  0.02916  0.35042  1.0000
  C   C55       1.0  0.26555  0.00420  0.40589  1.0000
  C   C56       1.0  0.20732  0.53046  0.41073  1.0000
  C   C57       1.0  0.17228  0.52608  0.39287  1.0000
  H   H34       1.0  0.15695  0.54710  0.39467  1.0000
  H   H35       1.0  0.26550  0.04569  0.31581  1.0000
  N   N17       1.0  0.21810  0.56199  0.43573  1.0000
  H   H36       1.0  0.24060  0.56547  0.46056  1.0000
  H   H37       1.0  0.20224  0.58088  0.44148  1.0000
  N   N18       1.0  0.32945  0.05553  0.27569  1.0000
  O   O11       1.0  0.32389  0.58514  0.30349  1.0000
  O   O12       1.0  0.31749  0.05276  0.19862  1.0000
  C   C58       1.0  0.37258  0.50443  0.35178  1.0000
  H   H38       1.0  0.38354  0.52394  0.31728  1.0000
  C   C59       1.0  0.01033  0.50656  0.29908  1.0000
  C   C60       1.0  0.06205  0.55740  0.29442  1.0000
  C   C61       1.0  0.07074  0.52385  0.31631  1.0000
  C   C62       1.0  0.04503  0.49882  0.31771  1.0000
  H   H39       1.0  0.05167  0.97554  0.34174  1.0000
  H   H40       1.0  0.08037  0.57596  0.29533  1.0000
  C   C63       1.0  0.48378  0.98218  0.31213  1.0000
  C   C64       1.0  0.44938  0.99180  0.32740  1.0000
  C   C65       1.0  0.42392  0.96790  0.34934  1.0000
  C   C66       1.0  0.43262  0.93333  0.35520  1.0000
  H   H41       1.0  0.44286  0.51681  0.33091  1.0000
  H   H42       1.0  0.41413  0.91571  0.36898  1.0000
  N   N19       1.0  0.39092  0.97576  0.36397  1.0000
  N   N20       1.0  0.10365  0.51850  0.33775  1.0000
  C   C67       1.0  0.52478  0.70493  0.30080  1.0000
  C   C68       1.0  0.52386  0.66967  0.28373  1.0000
  H   H43       1.0  0.54354  0.65523  0.30734  1.0000
  C   C69       1.0  0.49802  0.76160  0.27540  1.0000
  C   C70       1.0  0.49688  0.83358  0.30332  1.0000
  C   C71       1.0  0.46815  0.81352  0.32625  1.0000
  C   C72       1.0  0.46916  0.77807  0.31151  1.0000
  H   H44       1.0  0.44878  0.76390  0.33216  1.0000
  N   N21       1.0  0.05051  0.71699  0.35272  1.0000
  H   H45       1.0  0.06791  0.70194  0.37667  1.0000
  H   H46       1.0  0.05018  0.73994  0.37626  1.0000
  N   N22       1.0  0.43900  0.82831  0.36586  1.0000
  O   O13       1.0  0.43362  0.81685  0.44250  1.0000
  O   O14       1.0  0.41283  0.82403  0.31933  1.0000
  C   C73       1.0  0.49815  0.86932  0.31078  1.0000
  H   H47       1.0  0.52001  0.88157  0.29277  1.0000
  C   C74       1.0  0.28761  0.98033  0.44807  1.0000
  C   C75       1.0  0.32271  0.98067  0.42749  1.0000
  H   H48       1.0  0.33814  0.96324  0.45796  1.0000
  C   C76       1.0  0.22938  0.00167  0.40747  1.0000
  C   C77       1.0  0.15758  0.99379  0.37683  1.0000
  C   C78       1.0  0.17903  0.96486  0.38023  1.0000
  C   C79       1.0  0.21433  0.96932  0.39362  1.0000
  H   H49       1.0  0.22945  0.94829  0.38714  1.0000
  N   N23       1.0  0.27679  0.45839  0.51219  1.0000
  H   H50       1.0  0.29258  0.44337  0.54290  1.0000
  H   H51       1.0  0.25417  0.46018  0.53754  1.0000
  N   N24       1.0  0.16551  0.93194  0.36515  1.0000
  O   O15       1.0  0.17789  0.91836  0.29687  1.0000
  O   O16       1.0  0.17056  0.91269  0.43044  1.0000
  C   C80       1.0  0.12253  0.99084  0.35735  1.0000
  H   H52       1.0  0.11159  0.96742  0.35075  1.0000
  C   C81       1.0  0.50325  0.04051  0.27257  1.0000
  C   C82       1.0  0.52854  0.06585  0.27148  1.0000
  H   H53       1.0  0.97924  0.04748  0.25490  1.0000
  C   C83       1.0  0.96563  0.42233  0.33429  1.0000
  C   C84       1.0  0.99066  0.44677  0.31357  1.0000
  H   H54       1.0  0.51405  0.43825  0.29532  1.0000
  N   N25       1.0  0.97076  0.38837  0.33141  1.0000
  N   N26       1.0  0.52230  0.09910  0.25811  1.0000
  C   C85       1.0  0.99578  0.15355  0.24242  1.0000
  C   C86       1.0  0.96795  0.17395  0.21526  1.0000
  C   C87       1.0  0.96937  0.20949  0.22864  1.0000
  C   C88       1.0  0.99768  0.22561  0.26884  1.0000
  C   C89       1.0  0.52642  0.28186  0.24958  1.0000
  C   C90       1.0  0.52565  0.31714  0.26678  1.0000
  H   H55       1.0  0.54615  0.33147  0.24753  1.0000
  H   H56       1.0  0.94972  0.22391  0.20470  1.0000
  N   N27       1.0  0.55352  0.26930  0.20363  1.0000
  H   H57       1.0  0.55352  0.24637  0.18000  1.0000
  H   H58       1.0  0.57188  0.28406  0.18366  1.0000
  N   N28       1.0  0.93943  0.15893  0.17313  1.0000
  O   O17       1.0  0.41256  0.16399  0.21632  1.0000
  O   O18       1.0  0.93546  0.16999  0.09552  1.0000
  C   C91       1.0  0.49506  0.11779  0.23434  1.0000
  H   H59       1.0  0.47337  0.10562  0.21468  1.0000
  C   C92       1.0  0.83744  0.50537  0.37100  1.0000
  C   C93       1.0  0.81598  0.53065  0.33409  1.0000
  C   C94       1.0  0.78062  0.52916  0.35042  1.0000
  C   C95       1.0  0.76556  0.50420  0.40589  1.0000
  C   C96       1.0  0.70732  0.03046  0.41073  1.0000
  C   C97       1.0  0.67229  0.02608  0.39287  1.0000
  H   H60       1.0  0.65695  0.04710  0.39467  1.0000
  H   H61       1.0  0.76551  0.54569  0.31581  1.0000
  N   N29       1.0  0.71810  0.06199  0.43573  1.0000
  H   H62       1.0  0.74060  0.06547  0.46056  1.0000
  H   H63       1.0  0.70224  0.08088  0.44148  1.0000
  N   N30       1.0  0.82945  0.55553  0.27569  1.0000
  O   O19       1.0  0.82389  0.08514  0.30349  1.0000
  O   O20       1.0  0.81749  0.55276  0.19862  1.0000
  C   C98       1.0  0.87259  0.00443  0.35178  1.0000
  H   H64       1.0  0.88354  0.02394  0.31728  1.0000
  C   C99       1.0  0.51033  0.00656  0.29908  1.0000
  C   C100      1.0  0.56205  0.05740  0.29442  1.0000
  C   C101      1.0  0.57074  0.02385  0.31631  1.0000
  C   C102      1.0  0.54503  0.99882  0.31771  1.0000
  H   H65       1.0  0.55167  0.47554  0.34174  1.0000
  H   H66       1.0  0.58037  0.07596  0.29533  1.0000
  C   C103      1.0  0.98378  0.48218  0.31213  1.0000
  C   C104      1.0  0.94938  0.49180  0.32740  1.0000
  C   C105      1.0  0.92392  0.46790  0.34934  1.0000
  C   C106      1.0  0.93262  0.43333  0.35520  1.0000
  H   H67       1.0  0.94286  0.01681  0.33091  1.0000
  H   H68       1.0  0.91413  0.41571  0.36898  1.0000
  N   N31       1.0  0.89092  0.47576  0.36397  1.0000
  N   N32       1.0  0.60366  0.01850  0.33775  1.0000
  C   C107      1.0  0.02478  0.20493  0.30080  1.0000
  C   C108      1.0  0.02386  0.16967  0.28373  1.0000
  H   H69       1.0  0.04354  0.15523  0.30734  1.0000
  C   C109      1.0  0.99802  0.26160  0.27540  1.0000
  C   C110      1.0  0.99688  0.33358  0.30332  1.0000
  C   C111      1.0  0.96815  0.31351  0.32625  1.0000
  C   C112      1.0  0.96916  0.27807  0.31151  1.0000
  H   H70       1.0  0.94878  0.26391  0.33216  1.0000
  N   N33       1.0  0.55051  0.21699  0.35272  1.0000
  H   H71       1.0  0.56791  0.20194  0.37667  1.0000
  H   H72       1.0  0.55018  0.23994  0.37626  1.0000
  N   N34       1.0  0.93901  0.32831  0.36586  1.0000
  O   O21       1.0  0.93362  0.31685  0.44250  1.0000
  O   O22       1.0  0.91283  0.32403  0.31933  1.0000
  C   C113      1.0  0.99815  0.36932  0.31078  1.0000
  H   H73       1.0  0.02001  0.38157  0.29277  1.0000
  C   C114      1.0  0.78761  0.48032  0.44807  1.0000
  C   C115      1.0  0.82271  0.48067  0.42749  1.0000
  H   H74       1.0  0.83814  0.46324  0.45796  1.0000
  C   C116      1.0  0.72938  0.50167  0.40747  1.0000
  C   C117      1.0  0.65758  0.49379  0.37683  1.0000
  C   C118      1.0  0.67903  0.46486  0.38023  1.0000
  C   C119      1.0  0.71433  0.46932  0.39362  1.0000
  H   H75       1.0  0.72945  0.44829  0.38714  1.0000
  N   N35       1.0  0.77679  0.95839  0.51219  1.0000
  H   H76       1.0  0.79258  0.94337  0.54290  1.0000
  H   H77       1.0  0.75417  0.96018  0.53754  1.0000
  N   N36       1.0  0.66551  0.43194  0.36515  1.0000
  O   O23       1.0  0.67789  0.41836  0.29687  1.0000
  O   O24       1.0  0.67056  0.41269  0.43044  1.0000
  C   C120      1.0  0.62253  0.49084  0.35735  1.0000
  H   H78       1.0  0.61159  0.46742  0.35075  1.0000
  C   C121      1.0  0.50325  0.54051  0.27257  1.0000
  C   C122      1.0  0.52854  0.56585  0.27148  1.0000
  H   H79       1.0  0.97924  0.54748  0.25490  1.0000
  C   C123      1.0  0.96563  0.92233  0.33429  1.0000
  C   C124      1.0  0.99066  0.94677  0.31357  1.0000
  H   H80       1.0  0.51405  0.93825  0.29532  1.0000
  N   N37       1.0  0.97076  0.88837  0.33141  1.0000
  N   N38       1.0  0.52230  0.59911  0.25811  1.0000
  C   C125      1.0  0.99578  0.65355  0.24242  1.0000
  C   C126      1.0  0.96795  0.67395  0.21526  1.0000
  C   C127      1.0  0.96937  0.70949  0.22864  1.0000
  C   C128      1.0  0.99768  0.72561  0.26884  1.0000
  C   C129      1.0  0.52642  0.78186  0.24958  1.0000
  C   C130      1.0  0.52565  0.81714  0.26678  1.0000
  H   H81       1.0  0.54615  0.83148  0.24753  1.0000
  H   H82       1.0  0.94972  0.72391  0.20470  1.0000
  N   N39       1.0  0.55352  0.76930  0.20363  1.0000
  H   H83       1.0  0.55352  0.74637  0.18000  1.0000
  H   H84       1.0  0.57188  0.78406  0.18366  1.0000
  N   N40       1.0  0.93943  0.65893  0.17313  1.0000
  O   O25       1.0  0.41256  0.66399  0.21632  1.0000
  O   O26       1.0  0.93546  0.67000  0.09552  1.0000
  C   C131      1.0  0.49506  0.61779  0.23434  1.0000
  H   H85       1.0  0.47337  0.60562  0.21468  1.0000
  C   C132      1.0  0.83744  0.00537  0.37100  1.0000
  C   C133      1.0  0.81598  0.03065  0.33409  1.0000
  C   C134      1.0  0.78062  0.02916  0.35042  1.0000
  C   C135      1.0  0.76556  0.00420  0.40589  1.0000
  C   C136      1.0  0.70732  0.53046  0.41073  1.0000
  C   C137      1.0  0.67229  0.52608  0.39287  1.0000
  H   H86       1.0  0.65695  0.54710  0.39467  1.0000
  H   H87       1.0  0.76551  0.04569  0.31581  1.0000
  N   N41       1.0  0.71810  0.56199  0.43573  1.0000
  H   H88       1.0  0.74060  0.56547  0.46056  1.0000
  H   H89       1.0  0.70224  0.58088  0.44148  1.0000
  N   N42       1.0  0.82945  0.05553  0.27569  1.0000
  O   O27       1.0  0.82389  0.58514  0.30349  1.0000
  O   O28       1.0  0.81749  0.05276  0.19862  1.0000
  C   C138      1.0  0.87259  0.50443  0.35178  1.0000
  H   H90       1.0  0.88354  0.52394  0.31728  1.0000
  C   C139      1.0  0.51033  0.50656  0.29908  1.0000
  C   C140      1.0  0.56205  0.55740  0.29442  1.0000
  C   C141      1.0  0.57074  0.52385  0.31631  1.0000
  C   C142      1.0  0.54503  0.49882  0.31771  1.0000
  H   H91       1.0  0.55167  0.97554  0.34174  1.0000
  H   H92       1.0  0.58037  0.57596  0.29533  1.0000
  C   C143      1.0  0.98378  0.98218  0.31213  1.0000
  C   C144      1.0  0.94938  0.99180  0.32740  1.0000
  C   C145      1.0  0.92392  0.96790  0.34934  1.0000
  C   C146      1.0  0.93262  0.93333  0.35520  1.0000
  H   H93       1.0  0.94286  0.51681  0.33091  1.0000
  H   H94       1.0  0.91413  0.91571  0.36898  1.0000
  N   N43       1.0  0.89092  0.97576  0.36397  1.0000
  N   N44       1.0  0.60366  0.51850  0.33775  1.0000
  C   C147      1.0  0.02478  0.70493  0.30080  1.0000
  C   C148      1.0  0.02386  0.66967  0.28373  1.0000
  H   H95       1.0  0.04354  0.65523  0.30734  1.0000
  C   C149      1.0  0.99802  0.76160  0.27540  1.0000
  C   C150      1.0  0.99688  0.83358  0.30332  1.0000
  C   C151      1.0  0.96815  0.81352  0.32625  1.0000
  C   C152      1.0  0.96916  0.77807  0.31151  1.0000
  H   H96       1.0  0.94878  0.76390  0.33216  1.0000
  N   N45       1.0  0.55051  0.71699  0.35272  1.0000
  H   H97       1.0  0.56791  0.70194  0.37667  1.0000
  H   H98       1.0  0.55018  0.73994  0.37626  1.0000
  N   N46       1.0  0.93901  0.82831  0.36586  1.0000
  O   O29       1.0  0.93362  0.81685  0.44250  1.0000
  O   O30       1.0  0.91283  0.82403  0.31933  1.0000
  C   C153      1.0  0.99815  0.86932  0.31078  1.0000
  H   H99       1.0  0.02001  0.88157  0.29277  1.0000
  C   C154      1.0  0.78761  0.98033  0.44807  1.0000
  C   C155      1.0  0.82271  0.98067  0.42749  1.0000
  H   H100      1.0  0.83814  0.96324  0.45796  1.0000
  C   C156      1.0  0.72938  0.00167  0.40747  1.0000
  C   C157      1.0  0.65758  0.99379  0.37683  1.0000
  C   C158      1.0  0.67903  0.96486  0.38023  1.0000
  C   C159      1.0  0.71433  0.96932  0.39362  1.0000
  H   H101      1.0  0.72945  0.94829  0.38714  1.0000
  N   N47       1.0  0.77679  0.45839  0.51219  1.0000
  H   H102      1.0  0.79258  0.44337  0.54290  1.0000
  H   H103      1.0  0.75417  0.46018  0.53754  1.0000
  N   N48       1.0  0.66551  0.93194  0.36515  1.0000
  O   O31       1.0  0.67789  0.91836  0.29687  1.0000
  O   O32       1.0  0.67056  0.91269  0.43044  1.0000
  C   C160      1.0  0.62253  0.99084  0.35735  1.0000
  H   H104      1.0  0.61159  0.96742  0.35075  1.0000
