data_image0
_chemical_formula_structural       C2HC2HC4HC2N2C8HC7HCH4N3C8HC7HCH4N4C3H2CHC3H2CHC3H2C4H2CHC3H2CHC3H2CHC6H4N3C3NC2NHOHCHC3NC2NHOHCHC3NC2NHOHCHC3NC2NHOHCHC3NC2NHOHCHC3NC2NHOHCH
_chemical_formula_sum              "C108 H54 N24 O6"
_cell_length_a       30.6855
_cell_length_b       30.6856
_cell_length_c       14.8592
_cell_angle_alpha    90.0004
_cell_angle_beta     89.9996
_cell_angle_gamma    120

_space_group_name_H-M_alt    "P 1"
_space_group_IT_number       1

loop_
  _space_group_symop_operation_xyz
  'x, y, z'

loop_
  _atom_site_type_symbol
  _atom_site_label
  _atom_site_symmetry_multiplicity
  _atom_site_fract_x
  _atom_site_fract_y
  _atom_site_fract_z
  _atom_site_occupancy
  C   C1        1.0  0.04901  0.55423  0.36039  1.0000
  C   C2        1.0  0.04799  0.46139  0.35465  1.0000
  H   H1        1.0  0.04729  0.42769  0.35628  1.0000
  C   C3        1.0  0.04887  0.60111  0.36038  1.0000
  C   C4        1.0  0.04988  0.69394  0.35457  1.0000
  H   H2        1.0  0.05059  0.72765  0.35620  1.0000
  C   C5        1.0  0.09486  0.50645  0.36017  1.0000
  C   C6        1.0  0.09517  0.55329  0.35933  1.0000
  C   C7        1.0  0.09604  0.69427  0.35590  1.0000
  C   C8        1.0  0.09529  0.64756  0.35780  1.0000
  H   H3        1.0  0.13450  0.79972  0.33506  1.0000
  C   C9        1.0  0.13989  0.60001  0.34857  1.0000
  C   C10       1.0  0.14021  0.64575  0.34998  1.0000
  N   N1        1.0  0.13523  0.49916  0.36826  1.0000
  N   N2        1.0  0.14112  0.73790  0.35959  1.0000
  C   C11       1.0  0.57237  0.60117  0.36037  1.0000
  C   C12       1.0  0.61883  0.60120  0.35778  1.0000
  C   C13       1.0  0.66554  0.64716  0.35592  1.0000
  C   C14       1.0  0.66521  0.69299  0.35461  1.0000
  C   C15       1.0  0.62015  0.69480  0.36009  1.0000
  C   C16       1.0  0.57331  0.64827  0.35932  1.0000
  C   C17       1.0  0.61701  0.55447  0.34988  1.0000
  C   C18       1.0  0.52659  0.64628  0.34868  1.0000
  H   H4        1.0  0.69892  0.72600  0.35625  1.0000
  C   C19       1.0  0.52549  0.55416  0.36038  1.0000
  C   C20       1.0  0.52456  0.50706  0.35928  1.0000
  C   C21       1.0  0.47771  0.46053  0.36011  1.0000
  C   C22       1.0  0.43265  0.46234  0.35474  1.0000
  C   C23       1.0  0.43232  0.50817  0.35602  1.0000
  C   C24       1.0  0.47903  0.55412  0.35789  1.0000
  C   C25       1.0  0.57127  0.50906  0.34845  1.0000
  H   H5        1.0  0.39895  0.42933  0.35628  1.0000
  C   C26       1.0  0.48086  0.60086  0.35002  1.0000
  H   H6        1.0  0.57320  0.47778  0.33286  1.0000
  H   H7        1.0  0.64907  0.55276  0.33992  1.0000
  H   H8        1.0  0.44880  0.60258  0.34001  1.0000
  H   H9        1.0  0.52466  0.67753  0.33287  1.0000
  N   N3        1.0  0.62745  0.74246  0.36824  1.0000
  N   N4        1.0  0.38869  0.50962  0.35971  1.0000
  N   N5        1.0  0.47042  0.41286  0.36822  1.0000
  C   C27       1.0  0.52543  0.07760  0.36062  1.0000
  C   C28       1.0  0.52540  0.12402  0.35799  1.0000
  C   C29       1.0  0.47944  0.12477  0.35605  1.0000
  C   C30       1.0  0.43361  0.07862  0.35476  1.0000
  C   C31       1.0  0.43180  0.03175  0.36026  1.0000
  C   C32       1.0  0.47833  0.03144  0.35956  1.0000
  C   C33       1.0  0.57214  0.16894  0.35017  1.0000
  C   C34       1.0  0.48033  0.98672  0.34882  1.0000
  H   H10       1.0  0.40061  0.07933  0.35624  1.0000
  C   C35       1.0  0.57244  0.07773  0.36063  1.0000
  C   C36       1.0  0.61955  0.12389  0.35955  1.0000
  C   C37       1.0  0.66608  0.12358  0.36029  1.0000
  C   C38       1.0  0.66426  0.07671  0.35486  1.0000
  C   C39       1.0  0.61844  0.03055  0.35614  1.0000
  C   C40       1.0  0.57248  0.03130  0.35809  1.0000
  C   C41       1.0  0.61755  0.16861  0.34876  1.0000
  H   H11       1.0  0.69727  0.07600  0.35624  1.0000
  C   C42       1.0  0.52574  0.98638  0.35027  1.0000
  H   H12       1.0  0.64880  0.20177  0.33288  1.0000
  H   H13       1.0  0.57384  0.20269  0.33992  1.0000
  H   H14       1.0  0.52403  0.95264  0.33999  1.0000
  H   H15       1.0  0.44909  0.95355  0.33292  1.0000
  N   N6        1.0  0.38413  0.99138  0.36830  1.0000
  N   N7        1.0  0.48090  0.16986  0.35969  1.0000
  N   N8        1.0  0.61698  0.98547  0.35978  1.0000
  N   N9        1.0  0.71375  0.16395  0.36830  1.0000
  C   C43       1.0  0.30190  0.49243  0.36700  1.0000
  C   C44       1.0  0.25135  0.45858  0.34319  1.0000
  C   C45       1.0  0.21338  0.47125  0.35238  1.0000
  H   H16       1.0  0.17772  0.44510  0.33277  1.0000
  H   H17       1.0  0.24156  0.42413  0.31633  1.0000
  C   C46       1.0  0.33845  0.47741  0.35409  1.0000
  H   H18       1.0  0.32689  0.44119  0.33508  1.0000
  C   C47       1.0  0.63417  0.91586  0.36702  1.0000
  C   C48       1.0  0.66803  0.89917  0.34322  1.0000
  C   C49       1.0  0.65536  0.84853  0.35241  1.0000
  H   H19       1.0  0.68152  0.83903  0.33280  1.0000
  H   H20       1.0  0.70248  0.92384  0.31638  1.0000
  C   C50       1.0  0.64919  0.96744  0.35412  1.0000
  H   H21       1.0  0.68542  0.99210  0.33514  1.0000
  C   C51       1.0  0.21074  0.82470  0.36694  1.0000
  C   C52       1.0  0.22743  0.87526  0.34318  1.0000
  C   C53       1.0  0.27807  0.91323  0.35239  1.0000
  H   H22       1.0  0.28757  0.94889  0.33282  1.0000
  H   H23       1.0  0.20276  0.88505  0.31635  1.0000
  C   C54       1.0  0.15917  0.78815  0.35395  1.0000
  C   C55       1.0  0.79598  0.66290  0.36690  1.0000
  C   C56       1.0  0.84654  0.69677  0.34315  1.0000
  C   C57       1.0  0.88451  0.68410  0.35235  1.0000
  H   H24       1.0  0.92016  0.71026  0.33276  1.0000
  H   H25       1.0  0.85632  0.73122  0.31631  1.0000
  C   C58       1.0  0.75941  0.67791  0.35393  1.0000
  H   H26       1.0  0.77099  0.71416  0.33507  1.0000
  C   C59       1.0  0.46371  0.23947  0.36694  1.0000
  C   C60       1.0  0.42985  0.25616  0.34314  1.0000
  C   C61       1.0  0.44251  0.30680  0.35237  1.0000
  H   H27       1.0  0.41634  0.31630  0.33278  1.0000
  H   H28       1.0  0.39538  0.23148  0.31636  1.0000
  C   C62       1.0  0.44870  0.18790  0.35402  1.0000
  H   H29       1.0  0.41246  0.16323  0.33509  1.0000
  C   C63       1.0  0.88714  0.33063  0.36693  1.0000
  C   C64       1.0  0.87045  0.28007  0.34318  1.0000
  C   C65       1.0  0.81981  0.24210  0.35239  1.0000
  H   H30       1.0  0.81031  0.20644  0.33282  1.0000
  H   H31       1.0  0.89512  0.27029  0.31636  1.0000
  C   C66       1.0  0.93871  0.36719  0.35396  1.0000
  H   H32       1.0  0.96339  0.35562  0.33510  1.0000
  C   C67       1.0  0.00259  0.50777  0.35783  1.0000
  C   C68       1.0  0.00184  0.46106  0.35595  1.0000
  C   C69       1.0  0.95768  0.50959  0.34994  1.0000
  C   C70       1.0  0.00271  0.60204  0.35930  1.0000
  C   C71       1.0  0.00302  0.64888  0.36006  1.0000
  C   C72       1.0  0.95798  0.55532  0.34869  1.0000
  H   H33       1.0  0.92481  0.55339  0.33279  1.0000
  H   H34       1.0  0.92391  0.47753  0.33992  1.0000
  H   H35       1.0  0.17398  0.67781  0.33993  1.0000
  H   H36       1.0  0.17309  0.60194  0.33292  1.0000
  N   N10       1.0  0.95676  0.41743  0.35960  1.0000
  N   N11       1.0  0.96265  0.65618  0.36817  1.0000
  N   N12       1.0  0.70917  0.64571  0.35958  1.0000
  C   C73       1.0  0.22326  0.51785  0.38933  1.0000
  C   C74       1.0  0.27404  0.55276  0.41559  1.0000
  C   C75       1.0  0.31238  0.53953  0.40365  1.0000
  N   N13       1.0  0.35989  0.57312  0.43092  1.0000
  C   C76       1.0  0.37396  0.61858  0.46706  1.0000
  C   C77       1.0  0.33726  0.63246  0.47720  1.0000
  N   N14       1.0  0.28926  0.59971  0.45128  1.0000
  H   H37       1.0  0.41046  0.64199  0.48581  1.0000
  O   O1        1.0  0.34978  0.67779  0.51298  1.0000
  H   H38       1.0  0.26582  0.61176  0.45947  1.0000
  C   C78       1.0  0.18328  0.52839  0.39752  1.0000
  H   H39       1.0  0.18967  0.55943  0.43226  1.0000
  C   C79       1.0  0.60876  0.81180  0.38935  1.0000
  C   C80       1.0  0.57384  0.82767  0.41559  1.0000
  C   C81       1.0  0.58707  0.87923  0.40365  1.0000
  N   N15       1.0  0.55346  0.89314  0.43088  1.0000
  C   C82       1.0  0.50799  0.86174  0.46699  1.0000
  C   C83       1.0  0.49412  0.81116  0.47714  1.0000
  N   N16       1.0  0.52689  0.79593  0.45125  1.0000
  H   H40       1.0  0.48459  0.87483  0.48573  1.0000
  O   O2        1.0  0.44879  0.77835  0.51289  1.0000
  H   H41       1.0  0.51484  0.76043  0.45944  1.0000
  C   C84       1.0  0.59823  0.76129  0.39752  1.0000
  H   H42       1.0  0.56717  0.73663  0.43221  1.0000
  C   C85       1.0  0.31479  0.90334  0.38930  1.0000
  C   C86       1.0  0.29892  0.85255  0.41550  1.0000
  C   C87       1.0  0.24736  0.81422  0.40353  1.0000
  N   N17       1.0  0.23345  0.76670  0.43075  1.0000
  C   C88       1.0  0.26484  0.75262  0.46683  1.0000
  C   C89       1.0  0.31542  0.78932  0.47699  1.0000
  N   N18       1.0  0.33066  0.83732  0.45113  1.0000
  H   H43       1.0  0.25175  0.71612  0.48556  1.0000
  O   O3        1.0  0.34823  0.77679  0.51271  1.0000
  H   H44       1.0  0.36616  0.86076  0.45932  1.0000
  C   C90       1.0  0.36530  0.94332  0.39754  1.0000
  H   H45       1.0  0.38995  0.93692  0.43224  1.0000
  C   C91       1.0  0.87462  0.63749  0.38925  1.0000
  C   C92       1.0  0.82383  0.60257  0.41548  1.0000
  C   C93       1.0  0.78549  0.61580  0.40352  1.0000
  N   N19       1.0  0.73798  0.58219  0.43074  1.0000
  C   C94       1.0  0.72390  0.53672  0.46684  1.0000
  C   C95       1.0  0.76061  0.52285  0.47700  1.0000
  N   N20       1.0  0.80861  0.55561  0.45113  1.0000
  H   H46       1.0  0.68741  0.51331  0.48556  1.0000
  O   O4        1.0  0.74808  0.47751  0.51275  1.0000
  H   H47       1.0  0.83206  0.54357  0.45933  1.0000
  C   C96       1.0  0.91460  0.62695  0.39744  1.0000
  H   H48       1.0  0.90820  0.59590  0.43214  1.0000
  C   C97       1.0  0.48912  0.34353  0.38927  1.0000
  C   C98       1.0  0.52404  0.32766  0.41549  1.0000
  C   C99       1.0  0.51081  0.27610  0.40355  1.0000
  N   N21       1.0  0.54442  0.26219  0.43078  1.0000
  C   C100      1.0  0.58990  0.29360  0.46686  1.0000
  C   C101      1.0  0.60377  0.34418  0.47700  1.0000
  N   N22       1.0  0.57100  0.35941  0.45113  1.0000
  H   H49       1.0  0.61331  0.28051  0.48560  1.0000
  O   O5        1.0  0.64911  0.37699  0.51273  1.0000
  H   H50       1.0  0.58305  0.39490  0.45930  1.0000
  C   C102      1.0  0.49964  0.39403  0.39746  1.0000
  H   H51       1.0  0.53069  0.41869  0.43218  1.0000
  C   C103      1.0  0.78308  0.25199  0.38928  1.0000
  C   C104      1.0  0.79895  0.30279  0.41547  1.0000
  C   C105      1.0  0.85052  0.34112  0.40352  1.0000
  N   N23       1.0  0.86443  0.38864  0.43074  1.0000
  C   C106      1.0  0.83303  0.40272  0.46682  1.0000
  C   C107      1.0  0.78245  0.36602  0.47695  1.0000
  N   N24       1.0  0.76721  0.31801  0.45109  1.0000
  H   H52       1.0  0.84612  0.43922  0.48552  1.0000
  O   O6        1.0  0.74964  0.37855  0.51267  1.0000
  H   H53       1.0  0.73172  0.29457  0.45927  1.0000
  C   C108      1.0  0.73258  0.21202  0.39750  1.0000
  H   H54       1.0  0.70793  0.21842  0.43222  1.0000
