data_image0
_chemical_formula_structural       C8H2N2O4C8H2N2O4C8H2N2O4C2H2C2H2C2H2C2H2C2H2C2H2CNCNCNC18H12CNCNCNC18H12CNCNCNC18H12CNCNCNC18H12C2H2C2H2C2H2C2H2C2H2C2H2C8H2N2O4C8H2N2O4C8H2N2O4
_chemical_formula_sum              "C156 H84 N24 O24"
_cell_length_a       56.7067
_cell_length_b       56.7066
_cell_length_c       14.9769
_cell_angle_alpha    90
_cell_angle_beta     90
_cell_angle_gamma    120

_space_group_name_H-M_alt    "P 1"
_space_group_IT_number       1

loop_
  _space_group_symop_operation_xyz
  'x, y, z'

loop_
  _atom_site_type_symbol
  _atom_site_label
  _atom_site_symmetry_multiplicity
  _atom_site_fract_x
  _atom_site_fract_y
  _atom_site_fract_z
  _atom_site_occupancy
  C   C1        1.0  0.13949  0.06865  0.32737  1.0000
  C   C2        1.0  0.15408  0.06295  0.26176  1.0000
  C   C3        1.0  0.18293  0.07797  0.26164  1.0000
  C   C4        1.0  0.19767  0.09858  0.32526  1.0000
  C   C5        1.0  0.22668  0.11359  0.32391  1.0000
  C   C6        1.0  0.24150  0.12945  0.24895  1.0000
  C   C7        1.0  0.27036  0.14394  0.25151  1.0000
  C   C8        1.0  0.28491  0.14280  0.32646  1.0000
  H   H1        1.0  0.28081  0.15518  0.19690  1.0000
  H   H2        1.0  0.19326  0.07365  0.21429  1.0000
  N   N1        1.0  0.22730  0.13113  0.17364  1.0000
  N   N2        1.0  0.13969  0.04299  0.19556  1.0000
  O   O1        1.0  0.23294  0.12243  0.10439  1.0000
  O   O2        1.0  0.14535  0.02421  0.19820  1.0000
  O   O3        1.0  0.23261  0.15516  0.15997  1.0000
  O   O4        1.0  0.14477  0.05317  0.11857  1.0000
  C   C9        1.0  0.92375  0.07123  0.32734  1.0000
  C   C10       1.0  0.92945  0.09151  0.26172  1.0000
  C   C11       1.0  0.91443  0.10535  0.26163  1.0000
  C   C12       1.0  0.89382  0.09948  0.32525  1.0000
  C   C13       1.0  0.87881  0.11347  0.32390  1.0000
  C   C14       1.0  0.86295  0.11244  0.24896  1.0000
  C   C15       1.0  0.84845  0.12679  0.25153  1.0000
  C   C16       1.0  0.84960  0.14250  0.32648  1.0000
  H   H3        1.0  0.83721  0.12601  0.19692  1.0000
  H   H4        1.0  0.91874  0.11999  0.21427  1.0000
  N   N3        1.0  0.86126  0.09655  0.17365  1.0000
  N   N4        1.0  0.94941  0.09708  0.19551  1.0000
  O   O5        1.0  0.86996  0.11090  0.10439  1.0000
  O   O6        1.0  0.96818  0.12152  0.19817  1.0000
  O   O7        1.0  0.83723  0.07784  0.15997  1.0000
  O   O8        1.0  0.93922  0.09198  0.11854  1.0000
  C   C17       1.0  0.92117  0.85291  0.32738  1.0000
  C   C18       1.0  0.90089  0.83832  0.26176  1.0000
  C   C19       1.0  0.88705  0.80947  0.26165  1.0000
  C   C20       1.0  0.89292  0.79473  0.32526  1.0000
  C   C21       1.0  0.87892  0.76572  0.32391  1.0000
  C   C22       1.0  0.87996  0.75090  0.24895  1.0000
  C   C23       1.0  0.86560  0.72205  0.25151  1.0000
  C   C24       1.0  0.84990  0.70749  0.32646  1.0000
  H   H5        1.0  0.86639  0.71159  0.19690  1.0000
  H   H6        1.0  0.87241  0.79914  0.21429  1.0000
  N   N5        1.0  0.89585  0.76511  0.17364  1.0000
  N   N6        1.0  0.89532  0.85272  0.19556  1.0000
  O   O9        1.0  0.88150  0.75946  0.10439  1.0000
  O   O10       1.0  0.87088  0.84706  0.19821  1.0000
  O   O11       1.0  0.91456  0.75979  0.15997  1.0000
  O   O12       1.0  0.90042  0.84763  0.11858  1.0000
  C   C25       1.0  0.59673  0.15851  0.26491  1.0000
  C   C26       1.0  0.62376  0.16409  0.26130  1.0000
  H   H7        1.0  0.59113  0.16937  0.22402  1.0000
  H   H8        1.0  0.63679  0.17859  0.21722  1.0000
  C   C27       1.0  0.51348  0.13975  0.27901  1.0000
  C   C28       1.0  0.53523  0.13456  0.27245  1.0000
  H   H9        1.0  0.50220  0.13761  0.22305  1.0000
  H   H10       1.0  0.53870  0.12827  0.21224  1.0000
  C   C29       1.0  0.83391  0.43861  0.26485  1.0000
  C   C30       1.0  0.82834  0.46008  0.26124  1.0000
  H   H11       1.0  0.82306  0.42217  0.22394  1.0000
  H   H12       1.0  0.81385  0.45861  0.21712  1.0000
  C   C31       1.0  0.85267  0.37412  0.27898  1.0000
  C   C32       1.0  0.85786  0.40106  0.27243  1.0000
  H   H13       1.0  0.85481  0.36499  0.22302  1.0000
  H   H14       1.0  0.86416  0.41083  0.21223  1.0000
  C   C33       1.0  0.55380  0.39568  0.26490  1.0000
  C   C34       1.0  0.53233  0.36865  0.26128  1.0000
  H   H15       1.0  0.57025  0.40127  0.22401  1.0000
  H   H16       1.0  0.53381  0.35562  0.21718  1.0000
  C   C35       1.0  0.61829  0.47893  0.27904  1.0000
  C   C36       1.0  0.59135  0.45718  0.27247  1.0000
  H   H17       1.0  0.62743  0.49021  0.22308  1.0000
  H   H18       1.0  0.58159  0.45371  0.21226  1.0000
  C   C37       1.0  0.98050  0.96946  0.33591  1.0000
  N   N7        1.0  0.00820  0.98374  0.33582  1.0000
  C   C38       1.0  0.02294  0.01142  0.33590  1.0000
  N   N8        1.0  0.00867  0.02485  0.33580  1.0000
  C   C39       1.0  0.98098  0.01190  0.33590  1.0000
  N   N9        1.0  0.96755  0.98420  0.33581  1.0000
  C   C40       1.0  0.05203  0.02572  0.33494  1.0000
  C   C41       1.0  0.06681  0.01170  0.34120  1.0000
  C   C42       1.0  0.09546  0.02574  0.33920  1.0000
  C   C43       1.0  0.11046  0.05437  0.33044  1.0000
  C   C44       1.0  0.09591  0.06855  0.32511  1.0000
  C   C45       1.0  0.06725  0.05448  0.32722  1.0000
  C   C46       1.0  0.96571  0.94038  0.33496  1.0000
  C   C47       1.0  0.97924  0.92515  0.32724  1.0000
  C   C48       1.0  0.96465  0.89649  0.32515  1.0000
  C   C49       1.0  0.93593  0.88194  0.33045  1.0000
  C   C50       1.0  0.92229  0.89694  0.33921  1.0000
  C   C51       1.0  0.93690  0.92560  0.34122  1.0000
  C   C52       1.0  0.96668  0.02669  0.33492  1.0000
  C   C53       1.0  0.93793  0.01316  0.32718  1.0000
  C   C54       1.0  0.92385  0.02774  0.32510  1.0000
  C   C55       1.0  0.93803  0.05647  0.33040  1.0000
  C   C56       1.0  0.96666  0.07011  0.33915  1.0000
  C   C57       1.0  0.98071  0.05550  0.34116  1.0000
  H   H19       1.0  0.97523  0.88632  0.31818  1.0000
  H   H20       1.0  1.00000  0.93474  0.32213  1.0000
  H   H21       1.0  0.90152  0.88709  0.34484  1.0000
  H   H22       1.0  0.92609  0.93552  0.34760  1.0000
  H   H23       1.0  0.92676  0.99240  0.32212  1.0000
  H   H24       1.0  0.90311  0.01717  0.31816  1.0000
  H   H25       1.0  0.00144  0.06632  0.34756  1.0000
  H   H26       1.0  0.97758  0.09088  0.34478  1.0000
  H   H27       1.0  0.05766  0.06564  0.32212  1.0000
  H   H28       1.0  0.10608  0.08929  0.31818  1.0000
  H   H29       1.0  0.10531  0.01482  0.34483  1.0000
  H   H30       1.0  0.05689  0.99096  0.34758  1.0000
  C   C58       1.0  0.44339  0.20079  0.34545  1.0000
  N   N10       1.0  0.41576  0.18752  0.34019  1.0000
  C   C59       1.0  0.40148  0.20098  0.33434  1.0000
  N   N11       1.0  0.41593  0.22879  0.33359  1.0000
  C   C60       1.0  0.44359  0.24311  0.33894  1.0000
  N   N12       1.0  0.45634  0.22834  0.34456  1.0000
  C   C61       1.0  0.37243  0.18643  0.33105  1.0000
  C   C62       1.0  0.35727  0.15836  0.35264  1.0000
  C   C63       1.0  0.32862  0.14412  0.35165  1.0000
  C   C64       1.0  0.31395  0.15728  0.32761  1.0000
  C   C65       1.0  0.32896  0.18521  0.30492  1.0000
  C   C66       1.0  0.35762  0.19954  0.30735  1.0000
  C   C67       1.0  0.45900  0.18746  0.35142  1.0000
  C   C68       1.0  0.44798  0.15954  0.33028  1.0000
  C   C69       1.0  0.46428  0.14720  0.33245  1.0000
  C   C70       1.0  0.49195  0.16222  0.35819  1.0000
  C   C71       1.0  0.50291  0.19000  0.38006  1.0000
  C   C72       1.0  0.48680  0.20233  0.37662  1.0000
  C   C73       1.0  0.45948  0.27214  0.33836  1.0000
  C   C74       1.0  0.48782  0.28533  0.35629  1.0000
  C   C75       1.0  0.50420  0.31373  0.35208  1.0000
  C   C76       1.0  0.49292  0.33020  0.32958  1.0000
  C   C77       1.0  0.46457  0.31745  0.31427  1.0000
  C   C78       1.0  0.44812  0.28883  0.31848  1.0000
  H   H31       1.0  0.45575  0.12708  0.31551  1.0000
  H   H32       1.0  0.42809  0.14804  0.31073  1.0000
  H   H33       1.0  0.52305  0.20183  0.39665  1.0000
  H   H34       1.0  0.49590  0.22255  0.39270  1.0000
  H   H35       1.0  0.49718  0.27445  0.37219  1.0000
  H   H36       1.0  0.52460  0.32229  0.36508  1.0000
  H   H37       1.0  0.42780  0.28027  0.30473  1.0000
  H   H38       1.0  0.45584  0.32887  0.29754  1.0000
  H   H39       1.0  0.36755  0.21977  0.29089  1.0000
  H   H40       1.0  0.31910  0.19556  0.28818  1.0000
  H   H41       1.0  0.31853  0.12384  0.36754  1.0000
  H   H42       1.0  0.36691  0.14792  0.37086  1.0000
  C   C79       1.0  0.79161  0.24298  0.34548  1.0000
  N   N13       1.0  0.80488  0.22862  0.34023  1.0000
  C   C80       1.0  0.79142  0.20088  0.33438  1.0000
  N   N14       1.0  0.76361  0.18752  0.33364  1.0000
  C   C81       1.0  0.74929  0.20086  0.33898  1.0000
  N   N15       1.0  0.76405  0.22838  0.34459  1.0000
  C   C82       1.0  0.80596  0.18638  0.33110  1.0000
  C   C83       1.0  0.83403  0.19929  0.35270  1.0000
  C   C84       1.0  0.84828  0.18488  0.35168  1.0000
  C   C85       1.0  0.83511  0.15705  0.32765  1.0000
  C   C86       1.0  0.80718  0.14413  0.30498  1.0000
  C   C87       1.0  0.79285  0.15846  0.30741  1.0000
  C   C88       1.0  0.80494  0.27193  0.35144  1.0000
  C   C89       1.0  0.83286  0.28881  0.33037  1.0000
  C   C90       1.0  0.84520  0.31746  0.33245  1.0000
  C   C91       1.0  0.83018  0.33012  0.35812  1.0000
  C   C92       1.0  0.80240  0.31330  0.38003  1.0000
  C   C93       1.0  0.79007  0.28485  0.37660  1.0000
  C   C94       1.0  0.72026  0.18773  0.33840  1.0000
  C   C95       1.0  0.70707  0.20288  0.35637  1.0000
  C   C96       1.0  0.67866  0.19085  0.35218  1.0000
  C   C97       1.0  0.66220  0.16311  0.32963  1.0000
  C   C98       1.0  0.67495  0.14752  0.31423  1.0000
  C   C99       1.0  0.70357  0.15968  0.31848  1.0000
  H   H43       1.0  0.86532  0.32905  0.31551  1.0000
  H   H44       1.0  0.84436  0.28042  0.31075  1.0000
  H   H45       1.0  0.79057  0.32160  0.39660  1.0000
  H   H46       1.0  0.76985  0.27373  0.39268  1.0000
  H   H47       1.0  0.71796  0.22312  0.37231  1.0000
  H   H48       1.0  0.67011  0.20269  0.36520  1.0000
  H   H49       1.0  0.71212  0.14791  0.30470  1.0000
  H   H50       1.0  0.66352  0.12736  0.29753  1.0000
  H   H51       1.0  0.77263  0.14816  0.29094  1.0000
  H   H52       1.0  0.79683  0.12392  0.28822  1.0000
  H   H53       1.0  0.86856  0.19507  0.36755  1.0000
  H   H54       1.0  0.84448  0.21937  0.37088  1.0000
  C   C100      1.0  0.74942  0.54902  0.34547  1.0000
  N   N16       1.0  0.76377  0.57664  0.34021  1.0000
  C   C101      1.0  0.79152  0.59093  0.33435  1.0000
  N   N17       1.0  0.80487  0.57647  0.33359  1.0000
  C   C102      1.0  0.79154  0.54881  0.33894  1.0000
  N   N18       1.0  0.76402  0.53606  0.34457  1.0000
  C   C103      1.0  0.80602  0.61997  0.33106  1.0000
  C   C104      1.0  0.79311  0.63513  0.35264  1.0000
  C   C105      1.0  0.80752  0.66378  0.35166  1.0000
  C   C106      1.0  0.83534  0.67845  0.32761  1.0000
  C   C107      1.0  0.84826  0.66344  0.30492  1.0000
  C   C108      1.0  0.83394  0.63478  0.30735  1.0000
  C   C109      1.0  0.72047  0.53340  0.35145  1.0000
  C   C110      1.0  0.70358  0.54443  0.33031  1.0000
  C   C111      1.0  0.67493  0.52812  0.33247  1.0000
  C   C112      1.0  0.66228  0.50045  0.35821  1.0000
  C   C113      1.0  0.67911  0.48949  0.38010  1.0000
  C   C114      1.0  0.70755  0.50561  0.37666  1.0000
  C   C115      1.0  0.80467  0.53292  0.33835  1.0000
  C   C116      1.0  0.78952  0.50457  0.35623  1.0000
  C   C117      1.0  0.80155  0.48820  0.35201  1.0000
  C   C118      1.0  0.82930  0.49949  0.32955  1.0000
  C   C119      1.0  0.84490  0.52784  0.31430  1.0000
  C   C120      1.0  0.83272  0.54428  0.31848  1.0000
  H   H55       1.0  0.66334  0.53665  0.31553  1.0000
  H   H56       1.0  0.71197  0.56431  0.31075  1.0000
  H   H57       1.0  0.67080  0.46936  0.39669  1.0000
  H   H58       1.0  0.71867  0.49650  0.39274  1.0000
  H   H59       1.0  0.76927  0.49521  0.37209  1.0000
  H   H60       1.0  0.78970  0.46780  0.36496  1.0000
  H   H61       1.0  0.84450  0.56461  0.30482  1.0000
  H   H62       1.0  0.86505  0.53657  0.29761  1.0000
  H   H63       1.0  0.84424  0.62485  0.29089  1.0000
  H   H64       1.0  0.86848  0.67330  0.28817  1.0000
  H   H65       1.0  0.79733  0.67387  0.36755  1.0000
  H   H66       1.0  0.77303  0.62549  0.37087  1.0000
  C   C121      1.0  0.18295  0.10391  0.39040  1.0000
  C   C122      1.0  0.15432  0.08930  0.39104  1.0000
  H   H67       1.0  0.19298  0.11878  0.43731  1.0000
  H   H68       1.0  0.14436  0.09373  0.43942  1.0000
  C   C123      1.0  0.26984  0.12684  0.40024  1.0000
  C   C124      1.0  0.24121  0.11267  0.39930  1.0000
  H   H69       1.0  0.27960  0.12575  0.45626  1.0000
  H   H70       1.0  0.23104  0.10130  0.45406  1.0000
  C   C125      1.0  0.88849  0.07942  0.39039  1.0000
  C   C126      1.0  0.90310  0.06541  0.39102  1.0000
  H   H71       1.0  0.87362  0.07458  0.43730  1.0000
  H   H72       1.0  0.89867  0.05101  0.43940  1.0000
  C   C127      1.0  0.86556  0.14337  0.40026  1.0000
  C   C128      1.0  0.87973  0.12892  0.39930  1.0000
  H   H73       1.0  0.86665  0.15423  0.45628  1.0000
  H   H74       1.0  0.89110  0.13012  0.45406  1.0000
  C   C129      1.0  0.91297  0.80945  0.39041  1.0000
  C   C130      1.0  0.92699  0.83808  0.39105  1.0000
  H   H75       1.0  0.91782  0.79942  0.43731  1.0000
  H   H76       1.0  0.94138  0.84804  0.43943  1.0000
  C   C131      1.0  0.84902  0.72256  0.40024  1.0000
  C   C132      1.0  0.86347  0.75119  0.39930  1.0000
  H   H77       1.0  0.83816  0.71280  0.45626  1.0000
  H   H78       1.0  0.86228  0.76136  0.45406  1.0000
  C   C133      1.0  0.63355  0.15208  0.32292  1.0000
  C   C134      1.0  0.61518  0.13292  0.38560  1.0000
  C   C135      1.0  0.58779  0.12719  0.38747  1.0000
  C   C136      1.0  0.57849  0.14054  0.32966  1.0000
  C   C137      1.0  0.55340  0.14007  0.34462  1.0000
  C   C138      1.0  0.54865  0.14997  0.42596  1.0000
  C   C139      1.0  0.52661  0.15497  0.43160  1.0000
  C   C140      1.0  0.50945  0.15094  0.35783  1.0000
  H   H79       1.0  0.52426  0.16343  0.48896  1.0000
  H   H80       1.0  0.57500  0.11442  0.43579  1.0000
  N   N19       1.0  0.56715  0.15701  0.49813  1.0000
  N   N20       1.0  0.62495  0.12144  0.44939  1.0000
  O   O13       1.0  0.55546  0.14383  0.56743  1.0000
  O   O14       1.0  0.62256  0.12801  0.52761  1.0000
  O   O15       1.0  0.57883  0.18203  0.51550  1.0000
  O   O16       1.0  0.61248  0.09592  0.44380  1.0000
  C   C141      1.0  0.84033  0.48187  0.32285  1.0000
  C   C142      1.0  0.85947  0.48264  0.38559  1.0000
  C   C143      1.0  0.86521  0.46098  0.38747  1.0000
  C   C144      1.0  0.85187  0.43834  0.32964  1.0000
  C   C145      1.0  0.85234  0.41372  0.34459  1.0000
  C   C146      1.0  0.84243  0.39906  0.42592  1.0000
  C   C147      1.0  0.83743  0.37203  0.43154  1.0000
  C   C148      1.0  0.84147  0.35890  0.35778  1.0000
  H   H81       1.0  0.82896  0.36121  0.48889  1.0000
  H   H82       1.0  0.87796  0.46096  0.43583  1.0000
  N   N21       1.0  0.83537  0.41052  0.49808  1.0000
  N   N22       1.0  0.87094  0.50388  0.44940  1.0000
  O   O17       1.0  0.84854  0.41200  0.56741  1.0000
  O   O18       1.0  0.86436  0.49491  0.52761  1.0000
  O   O19       1.0  0.81035  0.39717  0.51539  1.0000
  O   O20       1.0  0.89647  0.51694  0.44389  1.0000
  C   C149      1.0  0.51053  0.35885  0.32287  1.0000
  C   C150      1.0  0.50976  0.37722  0.38557  1.0000
  C   C151      1.0  0.53141  0.40461  0.38746  1.0000
  C   C152      1.0  0.55407  0.41392  0.32966  1.0000
  C   C153      1.0  0.57869  0.43900  0.34462  1.0000
  C   C154      1.0  0.59333  0.44375  0.42598  1.0000
  C   C155      1.0  0.62037  0.46578  0.43162  1.0000
  C   C156      1.0  0.63351  0.48295  0.35786  1.0000
  H   H83       1.0  0.63118  0.46813  0.48897  1.0000
  H   H84       1.0  0.53144  0.41740  0.43580  1.0000
  N   N23       1.0  0.58187  0.42524  0.49813  1.0000
  N   N24       1.0  0.48851  0.36745  0.44937  1.0000
  O   O21       1.0  0.58038  0.43692  0.56745  1.0000
  O   O22       1.0  0.49747  0.36984  0.52759  1.0000
  O   O23       1.0  0.59522  0.41356  0.51548  1.0000
  O   O24       1.0  0.47546  0.37992  0.44381  1.0000
