data_image0
_chemical_formula_structural       N12C4H2C4H2C4H2C4H2C4H2C4H2C4H2C4H2C4H2C4H2C4H2C4H2C6H3C6H3C6H3C6H3C6H3C6H3C6H3C6H3C6H3C6H3C6H3C6H3C4H2C4H2C4H2C4H2C4H2C4H2N24
_chemical_formula_sum              "N36 C144 H72"
_cell_length_a       37.2493
_cell_length_b       37.2493
_cell_length_c       14.8352
_cell_angle_alpha    90
_cell_angle_beta     90
_cell_angle_gamma    120

_space_group_name_H-M_alt    "P 1"
_space_group_IT_number       1

loop_
  _space_group_symop_operation_xyz
  'x, y, z'

loop_
  _atom_site_type_symbol
  _atom_site_label
  _atom_site_symmetry_multiplicity
  _atom_site_fract_x
  _atom_site_fract_y
  _atom_site_fract_z
  _atom_site_occupancy
  N   N1        1.0  0.21865  0.37732  0.28689  1.0000
  N   N2        1.0  0.23875  0.41807  0.29137  1.0000
  N   N3        1.0  0.62678  0.78280  0.28901  1.0000
  N   N4        1.0  0.58603  0.76211  0.29448  1.0000
  N   N5        1.0  0.17098  0.78509  0.29129  1.0000
  N   N6        1.0  0.19152  0.76494  0.29719  1.0000
  N   N7        1.0  0.84042  0.61936  0.29115  1.0000
  N   N8        1.0  0.81983  0.57865  0.29685  1.0000
  N   N9        1.0  0.38398  0.16211  0.28856  1.0000
  N   N10       1.0  0.42472  0.18208  0.29402  1.0000
  N   N11       1.0  0.79144  0.16311  0.28648  1.0000
  N   N12       1.0  0.77133  0.18376  0.29082  1.0000
  C   C1        1.0  0.22653  0.17611  0.29741  1.0000
  C   C2        1.0  0.19023  0.16192  0.24505  1.0000
  C   C3        1.0  0.16894  0.18414  0.24431  1.0000
  C   C4        1.0  0.18350  0.22066  0.29634  1.0000
  H   H1        1.0  0.14303  0.17347  0.20500  1.0000
  H   H2        1.0  0.17929  0.13587  0.20610  1.0000
  C   C5        1.0  0.82704  0.04180  0.29645  1.0000
  C   C6        1.0  0.84174  0.01989  0.24466  1.0000
  C   C7        1.0  0.82055  0.97638  0.24545  1.0000
  C   C8        1.0  0.78420  0.95422  0.29766  1.0000
  H   H3        1.0  0.83159  0.96132  0.20666  1.0000
  H   H4        1.0  0.86768  0.03518  0.20542  1.0000
  C   C9        1.0  0.96181  0.77602  0.29680  1.0000
  C   C10       1.0  0.98384  0.81209  0.24354  1.0000
  C   C11       1.0  0.02737  0.83394  0.24347  1.0000
  C   C12       1.0  0.04956  0.82007  0.29667  1.0000
  H   H5        1.0  0.04246  0.85971  0.20367  1.0000
  H   H6        1.0  0.96862  0.82263  0.20377  1.0000
  C   C13       1.0  0.78494  0.82153  0.29761  1.0000
  C   C14       1.0  0.82225  0.83687  0.24806  1.0000
  C   C15       1.0  0.84460  0.81566  0.24898  1.0000
  C   C16       1.0  0.82980  0.77865  0.29912  1.0000
  H   H7        1.0  0.87107  0.82708  0.21134  1.0000
  H   H8        1.0  0.83326  0.86312  0.20980  1.0000
  C   C17       1.0  0.18128  0.95501  0.29857  1.0000
  C   C18       1.0  0.16629  0.97717  0.24888  1.0000
  C   C19       1.0  0.18854  0.02072  0.24800  1.0000
  C   C20       1.0  0.22594  0.04277  0.29725  1.0000
  H   H9        1.0  0.17739  0.03592  0.21001  1.0000
  H   H10       1.0  0.13976  0.96207  0.21143  1.0000
  C   C21       1.0  0.04895  0.21695  0.29963  1.0000
  C   C22       1.0  0.02698  0.17910  0.25212  1.0000
  C   C23       1.0  0.98343  0.15725  0.25211  1.0000
  C   C24       1.0  0.96132  0.17297  0.29964  1.0000
  H   H11       1.0  0.96832  0.13045  0.21553  1.0000
  H   H12       1.0  0.04218  0.16753  0.21551  1.0000
  C   C25       1.0  0.22869  0.57352  0.40340  1.0000
  C   C26       1.0  0.20669  0.58182  0.33624  1.0000
  C   C27       1.0  0.20556  0.61938  0.33996  1.0000
  C   C28       1.0  0.22567  0.64764  0.41165  1.0000
  H   H13       1.0  0.19681  0.62878  0.28341  1.0000
  H   H14       1.0  0.19850  0.56532  0.27737  1.0000
  C   C29       1.0  0.43315  0.64390  0.40679  1.0000
  C   C30       1.0  0.42377  0.61540  0.33495  1.0000
  C   C31       1.0  0.38497  0.57784  0.33359  1.0000
  C   C32       1.0  0.35599  0.56929  0.40395  1.0000
  H   H15       1.0  0.37558  0.56133  0.27475  1.0000
  H   H16       1.0  0.44083  0.62480  0.27685  1.0000
  C   C33       1.0  0.35642  0.77397  0.41143  1.0000
  C   C34       1.0  0.38625  0.79618  0.34362  1.0000
  C   C35       1.0  0.42380  0.79505  0.34208  1.0000
  C   C36       1.0  0.43080  0.77178  0.40833  1.0000
  H   H17       1.0  0.44161  0.80470  0.28505  1.0000
  H   H18       1.0  0.37806  0.80632  0.28740  1.0000
  C   C37       1.0  0.78518  0.42673  0.41054  1.0000
  C   C38       1.0  0.80525  0.41854  0.33880  1.0000
  C   C39       1.0  0.80372  0.37966  0.33499  1.0000
  C   C40       1.0  0.78173  0.34946  0.40232  1.0000
  H   H19       1.0  0.81190  0.37129  0.27617  1.0000
  H   H20       1.0  0.81389  0.43661  0.28213  1.0000
  C   C41       1.0  0.58031  0.34666  0.40792  1.0000
  C   C42       1.0  0.58726  0.37697  0.34176  1.0000
  C   C43       1.0  0.62500  0.41549  0.34308  1.0000
  C   C44       1.0  0.65478  0.42303  0.41094  1.0000
  H   H21       1.0  0.63318  0.43386  0.28693  1.0000
  H   H22       1.0  0.56951  0.36879  0.28467  1.0000
  C   C45       1.0  0.65422  0.21820  0.40346  1.0000
  C   C46       1.0  0.62517  0.19781  0.33317  1.0000
  C   C47       1.0  0.58658  0.19703  0.33450  1.0000
  C   C48       1.0  0.57739  0.21624  0.40643  1.0000
  H   H23       1.0  0.56944  0.18933  0.27650  1.0000
  H   H24       1.0  0.63452  0.19073  0.27425  1.0000
  C   C49       1.0  0.09335  0.24038  0.30374  1.0000
  C   C50       1.0  0.11730  0.22059  0.30244  1.0000
  C   C51       1.0  0.16120  0.24274  0.30238  1.0000
  C   C52       1.0  0.18140  0.28656  0.30903  1.0000
  C   C53       1.0  0.15896  0.30812  0.31340  1.0000
  C   C54       1.0  0.11498  0.28413  0.30941  1.0000
  H   H25       1.0  0.21312  0.30306  0.31045  1.0000
  H   H26       1.0  0.09802  0.29884  0.30736  1.0000
  H   H27       1.0  0.10221  0.18889  0.30374  1.0000
  C   C55       1.0  0.76199  0.84304  0.30268  1.0000
  C   C56       1.0  0.78298  0.88696  0.30116  1.0000
  C   C57       1.0  0.76202  0.90983  0.30308  1.0000
  C   C58       1.0  0.71838  0.88721  0.31058  1.0000
  C   C59       1.0  0.69557  0.84322  0.31543  1.0000
  C   C60       1.0  0.71815  0.82183  0.31057  1.0000
  H   H28       1.0  0.70284  0.90338  0.30916  1.0000
  H   H29       1.0  0.70235  0.79011  0.31301  1.0000
  H   H30       1.0  0.81469  0.90295  0.30118  1.0000
  C   C61       1.0  0.15976  0.91054  0.30332  1.0000
  C   C62       1.0  0.11595  0.88667  0.30074  1.0000
  C   C63       1.0  0.09400  0.84271  0.30266  1.0000
  C   C64       1.0  0.11753  0.82249  0.31120  1.0000
  C   C65       1.0  0.16150  0.84484  0.31598  1.0000
  C   C66       1.0  0.18166  0.88878  0.31093  1.0000
  H   H31       1.0  0.10226  0.79077  0.31373  1.0000
  H   H32       1.0  0.21335  0.90559  0.30949  1.0000
  H   H33       1.0  0.09945  0.90187  0.30014  1.0000
  C   C67       1.0  0.91737  0.75405  0.30300  1.0000
  C   C68       1.0  0.89528  0.77592  0.30113  1.0000
  C   C69       1.0  0.85147  0.75586  0.30396  1.0000
  C   C70       1.0  0.82971  0.71220  0.31185  1.0000
  C   C71       1.0  0.85003  0.68858  0.31683  1.0000
  C   C72       1.0  0.89399  0.71031  0.31172  1.0000
  H   H34       1.0  0.79801  0.69721  0.31070  1.0000
  H   H35       1.0  0.90935  0.69395  0.31419  1.0000
  H   H36       1.0  0.91167  0.80762  0.30037  1.0000
  C   C73       1.0  0.24876  0.15397  0.30280  1.0000
  C   C74       1.0  0.22784  0.11014  0.30083  1.0000
  C   C75       1.0  0.24885  0.08724  0.30229  1.0000
  C   C76       1.0  0.29269  0.10990  0.31008  1.0000
  C   C77       1.0  0.31526  0.15387  0.31493  1.0000
  C   C78       1.0  0.29241  0.17501  0.31020  1.0000
  H   H37       1.0  0.30851  0.09399  0.31245  1.0000
  H   H38       1.0  0.30792  0.20673  0.30882  1.0000
  H   H39       1.0  0.19613  0.09440  0.30099  1.0000
  C   C79       1.0  0.84920  0.08618  0.30238  1.0000
  C   C80       1.0  0.89310  0.10808  0.30241  1.0000
  C   C81       1.0  0.91691  0.15183  0.30372  1.0000
  C   C82       1.0  0.89514  0.17380  0.30937  1.0000
  C   C83       1.0  0.85116  0.15367  0.31342  1.0000
  C   C84       1.0  0.82886  0.10966  0.30904  1.0000
  H   H40       1.0  0.91199  0.20548  0.30742  1.0000
  H   H41       1.0  0.79713  0.09435  0.31049  1.0000
  H   H42       1.0  0.90830  0.09158  0.30375  1.0000
  C   C85       1.0  0.31220  0.54518  0.39270  1.0000
  C   C86       1.0  0.28843  0.56376  0.41778  1.0000
  C   C87       1.0  0.24663  0.54794  0.39141  1.0000
  C   C88       1.0  0.22680  0.50874  0.34924  1.0000
  C   C89       1.0  0.24675  0.48479  0.33999  1.0000
  C   C90       1.0  0.29054  0.50547  0.35203  1.0000
  H   H43       1.0  0.19603  0.49590  0.33371  1.0000
  H   H44       1.0  0.30623  0.48980  0.34140  1.0000
  H   H45       1.0  0.30393  0.59332  0.44301  1.0000
  C   C91       1.0  0.45630  0.75377  0.39663  1.0000
  C   C92       1.0  0.44000  0.71179  0.42177  1.0000
  C   C93       1.0  0.45822  0.68770  0.39675  1.0000
  C   C94       1.0  0.49818  0.70929  0.35704  1.0000
  C   C95       1.0  0.51918  0.75315  0.34558  1.0000
  C   C96       1.0  0.49553  0.77340  0.35483  1.0000
  H   H46       1.0  0.51367  0.69346  0.34591  1.0000
  H   H47       1.0  0.50862  0.80424  0.33965  1.0000
  H   H48       1.0  0.41028  0.69644  0.44598  1.0000
  C   C97       1.0  0.24445  0.69148  0.40241  1.0000
  C   C98       1.0  0.28668  0.71540  0.42789  1.0000
  C   C99       1.0  0.31292  0.75708  0.40137  1.0000
  C   C100      1.0  0.29366  0.77690  0.35872  1.0000
  C   C101      1.0  0.24978  0.75692  0.34879  1.0000
  C   C102      1.0  0.22657  0.71312  0.36091  1.0000
  H   H49       1.0  0.31169  0.80758  0.34254  1.0000
  H   H50       1.0  0.19531  0.69743  0.34926  1.0000
  H   H51       1.0  0.30071  0.69994  0.45315  1.0000
  C   C103      1.0  0.69829  0.44950  0.40070  1.0000
  C   C104      1.0  0.72432  0.43372  0.42656  1.0000
  C   C105      1.0  0.76656  0.45192  0.40121  1.0000
  C   C106      1.0  0.78465  0.49157  0.36030  1.0000
  C   C107      1.0  0.76162  0.51236  0.34857  1.0000
  C   C108      1.0  0.71771  0.48862  0.35826  1.0000
  H   H52       1.0  0.81594  0.50709  0.34893  1.0000
  H   H53       1.0  0.69985  0.50155  0.34281  1.0000
  H   H54       1.0  0.71017  0.40415  0.45139  1.0000
  C   C109      1.0  0.55234  0.23502  0.39660  1.0000
  C   C110      1.0  0.57065  0.27730  0.42194  1.0000
  C   C111      1.0  0.55462  0.30316  0.39629  1.0000
  C   C112      1.0  0.51547  0.28375  0.35412  1.0000
  C   C113      1.0  0.49166  0.23985  0.34496  1.0000
  C   C114      1.0  0.51252  0.21685  0.35621  1.0000
  H   H55       1.0  0.50247  0.30160  0.33915  1.0000
  H   H56       1.0  0.49690  0.18553  0.34529  1.0000
  H   H57       1.0  0.60032  0.29158  0.44637  1.0000
  C   C115      1.0  0.76370  0.30591  0.39054  1.0000
  C   C116      1.0  0.72190  0.28007  0.41711  1.0000
  C   C117      1.0  0.69800  0.23771  0.39214  1.0000
  C   C118      1.0  0.71953  0.21951  0.35151  1.0000
  C   C119      1.0  0.76332  0.24250  0.33936  1.0000
  C   C120      1.0  0.78337  0.28642  0.34819  1.0000
  H   H58       1.0  0.70377  0.18814  0.34110  1.0000
  H   H59       1.0  0.81417  0.30427  0.33284  1.0000
  H   H60       1.0  0.70651  0.29426  0.44217  1.0000
  C   C121      1.0  0.22277  0.44052  0.32895  1.0000
  C   C122      1.0  0.18292  0.41697  0.36794  1.0000
  C   C123      1.0  0.16164  0.37351  0.36378  1.0000
  C   C124      1.0  0.17971  0.35259  0.32040  1.0000
  H   H61       1.0  0.13362  0.35759  0.39563  1.0000
  H   H62       1.0  0.16963  0.43082  0.40357  1.0000
  C   C125      1.0  0.56343  0.77721  0.33506  1.0000
  C   C126      1.0  0.58672  0.81659  0.37633  1.0000
  C   C127      1.0  0.63012  0.83849  0.37097  1.0000
  C   C128      1.0  0.65120  0.82147  0.32424  1.0000
  H   H63       1.0  0.64593  0.86624  0.40396  1.0000
  H   H64       1.0  0.57273  0.82915  0.41395  1.0000
  C   C129      1.0  0.22963  0.78089  0.33630  1.0000
  C   C130      1.0  0.24576  0.82074  0.37516  1.0000
  C   C131      1.0  0.22368  0.84207  0.36949  1.0000
  C   C132      1.0  0.18503  0.82403  0.32468  1.0000
  H   H65       1.0  0.23558  0.87010  0.40122  1.0000
  H   H66       1.0  0.27263  0.83397  0.41172  1.0000
  C   C133      1.0  0.78194  0.55653  0.33689  1.0000
  C   C134      1.0  0.76611  0.58026  0.37701  1.0000
  C   C135      1.0  0.78823  0.62367  0.37156  1.0000
  C   C136      1.0  0.82661  0.64424  0.32568  1.0000
  H   H67       1.0  0.77655  0.63984  0.40401  1.0000
  H   H68       1.0  0.73941  0.56661  0.41416  1.0000
  C   C137      1.0  0.44741  0.21981  0.33443  1.0000
  C   C138      1.0  0.42421  0.23607  0.37537  1.0000
  C   C139      1.0  0.38080  0.21466  0.37001  1.0000
  C   C140      1.0  0.35964  0.17648  0.32359  1.0000
  H   H69       1.0  0.36506  0.22672  0.40285  1.0000
  H   H70       1.0  0.43826  0.26267  0.41283  1.0000
  C   C141      1.0  0.78722  0.22212  0.32871  1.0000
  C   C142      1.0  0.82694  0.23832  0.36832  1.0000
  C   C143      1.0  0.84823  0.21615  0.36434  1.0000
  C   C144      1.0  0.83029  0.17727  0.32049  1.0000
  H   H71       1.0  0.87616  0.22818  0.39652  1.0000
  H   H72       1.0  0.84013  0.26539  0.40419  1.0000
  N   N13       1.0  0.21939  0.23306  0.34277  1.0000
  N   N14       1.0  0.23943  0.21234  0.34308  1.0000
  N   N15       1.0  0.77118  0.97749  0.34312  1.0000
  N   N16       1.0  0.79112  0.01825  0.34275  1.0000
  N   N17       1.0  0.02617  0.78424  0.34358  1.0000
  N   N18       1.0  0.98536  0.76376  0.34364  1.0000
  N   N19       1.0  0.79301  0.76523  0.34276  1.0000
  N   N20       1.0  0.77218  0.78513  0.34223  1.0000
  N   N21       1.0  0.23888  0.01918  0.34147  1.0000
  N   N22       1.0  0.21815  0.97844  0.34192  1.0000
  N   N23       1.0  0.98472  0.21008  0.34188  1.0000
  N   N24       1.0  0.02542  0.23051  0.34187  1.0000
  N   N25       1.0  0.24053  0.63370  0.47859  1.0000
  N   N26       1.0  0.24219  0.59979  0.47478  1.0000
  N   N27       1.0  0.36999  0.59600  0.47467  1.0000
  N   N28       1.0  0.40546  0.63018  0.47591  1.0000
  N   N29       1.0  0.40309  0.75678  0.47704  1.0000
  N   N30       1.0  0.36892  0.75789  0.47846  1.0000
  N   N31       1.0  0.76846  0.36237  0.47384  1.0000
  N   N32       1.0  0.77029  0.39802  0.47763  1.0000
  N   N33       1.0  0.64222  0.39452  0.47812  1.0000
  N   N34       1.0  0.60798  0.35930  0.47671  1.0000
  N   N35       1.0  0.60503  0.23001  0.47561  1.0000
  N   N36       1.0  0.64038  0.23104  0.47425  1.0000
