data_image0
_chemical_formula_structural       C2HC2HN2C4H2C2H2CHC4H2C2H2CHC4H2C4H2N2C6H4CHC6H4CHC2HC2HN2C4H2C2H2CHC4H2C2H2CHC4H2C4H2N2C6H4CHC6H4CHC2HC2HN2C4H2C2H2CHC4H2C2H2CHC4H2C4H2N2C6H4CHC6H4CHC2HC2HN2C4H2C2H2CHC4H2C2H2CHC4H2C4H2N2C6H4CHC6H4CH
_chemical_formula_sum              "C160 H104 N16"
_cell_length_a       39.4658
_cell_length_b       39.4658
_cell_length_c       15.0742
_cell_angle_alpha    90
_cell_angle_beta     90
_cell_angle_gamma    90

_space_group_name_H-M_alt    "P 1"
_space_group_IT_number       1

loop_
  _space_group_symop_operation_xyz
  'x, y, z'

loop_
  _atom_site_type_symbol
  _atom_site_label
  _atom_site_symmetry_multiplicity
  _atom_site_fract_x
  _atom_site_fract_y
  _atom_site_fract_z
  _atom_site_occupancy
  C   C1        1.0  0.00276  0.04399  0.30152  1.0000
  C   C2        1.0  0.02792  0.06941  0.30246  1.0000
  H   H1        1.0  0.47921  0.05047  0.27945  1.0000
  C   C3        1.0  0.46702  0.42400  0.32109  1.0000
  C   C4        1.0  0.49199  0.44956  0.31661  1.0000
  H   H2        1.0  0.01605  0.44251  0.30045  1.0000
  N   N1        1.0  0.47298  0.39065  0.30748  1.0000
  N   N2        1.0  0.02267  0.10219  0.28079  1.0000
  C   C5        1.0  0.49779  0.15570  0.24351  1.0000
  C   C6        1.0  0.49925  0.22881  0.24243  1.0000
  C   C7        1.0  0.46938  0.21027  0.22170  1.0000
  C   C8        1.0  0.46865  0.17463  0.22150  1.0000
  H   H3        1.0  0.44749  0.22239  0.20444  1.0000
  H   H4        1.0  0.94621  0.16268  0.20787  1.0000
  C   C9        1.0  0.96967  0.31871  0.28136  1.0000
  C   C10       1.0  0.96937  0.28345  0.26825  1.0000
  H   H5        1.0  0.94730  0.33043  0.29676  1.0000
  H   H6        1.0  0.94681  0.27142  0.27856  1.0000
  C   C11       1.0  0.99576  0.12021  0.25213  1.0000
  H   H7        1.0  0.97308  0.10822  0.24245  1.0000
  C   C12       1.0  0.33748  0.50150  0.38637  1.0000
  C   C13       1.0  0.26471  0.49976  0.41088  1.0000
  C   C14       1.0  0.28234  0.53004  0.38808  1.0000
  C   C15       1.0  0.31772  0.53106  0.37700  1.0000
  H   H8        1.0  0.26977  0.55190  0.37367  1.0000
  H   H9        1.0  0.32870  0.05340  0.35780  1.0000
  C   C16       1.0  0.17255  0.02691  0.41550  1.0000
  C   C17       1.0  0.20809  0.02804  0.41994  1.0000
  H   H10       1.0  0.15953  0.04933  0.41604  1.0000
  H   H11       1.0  0.21859  0.05150  0.42641  1.0000
  C   C18       1.0  0.37259  0.00260  0.36978  1.0000
  H   H12       1.0  0.38382  0.02527  0.35510  1.0000
  C   C19       1.0  0.00989  0.00989  0.32554  1.0000
  C   C20       1.0  0.06093  0.06098  0.32945  1.0000
  C   C21       1.0  0.06932  0.02757  0.35270  1.0000
  C   C22       1.0  0.04393  0.00241  0.34963  1.0000
  H   H13       1.0  0.05015  0.47881  0.37178  1.0000
  H   H14       1.0  0.07930  0.07937  0.33073  1.0000
  C   C23       1.0  0.48413  0.48446  0.32720  1.0000
  C   C24       1.0  0.44945  0.49269  0.34091  1.0000
  C   C25       1.0  0.42416  0.46752  0.34826  1.0000
  C   C26       1.0  0.43334  0.43329  0.33898  1.0000
  H   H15       1.0  0.44259  0.01713  0.35332  1.0000
  H   H16       1.0  0.41502  0.41491  0.34268  1.0000
  N   N3        1.0  0.39103  0.47386  0.36393  1.0000
  N   N4        1.0  0.10199  0.02193  0.37512  1.0000
  C   C27       1.0  0.52810  0.17367  0.26031  1.0000
  C   C28       1.0  0.52879  0.20925  0.25919  1.0000
  C   C29       1.0  0.49944  0.26491  0.24986  1.0000
  C   C30       1.0  0.52973  0.28423  0.24293  1.0000
  C   C31       1.0  0.53010  0.31957  0.25471  1.0000
  C   C32       1.0  0.50011  0.33741  0.27512  1.0000
  H   H17       1.0  0.55215  0.27313  0.22571  1.0000
  H   H18       1.0  0.55268  0.33214  0.24842  1.0000
  H   H19       1.0  0.54988  0.16115  0.27714  1.0000
  H   H20       1.0  0.55098  0.22041  0.27815  1.0000
  C   C33       1.0  0.50120  0.37272  0.28827  1.0000
  H   H21       1.0  0.52385  0.38510  0.28238  1.0000
  C   C34       1.0  0.32074  0.47135  0.41133  1.0000
  C   C35       1.0  0.28547  0.47071  0.42415  1.0000
  C   C36       1.0  0.22845  0.49831  0.41639  1.0000
  C   C37       1.0  0.21027  0.46712  0.41482  1.0000
  C   C38       1.0  0.17466  0.46576  0.41206  1.0000
  C   C39       1.0  0.15521  0.49570  0.40908  1.0000
  H   H22       1.0  0.22241  0.44444  0.40930  1.0000
  H   H23       1.0  0.16320  0.44256  0.40664  1.0000
  H   H24       1.0  0.33406  0.44943  0.42126  1.0000
  H   H25       1.0  0.27554  0.44824  0.44503  1.0000
  C   C40       1.0  0.11992  0.49389  0.39586  1.0000
  H   H26       1.0  0.10839  0.47072  0.39216  1.0000
  C   C41       1.0  0.00276  0.54400  0.30152  1.0000
  C   C42       1.0  0.02792  0.56941  0.30246  1.0000
  H   H27       1.0  0.47921  0.55047  0.27945  1.0000
  C   C43       1.0  0.46702  0.92400  0.32109  1.0000
  C   C44       1.0  0.49199  0.94956  0.31661  1.0000
  H   H28       1.0  0.01605  0.94251  0.30045  1.0000
  N   N5        1.0  0.47298  0.89065  0.30748  1.0000
  N   N6        1.0  0.02267  0.60219  0.28079  1.0000
  C   C45       1.0  0.49779  0.65570  0.24351  1.0000
  C   C46       1.0  0.49925  0.72881  0.24243  1.0000
  C   C47       1.0  0.46938  0.71027  0.22170  1.0000
  C   C48       1.0  0.46865  0.67463  0.22150  1.0000
  H   H29       1.0  0.44749  0.72239  0.20444  1.0000
  H   H30       1.0  0.94621  0.66268  0.20787  1.0000
  C   C49       1.0  0.96967  0.81871  0.28136  1.0000
  C   C50       1.0  0.96937  0.78345  0.26825  1.0000
  H   H31       1.0  0.94730  0.83044  0.29676  1.0000
  H   H32       1.0  0.94681  0.77142  0.27856  1.0000
  C   C51       1.0  0.99576  0.62021  0.25213  1.0000
  H   H33       1.0  0.97308  0.60823  0.24245  1.0000
  C   C52       1.0  0.33748  0.00151  0.38637  1.0000
  C   C53       1.0  0.26471  0.99976  0.41088  1.0000
  C   C54       1.0  0.28234  0.03004  0.38808  1.0000
  C   C55       1.0  0.31772  0.03105  0.37700  1.0000
  H   H34       1.0  0.26977  0.05190  0.37367  1.0000
  H   H35       1.0  0.32870  0.55340  0.35780  1.0000
  C   C56       1.0  0.17255  0.52691  0.41550  1.0000
  C   C57       1.0  0.20809  0.52804  0.41994  1.0000
  H   H36       1.0  0.15953  0.54934  0.41604  1.0000
  H   H37       1.0  0.21859  0.55151  0.42641  1.0000
  C   C58       1.0  0.37259  0.50260  0.36978  1.0000
  H   H38       1.0  0.38382  0.52527  0.35510  1.0000
  C   C59       1.0  0.00989  0.50989  0.32554  1.0000
  C   C60       1.0  0.06093  0.56098  0.32945  1.0000
  C   C61       1.0  0.06932  0.52757  0.35270  1.0000
  C   C62       1.0  0.04393  0.50241  0.34963  1.0000
  H   H39       1.0  0.05015  0.97881  0.37178  1.0000
  H   H40       1.0  0.07930  0.57937  0.33073  1.0000
  C   C63       1.0  0.48413  0.98447  0.32720  1.0000
  C   C64       1.0  0.44945  0.99269  0.34091  1.0000
  C   C65       1.0  0.42416  0.96752  0.34826  1.0000
  C   C66       1.0  0.43334  0.93329  0.33898  1.0000
  H   H41       1.0  0.44259  0.51713  0.35332  1.0000
  H   H42       1.0  0.41502  0.91491  0.34268  1.0000
  N   N7        1.0  0.39103  0.97386  0.36393  1.0000
  N   N8        1.0  0.10199  0.52193  0.37512  1.0000
  C   C67       1.0  0.52810  0.67367  0.26031  1.0000
  C   C68       1.0  0.52879  0.70925  0.25919  1.0000
  C   C69       1.0  0.49944  0.76491  0.24986  1.0000
  C   C70       1.0  0.52973  0.78423  0.24293  1.0000
  C   C71       1.0  0.53010  0.81957  0.25471  1.0000
  C   C72       1.0  0.50011  0.83741  0.27512  1.0000
  H   H43       1.0  0.55215  0.77313  0.22571  1.0000
  H   H44       1.0  0.55268  0.83214  0.24842  1.0000
  H   H45       1.0  0.54988  0.66116  0.27714  1.0000
  H   H46       1.0  0.55098  0.72041  0.27815  1.0000
  C   C73       1.0  0.50120  0.87272  0.28827  1.0000
  H   H47       1.0  0.52385  0.88510  0.28238  1.0000
  C   C74       1.0  0.32074  0.97135  0.41133  1.0000
  C   C75       1.0  0.28547  0.97071  0.42415  1.0000
  C   C76       1.0  0.22845  0.99831  0.41639  1.0000
  C   C77       1.0  0.21027  0.96712  0.41482  1.0000
  C   C78       1.0  0.17466  0.96576  0.41206  1.0000
  C   C79       1.0  0.15521  0.99570  0.40908  1.0000
  H   H48       1.0  0.22241  0.94444  0.40930  1.0000
  H   H49       1.0  0.16320  0.94256  0.40664  1.0000
  H   H50       1.0  0.33406  0.94943  0.42126  1.0000
  H   H51       1.0  0.27554  0.94824  0.44503  1.0000
  C   C80       1.0  0.11992  0.99389  0.39586  1.0000
  H   H52       1.0  0.10839  0.97072  0.39216  1.0000
  C   C81       1.0  0.50276  0.04399  0.30152  1.0000
  C   C82       1.0  0.52792  0.06941  0.30246  1.0000
  H   H53       1.0  0.97921  0.05047  0.27945  1.0000
  C   C83       1.0  0.96702  0.42400  0.32109  1.0000
  C   C84       1.0  0.99199  0.44956  0.31661  1.0000
  H   H54       1.0  0.51604  0.44251  0.30045  1.0000
  N   N9        1.0  0.97298  0.39065  0.30748  1.0000
  N   N10       1.0  0.52267  0.10219  0.28079  1.0000
  C   C85       1.0  0.99779  0.15570  0.24351  1.0000
  C   C86       1.0  0.99925  0.22881  0.24243  1.0000
  C   C87       1.0  0.96938  0.21027  0.22170  1.0000
  C   C88       1.0  0.96865  0.17463  0.22150  1.0000
  H   H55       1.0  0.94749  0.22239  0.20444  1.0000
  H   H56       1.0  0.44621  0.16268  0.20787  1.0000
  C   C89       1.0  0.46967  0.31871  0.28136  1.0000
  C   C90       1.0  0.46937  0.28345  0.26825  1.0000
  H   H57       1.0  0.44730  0.33043  0.29676  1.0000
  H   H58       1.0  0.44681  0.27142  0.27856  1.0000
  C   C91       1.0  0.49576  0.12021  0.25213  1.0000
  H   H59       1.0  0.47308  0.10822  0.24245  1.0000
  C   C92       1.0  0.83748  0.50150  0.38637  1.0000
  C   C93       1.0  0.76471  0.49976  0.41088  1.0000
  C   C94       1.0  0.78234  0.53004  0.38808  1.0000
  C   C95       1.0  0.81772  0.53106  0.37700  1.0000
  H   H60       1.0  0.76977  0.55190  0.37367  1.0000
  H   H61       1.0  0.82870  0.05340  0.35780  1.0000
  C   C96       1.0  0.67254  0.02691  0.41550  1.0000
  C   C97       1.0  0.70809  0.02804  0.41994  1.0000
  H   H62       1.0  0.65953  0.04933  0.41604  1.0000
  H   H63       1.0  0.71859  0.05150  0.42641  1.0000
  C   C98       1.0  0.87259  0.00260  0.36978  1.0000
  H   H64       1.0  0.88382  0.02527  0.35510  1.0000
  C   C99       1.0  0.50989  0.00989  0.32554  1.0000
  C   C100      1.0  0.56093  0.06098  0.32945  1.0000
  C   C101      1.0  0.56932  0.02757  0.35270  1.0000
  C   C102      1.0  0.54393  0.00241  0.34963  1.0000
  H   H65       1.0  0.55015  0.47881  0.37178  1.0000
  H   H66       1.0  0.57930  0.07937  0.33073  1.0000
  C   C103      1.0  0.98413  0.48446  0.32720  1.0000
  C   C104      1.0  0.94945  0.49269  0.34091  1.0000
  C   C105      1.0  0.92416  0.46752  0.34826  1.0000
  C   C106      1.0  0.93333  0.43329  0.33898  1.0000
  H   H67       1.0  0.94259  0.01713  0.35332  1.0000
  H   H68       1.0  0.91502  0.41491  0.34268  1.0000
  N   N11       1.0  0.89102  0.47386  0.36393  1.0000
  N   N12       1.0  0.60199  0.02193  0.37512  1.0000
  C   C107      1.0  0.02810  0.17367  0.26031  1.0000
  C   C108      1.0  0.02879  0.20925  0.25919  1.0000
  C   C109      1.0  0.99944  0.26491  0.24986  1.0000
  C   C110      1.0  0.02973  0.28423  0.24293  1.0000
  C   C111      1.0  0.03010  0.31957  0.25471  1.0000
  C   C112      1.0  0.00011  0.33741  0.27512  1.0000
  H   H69       1.0  0.05215  0.27313  0.22571  1.0000
  H   H70       1.0  0.05268  0.33214  0.24842  1.0000
  H   H71       1.0  0.04988  0.16115  0.27714  1.0000
  H   H72       1.0  0.05097  0.22041  0.27815  1.0000
  C   C113      1.0  0.00120  0.37272  0.28827  1.0000
  H   H73       1.0  0.02385  0.38510  0.28238  1.0000
  C   C114      1.0  0.82074  0.47135  0.41133  1.0000
  C   C115      1.0  0.78546  0.47071  0.42415  1.0000
  C   C116      1.0  0.72845  0.49831  0.41639  1.0000
  C   C117      1.0  0.71027  0.46712  0.41482  1.0000
  C   C118      1.0  0.67466  0.46576  0.41206  1.0000
  C   C119      1.0  0.65520  0.49570  0.40908  1.0000
  H   H74       1.0  0.72241  0.44444  0.40930  1.0000
  H   H75       1.0  0.66320  0.44256  0.40664  1.0000
  H   H76       1.0  0.83406  0.44943  0.42126  1.0000
  H   H77       1.0  0.77554  0.44824  0.44503  1.0000
  C   C120      1.0  0.61992  0.49389  0.39586  1.0000
  H   H78       1.0  0.60839  0.47072  0.39216  1.0000
  C   C121      1.0  0.50276  0.54400  0.30152  1.0000
  C   C122      1.0  0.52792  0.56941  0.30246  1.0000
  H   H79       1.0  0.97921  0.55047  0.27945  1.0000
  C   C123      1.0  0.96702  0.92400  0.32109  1.0000
  C   C124      1.0  0.99199  0.94956  0.31661  1.0000
  H   H80       1.0  0.51604  0.94251  0.30045  1.0000
  N   N13       1.0  0.97298  0.89065  0.30748  1.0000
  N   N14       1.0  0.52267  0.60219  0.28079  1.0000
  C   C125      1.0  0.99779  0.65570  0.24351  1.0000
  C   C126      1.0  0.99925  0.72881  0.24243  1.0000
  C   C127      1.0  0.96938  0.71027  0.22170  1.0000
  C   C128      1.0  0.96865  0.67463  0.22150  1.0000
  H   H81       1.0  0.94749  0.72239  0.20444  1.0000
  H   H82       1.0  0.44621  0.66268  0.20787  1.0000
  C   C129      1.0  0.46967  0.81871  0.28136  1.0000
  C   C130      1.0  0.46937  0.78345  0.26825  1.0000
  H   H83       1.0  0.44730  0.83044  0.29676  1.0000
  H   H84       1.0  0.44681  0.77142  0.27856  1.0000
  C   C131      1.0  0.49576  0.62021  0.25213  1.0000
  H   H85       1.0  0.47308  0.60823  0.24245  1.0000
  C   C132      1.0  0.83748  0.00151  0.38637  1.0000
  C   C133      1.0  0.76471  0.99976  0.41088  1.0000
  C   C134      1.0  0.78234  0.03004  0.38808  1.0000
  C   C135      1.0  0.81772  0.03105  0.37700  1.0000
  H   H86       1.0  0.76977  0.05190  0.37367  1.0000
  H   H87       1.0  0.82870  0.55340  0.35780  1.0000
  C   C136      1.0  0.67254  0.52691  0.41550  1.0000
  C   C137      1.0  0.70809  0.52804  0.41994  1.0000
  H   H88       1.0  0.65953  0.54934  0.41604  1.0000
  H   H89       1.0  0.71859  0.55151  0.42641  1.0000
  C   C138      1.0  0.87259  0.50260  0.36978  1.0000
  H   H90       1.0  0.88382  0.52527  0.35510  1.0000
  C   C139      1.0  0.50989  0.50989  0.32554  1.0000
  C   C140      1.0  0.56093  0.56098  0.32945  1.0000
  C   C141      1.0  0.56932  0.52757  0.35270  1.0000
  C   C142      1.0  0.54393  0.50241  0.34963  1.0000
  H   H91       1.0  0.55015  0.97881  0.37178  1.0000
  H   H92       1.0  0.57930  0.57937  0.33073  1.0000
  C   C143      1.0  0.98413  0.98447  0.32720  1.0000
  C   C144      1.0  0.94945  0.99269  0.34091  1.0000
  C   C145      1.0  0.92416  0.96752  0.34826  1.0000
  C   C146      1.0  0.93333  0.93329  0.33898  1.0000
  H   H93       1.0  0.94259  0.51713  0.35332  1.0000
  H   H94       1.0  0.91502  0.91491  0.34268  1.0000
  N   N15       1.0  0.89102  0.97386  0.36393  1.0000
  N   N16       1.0  0.60199  0.52193  0.37512  1.0000
  C   C147      1.0  0.02810  0.67367  0.26031  1.0000
  C   C148      1.0  0.02879  0.70925  0.25919  1.0000
  C   C149      1.0  0.99944  0.76491  0.24986  1.0000
  C   C150      1.0  0.02973  0.78423  0.24293  1.0000
  C   C151      1.0  0.03010  0.81957  0.25471  1.0000
  C   C152      1.0  0.00011  0.83741  0.27512  1.0000
  H   H95       1.0  0.05215  0.77313  0.22571  1.0000
  H   H96       1.0  0.05268  0.83214  0.24842  1.0000
  H   H97       1.0  0.04988  0.66116  0.27714  1.0000
  H   H98       1.0  0.05097  0.72041  0.27815  1.0000
  C   C153      1.0  0.00120  0.87272  0.28827  1.0000
  H   H99       1.0  0.02385  0.88510  0.28238  1.0000
  C   C154      1.0  0.82074  0.97135  0.41133  1.0000
  C   C155      1.0  0.78546  0.97071  0.42415  1.0000
  C   C156      1.0  0.72845  0.99831  0.41639  1.0000
  C   C157      1.0  0.71027  0.96712  0.41482  1.0000
  C   C158      1.0  0.67466  0.96576  0.41206  1.0000
  C   C159      1.0  0.65520  0.99570  0.40908  1.0000
  H   H100      1.0  0.72241  0.94444  0.40930  1.0000
  H   H101      1.0  0.66320  0.94256  0.40664  1.0000
  H   H102      1.0  0.83406  0.94943  0.42126  1.0000
  H   H103      1.0  0.77554  0.94824  0.44503  1.0000
  C   C160      1.0  0.61992  0.99389  0.39586  1.0000
  H   H104      1.0  0.60839  0.97072  0.39216  1.0000
