data_image0
_chemical_formula_structural       C7H2CH2NHC3H2CH2NHC3H2CH2NHC5H3C2O3C5H3C2O3C3NC2NHNH2NHC3NC2NHNH2NHC3NC2NHNH2NHC7H2CH2NHC3H2CH2NHC3H2CH2NHC5H3C2O3C5H3C2O3C3NC2NHNH2NHC3NC2NHNH2NHC3NC2NHNH2NHC7H2CH2NHC3H2CH2NHC3H2CH2NHC5H3C2O3C5H3C2O3C3NC2NHNH2NHC3NC2NHNH2NHC3NC2NHNH2NHC7H2CH2NHC3H2CH2NHC3H2CH2NHC5H3C2O3C5H3C2O3C3NC2NHNH2NHC3NC2NHNH2NHC3NC2NHNH2NH
_chemical_formula_sum              "C180 H132 N60 O24"
_cell_length_a       43.8488
_cell_length_b       43.8489
_cell_length_c       15.0311
_cell_angle_alpha    90
_cell_angle_beta     90
_cell_angle_gamma    120

_space_group_name_H-M_alt    "P 1"
_space_group_IT_number       1

loop_
  _space_group_symop_operation_xyz
  'x, y, z'

loop_
  _atom_site_type_symbol
  _atom_site_label
  _atom_site_symmetry_multiplicity
  _atom_site_fract_x
  _atom_site_fract_y
  _atom_site_fract_z
  _atom_site_occupancy
  C   C1        1.0  0.19574  0.32851  0.39608  1.0000
  C   C2        1.0  0.22607  0.32481  0.39094  1.0000
  C   C3        1.0  0.31091  0.18243  0.27291  1.0000
  C   C4        1.0  0.29018  0.19856  0.28739  1.0000
  C   C5        1.0  0.28693  0.25070  0.32462  1.0000
  C   C6        1.0  0.27027  0.29634  0.31446  1.0000
  C   C7        1.0  0.28941  0.28072  0.28281  1.0000
  H   H1        1.0  0.30243  0.28931  0.22348  1.0000
  H   H2        1.0  0.26980  0.31511  0.27532  1.0000
  C   C8        1.0  0.28045  0.19351  0.00220  1.0000
  H   H3        1.0  0.27102  0.20620  0.04837  1.0000
  H   H4        1.0  0.28107  0.17211  0.03768  1.0000
  N   N1        1.0  0.30284  0.23402  0.28598  1.0000
  H   H5        1.0  0.32190  0.24758  0.24417  1.0000
  C   C9        1.0  0.24673  0.03572  0.32479  1.0000
  C   C10       1.0  0.20109  0.47342  0.31460  1.0000
  C   C11       1.0  0.21671  0.00818  0.28296  1.0000
  H   H6        1.0  0.20812  0.01262  0.22363  1.0000
  H   H7        1.0  0.18231  0.45417  0.27545  1.0000
  C   C12       1.0  0.30392  0.08640  0.00239  1.0000
  H   H8        1.0  0.29123  0.06428  0.04855  1.0000
  H   H9        1.0  0.32532  0.10842  0.03787  1.0000
  N   N2        1.0  0.26340  0.06832  0.28616  1.0000
  H   H10       1.0  0.24984  0.07381  0.24434  1.0000
  C   C13       1.0  0.46169  0.21049  0.32470  1.0000
  C   C14       1.0  0.02400  0.22718  0.31450  1.0000
  C   C15       1.0  0.48924  0.20803  0.28284  1.0000
  H   H11       1.0  0.48481  0.19503  0.22350  1.0000
  H   H12       1.0  0.04325  0.22766  0.27534  1.0000
  C   C16       1.0  0.41098  0.21695  0.00233  1.0000
  H   H13       1.0  0.43310  0.22639  0.04851  1.0000
  H   H14       1.0  0.38896  0.21634  0.03779  1.0000
  N   N3        1.0  0.42909  0.19455  0.28610  1.0000
  H   H15       1.0  0.42362  0.17555  0.24414  1.0000
  C   C17       1.0  0.16891  0.36672  0.39614  1.0000
  C   C18       1.0  0.13529  0.33603  0.39544  1.0000
  C   C19       1.0  0.13069  0.30168  0.39611  1.0000
  C   C20       1.0  0.16138  0.29875  0.39536  1.0000
  C   C21       1.0  0.19867  0.36213  0.39546  1.0000
  H   H16       1.0  0.15851  0.27419  0.39114  1.0000
  H   H17       1.0  0.22323  0.38382  0.39119  1.0000
  H   H18       1.0  0.11360  0.33891  0.39128  1.0000
  C   C22       1.0  0.17259  0.40075  0.39110  1.0000
  C   C23       1.0  0.09666  0.27134  0.39100  1.0000
  O   O1        1.0  0.25755  0.35353  0.37113  1.0000
  O   O2        1.0  0.14389  0.40353  0.37121  1.0000
  O   O3        1.0  0.09390  0.23986  0.37115  1.0000
  C   C24       1.0  0.31500  0.12797  0.27307  1.0000
  C   C25       1.0  0.35214  0.14928  0.27200  1.0000
  C   C26       1.0  0.36946  0.18651  0.27295  1.0000
  C   C27       1.0  0.34813  0.20234  0.27198  1.0000
  C   C28       1.0  0.29508  0.14528  0.27202  1.0000
  H   H19       1.0  0.36011  0.22907  0.27771  1.0000
  H   H20       1.0  0.26835  0.13053  0.27779  1.0000
  H   H21       1.0  0.36690  0.13731  0.27789  1.0000
  C   C29       1.0  0.29886  0.09112  0.28760  1.0000
  C   C30       1.0  0.40631  0.20723  0.28750  1.0000
  O   O4        1.0  0.25508  0.17752  0.30178  1.0000
  O   O5        1.0  0.31991  0.07706  0.30194  1.0000
  O   O6        1.0  0.42037  0.24234  0.30186  1.0000
  C   C31       1.0  0.26871  0.24006  0.40700  1.0000
  C   C32       1.0  0.24954  0.25599  0.43932  1.0000
  C   C33       1.0  0.24889  0.28361  0.39155  1.0000
  N   N4        1.0  0.23277  0.24459  0.51899  1.0000
  C   C34       1.0  0.23393  0.21964  0.56966  1.0000
  C   C35       1.0  0.25420  0.20489  0.54028  1.0000
  N   N5        1.0  0.27033  0.21566  0.45987  1.0000
  H   H22       1.0  0.22079  0.21241  0.62890  1.0000
  N   N6        1.0  0.25666  0.17901  0.59107  1.0000
  H   H23       1.0  0.26576  0.16612  0.55169  1.0000
  H   H24       1.0  0.30728  0.21261  0.64829  1.0000
  N   N7        1.0  0.22606  0.29490  0.41590  1.0000
  H   H25       1.0  0.20733  0.27971  0.45670  1.0000
  C   C36       1.0  0.25736  0.02813  0.40716  1.0000
  C   C37       1.0  0.24144  0.49303  0.43946  1.0000
  C   C38       1.0  0.21381  0.46476  0.39170  1.0000
  N   N8        1.0  0.25283  0.48765  0.51914  1.0000
  C   C39       1.0  0.27778  0.51376  0.56981  1.0000
  C   C40       1.0  0.29254  0.04879  0.54044  1.0000
  N   N9        1.0  0.28176  0.05414  0.46005  1.0000
  H   H26       1.0  0.28501  0.50784  0.62905  1.0000
  N   N10       1.0  0.31842  0.07712  0.59124  1.0000
  H   H27       1.0  0.33131  0.09912  0.55186  1.0000
  H   H28       1.0  0.28482  0.09414  0.64851  1.0000
  N   N11       1.0  0.20252  0.43065  0.41603  1.0000
  H   H29       1.0  0.21770  0.42710  0.45683  1.0000
  C   C41       1.0  0.46928  0.22871  0.40708  1.0000
  C   C42       1.0  0.00438  0.24787  0.43942  1.0000
  C   C43       1.0  0.03265  0.24852  0.39166  1.0000
  N   N12       1.0  0.00975  0.26462  0.51912  1.0000
  C   C44       1.0  0.98363  0.26344  0.56982  1.0000
  C   C45       1.0  0.44861  0.24319  0.54041  1.0000
  N   N13       1.0  0.44327  0.22708  0.45998  1.0000
  H   H30       1.0  0.98955  0.27661  0.62903  1.0000
  N   N14       1.0  0.42028  0.24074  0.59119  1.0000
  H   H31       1.0  0.39828  0.23164  0.55180  1.0000
  H   H32       1.0  0.40324  0.19012  0.64844  1.0000
  N   N15       1.0  0.06676  0.27136  0.41600  1.0000
  H   H33       1.0  0.07031  0.29008  0.45682  1.0000
  C   C46       1.0  0.19574  0.82851  0.39608  1.0000
  C   C47       1.0  0.22607  0.82481  0.39094  1.0000
  C   C48       1.0  0.31091  0.68243  0.27291  1.0000
  C   C49       1.0  0.29018  0.69856  0.28739  1.0000
  C   C50       1.0  0.28693  0.75070  0.32462  1.0000
  C   C51       1.0  0.27027  0.79634  0.31446  1.0000
  C   C52       1.0  0.28941  0.78072  0.28281  1.0000
  H   H34       1.0  0.30243  0.78931  0.22348  1.0000
  H   H35       1.0  0.26980  0.81511  0.27532  1.0000
  C   C53       1.0  0.28045  0.69351  0.00220  1.0000
  H   H36       1.0  0.27102  0.70620  0.04837  1.0000
  H   H37       1.0  0.28107  0.67211  0.03768  1.0000
  N   N16       1.0  0.30284  0.73402  0.28598  1.0000
  H   H38       1.0  0.32190  0.74759  0.24417  1.0000
  C   C54       1.0  0.24673  0.53572  0.32479  1.0000
  C   C55       1.0  0.20109  0.97342  0.31460  1.0000
  C   C56       1.0  0.21671  0.50818  0.28296  1.0000
  H   H39       1.0  0.20812  0.51262  0.22363  1.0000
  H   H40       1.0  0.18232  0.95417  0.27545  1.0000
  C   C57       1.0  0.30391  0.58640  0.00239  1.0000
  H   H41       1.0  0.29123  0.56428  0.04855  1.0000
  H   H42       1.0  0.32532  0.60842  0.03787  1.0000
  N   N17       1.0  0.26341  0.56832  0.28616  1.0000
  H   H43       1.0  0.24984  0.57381  0.24434  1.0000
  C   C58       1.0  0.46169  0.71049  0.32470  1.0000
  C   C59       1.0  0.02400  0.72718  0.31450  1.0000
  C   C60       1.0  0.48924  0.70803  0.28284  1.0000
  H   H44       1.0  0.48481  0.69503  0.22350  1.0000
  H   H45       1.0  0.04325  0.72766  0.27534  1.0000
  C   C61       1.0  0.41098  0.71695  0.00233  1.0000
  H   H46       1.0  0.43310  0.72639  0.04851  1.0000
  H   H47       1.0  0.38896  0.71634  0.03779  1.0000
  N   N18       1.0  0.42909  0.69455  0.28610  1.0000
  H   H48       1.0  0.42362  0.67555  0.24414  1.0000
  C   C62       1.0  0.16891  0.86672  0.39614  1.0000
  C   C63       1.0  0.13529  0.83603  0.39544  1.0000
  C   C64       1.0  0.13069  0.80168  0.39611  1.0000
  C   C65       1.0  0.16138  0.79875  0.39536  1.0000
  C   C66       1.0  0.19867  0.86213  0.39546  1.0000
  H   H49       1.0  0.15851  0.77419  0.39114  1.0000
  H   H50       1.0  0.22323  0.88382  0.39119  1.0000
  H   H51       1.0  0.11360  0.83891  0.39128  1.0000
  C   C67       1.0  0.17259  0.90075  0.39110  1.0000
  C   C68       1.0  0.09666  0.77134  0.39100  1.0000
  O   O7        1.0  0.25755  0.85353  0.37113  1.0000
  O   O8        1.0  0.14389  0.90353  0.37121  1.0000
  O   O9        1.0  0.09390  0.73986  0.37115  1.0000
  C   C69       1.0  0.31499  0.62797  0.27307  1.0000
  C   C70       1.0  0.35214  0.64928  0.27200  1.0000
  C   C71       1.0  0.36946  0.68651  0.27295  1.0000
  C   C72       1.0  0.34814  0.70234  0.27198  1.0000
  C   C73       1.0  0.29508  0.64528  0.27202  1.0000
  H   H52       1.0  0.36011  0.72907  0.27771  1.0000
  H   H53       1.0  0.26835  0.63053  0.27779  1.0000
  H   H54       1.0  0.36690  0.63731  0.27789  1.0000
  C   C74       1.0  0.29886  0.59112  0.28760  1.0000
  C   C75       1.0  0.40630  0.70723  0.28750  1.0000
  O   O10       1.0  0.25508  0.67752  0.30178  1.0000
  O   O11       1.0  0.31991  0.57706  0.30194  1.0000
  O   O12       1.0  0.42037  0.74234  0.30186  1.0000
  C   C76       1.0  0.26871  0.74006  0.40700  1.0000
  C   C77       1.0  0.24954  0.75598  0.43932  1.0000
  C   C78       1.0  0.24889  0.78361  0.39155  1.0000
  N   N19       1.0  0.23277  0.74459  0.51899  1.0000
  C   C79       1.0  0.23393  0.71964  0.56966  1.0000
  C   C80       1.0  0.25420  0.70489  0.54028  1.0000
  N   N20       1.0  0.27033  0.71566  0.45987  1.0000
  H   H55       1.0  0.22079  0.71241  0.62890  1.0000
  N   N21       1.0  0.25666  0.67901  0.59107  1.0000
  H   H56       1.0  0.26576  0.66612  0.55169  1.0000
  H   H57       1.0  0.30728  0.71261  0.64829  1.0000
  N   N22       1.0  0.22606  0.79489  0.41590  1.0000
  H   H58       1.0  0.20733  0.77971  0.45670  1.0000
  C   C81       1.0  0.25736  0.52813  0.40716  1.0000
  C   C82       1.0  0.24144  0.99303  0.43946  1.0000
  C   C83       1.0  0.21381  0.96476  0.39170  1.0000
  N   N23       1.0  0.25283  0.98765  0.51914  1.0000
  C   C84       1.0  0.27778  0.01376  0.56981  1.0000
  C   C85       1.0  0.29253  0.54879  0.54044  1.0000
  N   N24       1.0  0.28176  0.55414  0.46005  1.0000
  H   H59       1.0  0.28501  0.00785  0.62905  1.0000
  N   N25       1.0  0.31842  0.57712  0.59124  1.0000
  H   H60       1.0  0.33131  0.59912  0.55186  1.0000
  H   H61       1.0  0.28482  0.59414  0.64851  1.0000
  N   N26       1.0  0.20252  0.93065  0.41603  1.0000
  H   H62       1.0  0.21770  0.92709  0.45683  1.0000
  C   C86       1.0  0.46928  0.72871  0.40708  1.0000
  C   C87       1.0  0.00438  0.74787  0.43942  1.0000
  C   C88       1.0  0.03265  0.74852  0.39166  1.0000
  N   N27       1.0  0.00975  0.76462  0.51912  1.0000
  C   C89       1.0  0.98363  0.76344  0.56982  1.0000
  C   C90       1.0  0.44861  0.74319  0.54041  1.0000
  N   N28       1.0  0.44327  0.72708  0.45998  1.0000
  H   H63       1.0  0.98955  0.77660  0.62903  1.0000
  N   N29       1.0  0.42028  0.74074  0.59119  1.0000
  H   H64       1.0  0.39828  0.73164  0.55180  1.0000
  H   H65       1.0  0.40324  0.69012  0.64844  1.0000
  N   N30       1.0  0.06676  0.77135  0.41600  1.0000
  H   H66       1.0  0.07031  0.79008  0.45682  1.0000
  C   C91       1.0  0.69574  0.32851  0.39608  1.0000
  C   C92       1.0  0.72607  0.32481  0.39094  1.0000
  C   C93       1.0  0.81091  0.18243  0.27291  1.0000
  C   C94       1.0  0.79019  0.19856  0.28739  1.0000
  C   C95       1.0  0.78693  0.25070  0.32462  1.0000
  C   C96       1.0  0.77027  0.29634  0.31446  1.0000
  C   C97       1.0  0.78941  0.28072  0.28281  1.0000
  H   H67       1.0  0.80243  0.28931  0.22348  1.0000
  H   H68       1.0  0.76980  0.31511  0.27532  1.0000
  C   C98       1.0  0.78045  0.19351  0.00220  1.0000
  H   H69       1.0  0.77102  0.20620  0.04837  1.0000
  H   H70       1.0  0.78107  0.17211  0.03768  1.0000
  N   N31       1.0  0.80285  0.23402  0.28598  1.0000
  H   H71       1.0  0.82190  0.24758  0.24417  1.0000
  C   C99       1.0  0.74673  0.03572  0.32479  1.0000
  C   C100      1.0  0.70109  0.47342  0.31460  1.0000
  C   C101      1.0  0.71671  0.00818  0.28296  1.0000
  H   H72       1.0  0.70812  0.01262  0.22363  1.0000
  H   H73       1.0  0.68232  0.45417  0.27545  1.0000
  C   C102      1.0  0.80392  0.08640  0.00239  1.0000
  H   H74       1.0  0.79123  0.06428  0.04855  1.0000
  H   H75       1.0  0.82532  0.10842  0.03787  1.0000
  N   N32       1.0  0.76340  0.06832  0.28616  1.0000
  H   H76       1.0  0.74984  0.07381  0.24434  1.0000
  C   C103      1.0  0.96169  0.21049  0.32470  1.0000
  C   C104      1.0  0.52400  0.22718  0.31450  1.0000
  C   C105      1.0  0.98924  0.20803  0.28284  1.0000
  H   H77       1.0  0.98481  0.19503  0.22350  1.0000
  H   H78       1.0  0.54325  0.22766  0.27534  1.0000
  C   C106      1.0  0.91098  0.21695  0.00233  1.0000
  H   H79       1.0  0.93310  0.22639  0.04851  1.0000
  H   H80       1.0  0.88896  0.21634  0.03779  1.0000
  N   N33       1.0  0.92909  0.19455  0.28610  1.0000
  H   H81       1.0  0.92362  0.17555  0.24414  1.0000
  C   C107      1.0  0.66891  0.36672  0.39614  1.0000
  C   C108      1.0  0.63529  0.33603  0.39544  1.0000
  C   C109      1.0  0.63069  0.30168  0.39611  1.0000
  C   C110      1.0  0.66138  0.29875  0.39536  1.0000
  C   C111      1.0  0.69867  0.36213  0.39546  1.0000
  H   H82       1.0  0.65851  0.27419  0.39114  1.0000
  H   H83       1.0  0.72323  0.38382  0.39119  1.0000
  H   H84       1.0  0.61360  0.33891  0.39128  1.0000
  C   C112      1.0  0.67259  0.40075  0.39110  1.0000
  C   C113      1.0  0.59666  0.27134  0.39100  1.0000
  O   O13       1.0  0.75755  0.35353  0.37113  1.0000
  O   O14       1.0  0.64389  0.40353  0.37121  1.0000
  O   O15       1.0  0.59390  0.23986  0.37115  1.0000
  C   C114      1.0  0.81500  0.12797  0.27307  1.0000
  C   C115      1.0  0.85215  0.14928  0.27200  1.0000
  C   C116      1.0  0.86946  0.18651  0.27295  1.0000
  C   C117      1.0  0.84813  0.20234  0.27198  1.0000
  C   C118      1.0  0.79508  0.14528  0.27202  1.0000
  H   H85       1.0  0.86011  0.22907  0.27771  1.0000
  H   H86       1.0  0.76835  0.13053  0.27779  1.0000
  H   H87       1.0  0.86690  0.13731  0.27789  1.0000
  C   C119      1.0  0.79886  0.09112  0.28760  1.0000
  C   C120      1.0  0.90631  0.20723  0.28750  1.0000
  O   O16       1.0  0.75508  0.17752  0.30178  1.0000
  O   O17       1.0  0.81991  0.07706  0.30194  1.0000
  O   O18       1.0  0.92037  0.24234  0.30186  1.0000
  C   C121      1.0  0.76871  0.24006  0.40700  1.0000
  C   C122      1.0  0.74953  0.25599  0.43932  1.0000
  C   C123      1.0  0.74889  0.28361  0.39155  1.0000
  N   N34       1.0  0.73277  0.24459  0.51899  1.0000
  C   C124      1.0  0.73393  0.21964  0.56966  1.0000
  C   C125      1.0  0.75420  0.20489  0.54028  1.0000
  N   N35       1.0  0.77033  0.21566  0.45987  1.0000
  H   H88       1.0  0.72079  0.21241  0.62890  1.0000
  N   N36       1.0  0.75666  0.17901  0.59107  1.0000
  H   H89       1.0  0.76576  0.16612  0.55169  1.0000
  H   H90       1.0  0.80728  0.21261  0.64829  1.0000
  N   N37       1.0  0.72606  0.29490  0.41590  1.0000
  H   H91       1.0  0.70733  0.27971  0.45670  1.0000
  C   C126      1.0  0.75736  0.02813  0.40716  1.0000
  C   C127      1.0  0.74144  0.49303  0.43946  1.0000
  C   C128      1.0  0.71381  0.46476  0.39170  1.0000
  N   N38       1.0  0.75283  0.48765  0.51914  1.0000
  C   C129      1.0  0.77778  0.51376  0.56981  1.0000
  C   C130      1.0  0.79254  0.04879  0.54044  1.0000
  N   N39       1.0  0.78176  0.05414  0.46005  1.0000
  H   H92       1.0  0.78501  0.50784  0.62905  1.0000
  N   N40       1.0  0.81842  0.07712  0.59124  1.0000
  H   H93       1.0  0.83130  0.09912  0.55186  1.0000
  H   H94       1.0  0.78482  0.09414  0.64851  1.0000
  N   N41       1.0  0.70252  0.43065  0.41603  1.0000
  H   H95       1.0  0.71770  0.42710  0.45683  1.0000
  C   C131      1.0  0.96928  0.22871  0.40708  1.0000
  C   C132      1.0  0.50438  0.24787  0.43942  1.0000
  C   C133      1.0  0.53265  0.24852  0.39166  1.0000
  N   N42       1.0  0.50975  0.26462  0.51912  1.0000
  C   C134      1.0  0.48363  0.26344  0.56982  1.0000
  C   C135      1.0  0.94861  0.24319  0.54041  1.0000
  N   N43       1.0  0.94327  0.22708  0.45998  1.0000
  H   H96       1.0  0.48955  0.27661  0.62903  1.0000
  N   N44       1.0  0.92028  0.24074  0.59119  1.0000
  H   H97       1.0  0.89828  0.23164  0.55180  1.0000
  H   H98       1.0  0.90324  0.19012  0.64844  1.0000
  N   N45       1.0  0.56676  0.27136  0.41600  1.0000
  H   H99       1.0  0.57031  0.29008  0.45682  1.0000
  C   C136      1.0  0.69574  0.82851  0.39608  1.0000
  C   C137      1.0  0.72607  0.82481  0.39094  1.0000
  C   C138      1.0  0.81091  0.68243  0.27291  1.0000
  C   C139      1.0  0.79019  0.69856  0.28739  1.0000
  C   C140      1.0  0.78693  0.75070  0.32462  1.0000
  C   C141      1.0  0.77026  0.79634  0.31446  1.0000
  C   C142      1.0  0.78941  0.78072  0.28281  1.0000
  H   H100      1.0  0.80243  0.78931  0.22348  1.0000
  H   H101      1.0  0.76980  0.81511  0.27532  1.0000
  C   C143      1.0  0.78045  0.69351  0.00220  1.0000
  H   H102      1.0  0.77102  0.70620  0.04837  1.0000
  H   H103      1.0  0.78107  0.67211  0.03768  1.0000
  N   N46       1.0  0.80284  0.73402  0.28598  1.0000
  H   H104      1.0  0.82190  0.74759  0.24417  1.0000
  C   C144      1.0  0.74673  0.53572  0.32479  1.0000
  C   C145      1.0  0.70109  0.97342  0.31460  1.0000
  C   C146      1.0  0.71670  0.50818  0.28296  1.0000
  H   H105      1.0  0.70812  0.51262  0.22363  1.0000
  H   H106      1.0  0.68231  0.95417  0.27545  1.0000
  C   C147      1.0  0.80392  0.58640  0.00239  1.0000
  H   H107      1.0  0.79123  0.56428  0.04855  1.0000
  H   H108      1.0  0.82532  0.60842  0.03787  1.0000
  N   N47       1.0  0.76340  0.56832  0.28616  1.0000
  H   H109      1.0  0.74984  0.57381  0.24434  1.0000
  C   C148      1.0  0.96169  0.71049  0.32470  1.0000
  C   C149      1.0  0.52400  0.72718  0.31450  1.0000
  C   C150      1.0  0.98924  0.70803  0.28284  1.0000
  H   H110      1.0  0.98481  0.69503  0.22350  1.0000
  H   H111      1.0  0.54325  0.72766  0.27534  1.0000
  C   C151      1.0  0.91098  0.71695  0.00233  1.0000
  H   H112      1.0  0.93310  0.72639  0.04851  1.0000
  H   H113      1.0  0.88896  0.71634  0.03779  1.0000
  N   N48       1.0  0.92909  0.69455  0.28610  1.0000
  H   H114      1.0  0.92362  0.67555  0.24414  1.0000
  C   C152      1.0  0.66890  0.86672  0.39614  1.0000
  C   C153      1.0  0.63529  0.83603  0.39544  1.0000
  C   C154      1.0  0.63069  0.80168  0.39611  1.0000
  C   C155      1.0  0.66138  0.79875  0.39536  1.0000
  C   C156      1.0  0.69867  0.86213  0.39546  1.0000
  H   H115      1.0  0.65851  0.77419  0.39114  1.0000
  H   H116      1.0  0.72323  0.88382  0.39119  1.0000
  H   H117      1.0  0.61360  0.83891  0.39128  1.0000
  C   C157      1.0  0.67259  0.90075  0.39110  1.0000
  C   C158      1.0  0.59666  0.77134  0.39100  1.0000
  O   O19       1.0  0.75755  0.85353  0.37113  1.0000
  O   O20       1.0  0.64389  0.90353  0.37121  1.0000
  O   O21       1.0  0.59390  0.73986  0.37115  1.0000
  C   C159      1.0  0.81499  0.62797  0.27307  1.0000
  C   C160      1.0  0.85215  0.64928  0.27200  1.0000
  C   C161      1.0  0.86946  0.68651  0.27295  1.0000
  C   C162      1.0  0.84813  0.70234  0.27198  1.0000
  C   C163      1.0  0.79508  0.64528  0.27202  1.0000
  H   H118      1.0  0.86011  0.72907  0.27771  1.0000
  H   H119      1.0  0.76835  0.63053  0.27779  1.0000
  H   H120      1.0  0.86690  0.63731  0.27789  1.0000
  C   C164      1.0  0.79886  0.59112  0.28760  1.0000
  C   C165      1.0  0.90631  0.70723  0.28750  1.0000
  O   O22       1.0  0.75508  0.67752  0.30178  1.0000
  O   O23       1.0  0.81991  0.57706  0.30194  1.0000
  O   O24       1.0  0.92037  0.74234  0.30186  1.0000
  C   C166      1.0  0.76871  0.74006  0.40700  1.0000
  C   C167      1.0  0.74953  0.75598  0.43932  1.0000
  C   C168      1.0  0.74889  0.78361  0.39155  1.0000
  N   N49       1.0  0.73277  0.74459  0.51899  1.0000
  C   C169      1.0  0.73393  0.71964  0.56966  1.0000
  C   C170      1.0  0.75420  0.70489  0.54028  1.0000
  N   N50       1.0  0.77033  0.71566  0.45987  1.0000
  H   H121      1.0  0.72079  0.71241  0.62890  1.0000
  N   N51       1.0  0.75666  0.67901  0.59107  1.0000
  H   H122      1.0  0.76576  0.66612  0.55169  1.0000
  H   H123      1.0  0.80728  0.71261  0.64829  1.0000
  N   N52       1.0  0.72606  0.79489  0.41590  1.0000
  H   H124      1.0  0.70733  0.77971  0.45670  1.0000
  C   C171      1.0  0.75736  0.52813  0.40716  1.0000
  C   C172      1.0  0.74144  0.99303  0.43946  1.0000
  C   C173      1.0  0.71381  0.96476  0.39170  1.0000
  N   N53       1.0  0.75283  0.98765  0.51914  1.0000
  C   C174      1.0  0.77778  0.01376  0.56981  1.0000
  C   C175      1.0  0.79253  0.54879  0.54044  1.0000
  N   N54       1.0  0.78176  0.55414  0.46005  1.0000
  H   H125      1.0  0.78501  0.00785  0.62905  1.0000
  N   N55       1.0  0.81842  0.57712  0.59124  1.0000
  H   H126      1.0  0.83130  0.59912  0.55186  1.0000
  H   H127      1.0  0.78482  0.59414  0.64851  1.0000
  N   N56       1.0  0.70252  0.93065  0.41603  1.0000
  H   H128      1.0  0.71770  0.92709  0.45683  1.0000
  C   C176      1.0  0.96928  0.72871  0.40708  1.0000
  C   C177      1.0  0.50438  0.74787  0.43942  1.0000
  C   C178      1.0  0.53265  0.74852  0.39166  1.0000
  N   N57       1.0  0.50975  0.76462  0.51912  1.0000
  C   C179      1.0  0.48363  0.76344  0.56982  1.0000
  C   C180      1.0  0.94861  0.74319  0.54041  1.0000
  N   N58       1.0  0.94327  0.72708  0.45998  1.0000
  H   H129      1.0  0.48955  0.77660  0.62903  1.0000
  N   N59       1.0  0.92028  0.74074  0.59119  1.0000
  H   H130      1.0  0.89828  0.73164  0.55180  1.0000
  H   H131      1.0  0.90324  0.69012  0.64844  1.0000
  N   N60       1.0  0.56676  0.77135  0.41600  1.0000
  H   H132      1.0  0.57031  0.79008  0.45682  1.0000
