data_image0
_chemical_formula_structural       CHNC31H17NHNHNHC30H17NHNHNHC3H4CH2C3H4CH2C2H4CH10C3NC2NHOCHCH2C3NC2NHOCHCH2C4NOCHCH2
_chemical_formula_sum              "C93 H78 N12 O3"
_cell_length_a       44.9409
_cell_length_b       44.9408
_cell_length_c       14.9802
_cell_angle_alpha    90
_cell_angle_beta     90
_cell_angle_gamma    120

_space_group_name_H-M_alt    "P 1"
_space_group_IT_number       1

loop_
  _space_group_symop_operation_xyz
  'x, y, z'

loop_
  _atom_site_type_symbol
  _atom_site_label
  _atom_site_symmetry_multiplicity
  _atom_site_fract_x
  _atom_site_fract_y
  _atom_site_fract_z
  _atom_site_occupancy
  C   C1        1.0  0.01157  0.51692  0.42507  1.0000
  H   H1        1.0  0.00871  0.54031  0.63292  1.0000
  N   N1        1.0  0.02173  0.53121  0.50761  1.0000
  C   C2        1.0  0.02307  0.50399  0.27604  1.0000
  C   C3        1.0  0.13237  0.56193  0.32483  1.0000
  C   C4        1.0  0.15151  0.59694  0.34940  1.0000
  C   C5        1.0  0.18712  0.61270  0.36455  1.0000
  C   C6        1.0  0.20436  0.59380  0.35484  1.0000
  C   C7        1.0  0.18505  0.55864  0.33169  1.0000
  C   C8        1.0  0.14946  0.54298  0.31617  1.0000
  C   C9        1.0  0.23961  0.60917  0.36654  1.0000
  C   C10       1.0  0.26231  0.63592  0.31702  1.0000
  C   C11       1.0  0.29781  0.65113  0.32453  1.0000
  C   C12       1.0  0.31430  0.63132  0.32382  1.0000
  C   C13       1.0  0.35053  0.64702  0.32437  1.0000
  C   C14       1.0  0.37034  0.68332  0.32374  1.0000
  C   C15       1.0  0.35464  0.70385  0.32438  1.0000
  C   C16       1.0  0.31834  0.68736  0.32387  1.0000
  C   C17       1.0  0.37493  0.73935  0.31687  1.0000
  C   C18       1.0  0.37089  0.76205  0.36643  1.0000
  C   C19       1.0  0.39078  0.79730  0.35476  1.0000
  C   C20       1.0  0.37493  0.81661  0.33157  1.0000
  C   C21       1.0  0.42692  0.81454  0.36446  1.0000
  C   C22       1.0  0.44677  0.85015  0.34940  1.0000
  C   C23       1.0  0.43090  0.86929  0.32480  1.0000
  C   C24       1.0  0.39486  0.85220  0.31615  1.0000
  C   C25       1.0  0.36574  0.62673  0.31684  1.0000
  C   C26       1.0  0.39249  0.63078  0.36635  1.0000
  C   C27       1.0  0.40786  0.61089  0.35467  1.0000
  C   C28       1.0  0.38895  0.57475  0.36440  1.0000
  C   C29       1.0  0.44301  0.62673  0.33145  1.0000
  C   C30       1.0  0.45867  0.60680  0.31603  1.0000
  C   C31       1.0  0.43971  0.57076  0.32468  1.0000
  C   C32       1.0  0.40470  0.55489  0.34930  1.0000
  H   H2        1.0  0.13969  0.61128  0.35456  1.0000
  H   H3        1.0  0.20041  0.63820  0.38133  1.0000
  H   H4        1.0  0.30667  0.70195  0.32058  1.0000
  H   H5        1.0  0.29971  0.60505  0.32056  1.0000
  H   H6        1.0  0.39661  0.69500  0.32043  1.0000
  H   H7        1.0  0.36346  0.56255  0.38122  1.0000
  H   H8        1.0  0.34883  0.80482  0.32360  1.0000
  H   H9        1.0  0.47293  0.86196  0.35448  1.0000
  H   H10       1.0  0.43912  0.80124  0.38125  1.0000
  H   H11       1.0  0.39036  0.52874  0.35445  1.0000
  H   H12       1.0  0.45731  0.65283  0.32348  1.0000
  H   H13       1.0  0.35201  0.75357  0.41113  1.0000
  H   H14       1.0  0.39372  0.74825  0.27171  1.0000
  H   H15       1.0  0.24809  0.59874  0.41116  1.0000
  H   H16       1.0  0.25341  0.64583  0.27189  1.0000
  H   H17       1.0  0.40291  0.64968  0.41104  1.0000
  H   H18       1.0  0.35584  0.60793  0.27170  1.0000
  N   N2        1.0  0.44999  0.90469  0.30364  1.0000
  H   H19       1.0  0.46721  0.90798  0.25413  1.0000
  N   N3        1.0  0.09697  0.54561  0.30366  1.0000
  H   H20       1.0  0.09368  0.55954  0.25415  1.0000
  N   N4        1.0  0.45602  0.55167  0.30356  1.0000
  H   H21       1.0  0.44209  0.53444  0.25407  1.0000
  C   C33       1.0  0.86920  0.42299  0.34924  1.0000
  C   C34       1.0  0.85109  0.40329  0.27396  1.0000
  C   C35       1.0  0.81543  0.38998  0.26628  1.0000
  C   C36       1.0  0.79714  0.39589  0.33414  1.0000
  C   C37       1.0  0.81535  0.41569  0.40934  1.0000
  C   C38       1.0  0.85099  0.42892  0.41695  1.0000
  C   C39       1.0  0.76214  0.38319  0.32538  1.0000
  C   C40       1.0  0.73894  0.36064  0.38318  1.0000
  C   C41       1.0  0.70382  0.34767  0.37552  1.0000
  C   C42       1.0  0.68989  0.36978  0.37612  1.0000
  C   C43       1.0  0.65398  0.35648  0.37556  1.0000
  C   C44       1.0  0.63188  0.32045  0.37612  1.0000
  C   C45       1.0  0.64517  0.29784  0.37556  1.0000
  C   C46       1.0  0.68120  0.31176  0.37608  1.0000
  C   C47       1.0  0.62303  0.26271  0.38325  1.0000
  C   C48       1.0  0.62235  0.23951  0.32541  1.0000
  C   C49       1.0  0.60005  0.20451  0.33418  1.0000
  C   C50       1.0  0.60164  0.18631  0.40938  1.0000
  C   C51       1.0  0.57587  0.18622  0.26629  1.0000
  C   C52       1.0  0.55352  0.15056  0.27395  1.0000
  C   C53       1.0  0.55511  0.13246  0.34925  1.0000
  C   C54       1.0  0.57922  0.15066  0.41699  1.0000
  C   C55       1.0  0.64101  0.37863  0.38325  1.0000
  C   C56       1.0  0.61847  0.37929  0.32542  1.0000
  C   C57       1.0  0.60577  0.40159  0.33419  1.0000
  C   C58       1.0  0.61166  0.42577  0.26629  1.0000
  C   C59       1.0  0.58599  0.40001  0.40941  1.0000
  C   C60       1.0  0.57276  0.42243  0.41701  1.0000
  C   C61       1.0  0.57866  0.44654  0.34927  1.0000
  C   C62       1.0  0.59834  0.44812  0.27396  1.0000
  H   H22       1.0  0.86388  0.39863  0.22438  1.0000
  H   H23       1.0  0.80295  0.37583  0.21097  1.0000
  H   H24       1.0  0.69108  0.29556  0.37911  1.0000
  H   H25       1.0  0.70610  0.39586  0.37912  1.0000
  H   H26       1.0  0.60581  0.31058  0.37918  1.0000
  H   H27       1.0  0.62579  0.42743  0.21096  1.0000
  H   H28       1.0  0.61922  0.19882  0.45899  1.0000
  H   H29       1.0  0.53609  0.13778  0.22435  1.0000
  H   H30       1.0  0.57421  0.19870  0.21096  1.0000
  H   H31       1.0  0.60299  0.46555  0.22436  1.0000
  H   H32       1.0  0.58093  0.38244  0.45904  1.0000
  H   H33       1.0  0.63796  0.24747  0.27273  1.0000
  H   H34       1.0  0.60657  0.25466  0.43417  1.0000
  H   H35       1.0  0.75419  0.39086  0.27273  1.0000
  H   H36       1.0  0.74700  0.35223  0.43409  1.0000
  H   H37       1.0  0.61082  0.36368  0.27276  1.0000
  H   H38       1.0  0.64941  0.39509  0.43417  1.0000
  N   N5        1.0  0.53347  0.09656  0.35909  1.0000
  H   H39       1.0  0.50828  0.09037  0.35191  1.0000
  N   N6        1.0  0.90510  0.43724  0.35910  1.0000
  H   H40       1.0  0.91128  0.41823  0.35195  1.0000
  N   N7        1.0  0.56440  0.46818  0.35912  1.0000
  H   H41       1.0  0.58341  0.49337  0.35193  1.0000
  C   C63       1.0  0.51794  0.48007  0.32136  1.0000
  C   C64       1.0  0.49764  0.51938  0.27601  1.0000
  C   C65       1.0  0.51544  0.50179  0.25731  1.0000
  H   H42       1.0  0.52622  0.50467  0.19549  1.0000
  H   H43       1.0  0.49655  0.53463  0.22704  1.0000
  H   H44       1.0  0.52447  0.43036  0.04549  1.0000
  H   H45       1.0  0.52816  0.47123  0.03442  1.0000
  C   C66       1.0  0.53519  0.46008  0.29831  1.0000
  H   H46       1.0  0.54431  0.46473  0.22920  1.0000
  H   H47       1.0  0.51594  0.43279  0.30378  1.0000
  C   C67       1.0  0.52159  0.03821  0.32135  1.0000
  C   C68       1.0  0.48228  0.97859  0.27603  1.0000
  C   C69       1.0  0.49986  0.01398  0.25731  1.0000
  H   H48       1.0  0.49698  0.02188  0.19548  1.0000
  H   H49       1.0  0.46703  0.96225  0.22707  1.0000
  H   H50       1.0  0.57130  0.09448  0.04545  1.0000
  H   H51       1.0  0.53044  0.05729  0.03441  1.0000
  C   C70       1.0  0.54157  0.07545  0.29828  1.0000
  H   H52       1.0  0.53691  0.07991  0.22918  1.0000
  H   H53       1.0  0.56886  0.08349  0.30373  1.0000
  C   C71       1.0  0.96345  0.48369  0.32135  1.0000
  C   C72       1.0  0.98768  0.48620  0.25732  1.0000
  H   H54       1.0  0.97978  0.47541  0.19549  1.0000
  H   H55       1.0  0.03941  0.50509  0.22709  1.0000
  H   H56       1.0  0.90717  0.47716  0.04544  1.0000
  H   H57       1.0  0.94436  0.47348  0.03441  1.0000
  C   C73       1.0  0.92621  0.46644  0.29827  1.0000
  H   H58       1.0  0.92175  0.45731  0.22917  1.0000
  H   H59       1.0  0.91818  0.48570  0.30369  1.0000
  H   H60       1.0  0.13609  0.51771  0.29748  1.0000
  H   H61       1.0  0.19686  0.54435  0.32364  1.0000
  H   H62       1.0  0.38297  0.86558  0.29744  1.0000
  H   H63       1.0  0.48394  0.61869  0.29733  1.0000
  H   H64       1.0  0.86374  0.44333  0.47160  1.0000
  H   H65       1.0  0.80284  0.42077  0.45893  1.0000
  H   H66       1.0  0.58089  0.13792  0.47164  1.0000
  H   H67       1.0  0.55836  0.42077  0.47169  1.0000
  C   C74       1.0  0.50264  0.47706  0.40606  1.0000
  C   C75       1.0  0.48472  0.49498  0.42506  1.0000
  C   C76       1.0  0.48144  0.51594  0.35945  1.0000
  N   N8        1.0  0.47042  0.49085  0.50760  1.0000
  C   C77       1.0  0.47261  0.47093  0.57226  1.0000
  C   C78       1.0  0.49068  0.45358  0.55403  1.0000
  N   N9        1.0  0.50450  0.45701  0.47149  1.0000
  H   H68       1.0  0.46133  0.46875  0.63292  1.0000
  O   O1        1.0  0.49295  0.43248  0.61588  1.0000
  C   C79       1.0  0.52487  0.44879  0.66418  1.0000
  H   H69       1.0  0.54679  0.45642  0.61964  1.0000
  C   C80       1.0  0.46126  0.53340  0.37945  1.0000
  H   H70       1.0  0.47463  0.55191  0.43301  1.0000
  H   H71       1.0  0.43603  0.51401  0.40457  1.0000
  C   C81       1.0  0.52460  0.02593  0.40604  1.0000
  C   C82       1.0  0.50669  0.99009  0.42506  1.0000
  C   C83       1.0  0.48573  0.96584  0.35947  1.0000
  N   N10       1.0  0.51082  0.97993  0.50761  1.0000
  C   C84       1.0  0.53074  0.00204  0.57226  1.0000
  C   C85       1.0  0.54809  0.03746  0.55401  1.0000
  N   N11       1.0  0.54465  0.04784  0.47146  1.0000
  H   H72       1.0  0.53293  0.99295  0.63292  1.0000
  O   O2        1.0  0.56919  0.06084  0.61585  1.0000
  C   C86       1.0  0.55287  0.07644  0.66415  1.0000
  H   H73       1.0  0.54523  0.09072  0.61961  1.0000
  C   C87       1.0  0.46827  0.92820  0.37950  1.0000
  H   H74       1.0  0.44977  0.92307  0.43308  1.0000
  H   H75       1.0  0.48766  0.92237  0.40460  1.0000
  C   C88       1.0  0.97573  0.49900  0.40604  1.0000
  C   C89       1.0  0.03582  0.52020  0.35948  1.0000
  C   C90       1.0  0.99961  0.52903  0.57226  1.0000
  C   C91       1.0  0.96420  0.51096  0.55400  1.0000
  N   N12       1.0  0.95381  0.49713  0.47146  1.0000
  O   O3        1.0  0.94082  0.50868  0.61583  1.0000
  C   C92       1.0  0.92521  0.47676  0.66414  1.0000
  H   H76       1.0  0.91093  0.45484  0.61960  1.0000
  C   C93       1.0  0.07346  0.54038  0.37952  1.0000
  H   H77       1.0  0.07859  0.52701  0.43310  1.0000
  H   H78       1.0  0.07929  0.56561  0.40462  1.0000
