data_image0
_chemical_formula_structural       C3HNO2NC3HNO2NC3HNO2NC3HNO2NC3HNO2NC3HNO2NC2NO2NC3HNO2NCHC3HNO2NC6H3C3H4C6H3C3H3C6H2C2H2C6H2C2H3C6H3C3H3C6H3C3H3C3HNO2NC3HNO2NC3HNONC3HNO2NC3HNO2NC3HNO2NCNO2C3HNO2NC2HNC3HNO2NC3HNO2NC3HNO2NC3HNO2NC3HNO2NC3HNO2NC6H3C3H3CHC6H3C3H3CHC6H3C3H2C6H3C3H2C3HNO2NOC3HNO2NC3HNO2NC3HNO2NC3HNO2NC3HNO2NC3HNO2NC3HNO2NHCN2C6H3C3H5C6H3C3H3C3HNO2NC3HNO2NC3HNO2NCHN2OC2O2C2O
_chemical_formula_sum              "C216 H108 N72 O72"
_cell_length_a       61.4141
_cell_length_b       61.4142
_cell_length_c       14.5343
_cell_angle_alpha    90
_cell_angle_beta     90
_cell_angle_gamma    120

_space_group_name_H-M_alt    "P 1"
_space_group_IT_number       1

loop_
  _space_group_symop_operation_xyz
  'x, y, z'

loop_
  _atom_site_type_symbol
  _atom_site_label
  _atom_site_symmetry_multiplicity
  _atom_site_fract_x
  _atom_site_fract_y
  _atom_site_fract_z
  _atom_site_occupancy
  C   C1        1.0  0.28076  0.48290  0.37350  1.0000
  C   C2        1.0  0.26376  0.47301  0.29812  1.0000
  C   C3        1.0  0.24049  0.47282  0.30074  1.0000
  H   H1        1.0  0.22880  0.46617  0.24499  1.0000
  N   N1        1.0  0.27079  0.46438  0.21954  1.0000
  O   O1        1.0  0.25540  0.44162  0.20362  1.0000
  O   O2        1.0  0.27236  0.47703  0.14935  1.0000
  N   N2        1.0  0.30387  0.48531  0.37360  1.0000
  C   C4        1.0  0.23417  0.77711  0.37353  1.0000
  C   C5        1.0  0.24129  0.79412  0.29813  1.0000
  C   C6        1.0  0.26437  0.81738  0.30075  1.0000
  H   H2        1.0  0.26941  0.82907  0.24499  1.0000
  N   N3        1.0  0.22563  0.78708  0.21954  1.0000
  O   O3        1.0  0.21826  0.80246  0.20359  1.0000
  O   O4        1.0  0.23672  0.78551  0.14936  1.0000
  N   N4        1.0  0.21349  0.75401  0.37362  1.0000
  C   C7        1.0  0.48497  0.23211  0.37355  1.0000
  C   C8        1.0  0.47515  0.23926  0.29804  1.0000
  C   C9        1.0  0.47496  0.26233  0.30069  1.0000
  H   H3        1.0  0.46836  0.26740  0.24485  1.0000
  N   N5        1.0  0.46661  0.22364  0.21933  1.0000
  O   O5        1.0  0.44387  0.21627  0.20307  1.0000
  O   O6        1.0  0.47934  0.23478  0.14933  1.0000
  N   N6        1.0  0.48739  0.21142  0.37365  1.0000
  C   C10       1.0  0.15412  0.56646  0.35833  1.0000
  C   C11       1.0  0.14610  0.57441  0.28101  1.0000
  C   C12       1.0  0.14582  0.59734  0.28100  1.0000
  H   H4        1.0  0.14015  0.56328  0.22352  1.0000
  N   N7        1.0  0.13777  0.60514  0.20261  1.0000
  O   O7        1.0  0.11539  0.58957  0.18204  1.0000
  O   O8        1.0  0.15149  0.60810  0.13419  1.0000
  N   N8        1.0  0.15217  0.54383  0.35466  1.0000
  C   C13       1.0  0.49141  0.61349  0.35834  1.0000
  C   C14       1.0  0.48346  0.59753  0.28102  1.0000
  C   C15       1.0  0.46053  0.57432  0.28101  1.0000
  H   H5        1.0  0.49459  0.60271  0.22352  1.0000
  N   N9        1.0  0.45273  0.55848  0.20262  1.0000
  O   O9        1.0  0.46830  0.55166  0.18205  1.0000
  O   O10       1.0  0.44977  0.56923  0.13420  1.0000
  N   N10       1.0  0.51404  0.63418  0.35466  1.0000
  C   C16       1.0  0.44438  0.90376  0.35831  1.0000
  C   C17       1.0  0.46034  0.91178  0.28100  1.0000
  C   C18       1.0  0.48355  0.91205  0.28098  1.0000
  H   H6        1.0  0.45517  0.91774  0.22350  1.0000
  N   N11       1.0  0.49940  0.92010  0.20260  1.0000
  O   O11       1.0  0.50622  0.94249  0.18204  1.0000
  O   O12       1.0  0.48865  0.90639  0.13417  1.0000
  N   N12       1.0  0.42370  0.90571  0.35463  1.0000
  C   C19       1.0  0.05672  0.43232  0.37267  1.0000
  C   C20       1.0  0.04292  0.42184  0.29021  1.0000
  N   N13       1.0  0.05619  0.42633  0.20632  1.0000
  O   O13       1.0  0.05081  0.43871  0.15125  1.0000
  O   O14       1.0  0.05160  0.40611  0.16815  1.0000
  N   N14       1.0  0.08185  0.44740  0.37440  1.0000
  C   C21       1.0  0.40764  0.00116  0.37265  1.0000
  C   C22       1.0  0.41101  0.01496  0.29016  1.0000
  C   C23       1.0  0.42409  0.04170  0.29228  1.0000
  H   H7        1.0  0.42704  0.05140  0.23201  1.0000
  N   N15       1.0  0.40228  0.00168  0.20625  1.0000
  O   O15       1.0  0.42008  0.00707  0.15134  1.0000
  O   O16       1.0  0.38667  0.00627  0.16787  1.0000
  N   N16       1.0  0.39758  0.97602  0.37440  1.0000
  C   C24       1.0  0.04377  0.64762  0.29234  1.0000
  H   H8        1.0  0.05346  0.65439  0.23210  1.0000
  C   C25       1.0  0.43439  0.40557  0.37267  1.0000
  C   C26       1.0  0.42394  0.40892  0.29019  1.0000
  C   C27       1.0  0.41028  0.42201  0.29231  1.0000
  H   H9        1.0  0.40351  0.42494  0.23205  1.0000
  N   N17       1.0  0.42845  0.40016  0.20629  1.0000
  O   O17       1.0  0.44085  0.41794  0.15130  1.0000
  O   O18       1.0  0.40824  0.38455  0.16801  1.0000
  N   N18       1.0  0.44947  0.39551  0.37439  1.0000
  C   C28       1.0  0.17148  0.47801  0.35565  1.0000
  C   C29       1.0  0.14575  0.45921  0.34599  1.0000
  C   C30       1.0  0.12579  0.46452  0.35448  1.0000
  C   C31       1.0  0.13238  0.48983  0.37100  1.0000
  C   C32       1.0  0.15773  0.50927  0.37965  1.0000
  C   C33       1.0  0.17694  0.50296  0.37303  1.0000
  H   H10       1.0  0.11843  0.49428  0.37642  1.0000
  H   H11       1.0  0.19533  0.51699  0.37829  1.0000
  H   H12       1.0  0.14142  0.44108  0.33278  1.0000
  C   C34       1.0  0.10056  0.44548  0.34374  1.0000
  C   C35       1.0  0.16377  0.53404  0.39598  1.0000
  C   C36       1.0  0.19067  0.47210  0.34301  1.0000
  H   H13       1.0  0.18694  0.45731  0.30414  1.0000
  H   H14       1.0  0.17777  0.54446  0.43899  1.0000
  H   H15       1.0  0.09689  0.42959  0.31249  1.0000
  H   H16       1.0  0.51341  0.65914  0.43899  1.0000
  C   C37       1.0  0.33856  0.88639  0.35565  1.0000
  C   C38       1.0  0.34549  0.91213  0.34599  1.0000
  C   C39       1.0  0.37076  0.93209  0.35448  1.0000
  C   C40       1.0  0.38948  0.92549  0.37098  1.0000
  C   C41       1.0  0.38358  0.90014  0.37962  1.0000
  C   C42       1.0  0.35806  0.88094  0.37298  1.0000
  H   H17       1.0  0.40789  0.93945  0.37640  1.0000
  H   H18       1.0  0.35369  0.86255  0.37828  1.0000
  H   H19       1.0  0.33170  0.91647  0.33281  1.0000
  C   C43       1.0  0.37696  0.95732  0.34372  1.0000
  C   C44       1.0  0.40230  0.89411  0.39594  1.0000
  C   C45       1.0  0.31346  0.86721  0.34302  1.0000
  H   H20       1.0  0.30239  0.87094  0.30420  1.0000
  H   H21       1.0  0.39873  0.88010  0.43893  1.0000
  H   H22       1.0  0.36475  0.96099  0.31245  1.0000
  C   C46       1.0  0.48007  0.33649  0.35571  1.0000
  C   C47       1.0  0.46128  0.34342  0.34601  1.0000
  C   C48       1.0  0.46658  0.36869  0.35450  1.0000
  C   C49       1.0  0.49189  0.38741  0.37098  1.0000
  C   C50       1.0  0.51134  0.38151  0.37963  1.0000
  C   C51       1.0  0.50503  0.35599  0.37299  1.0000
  H   H23       1.0  0.49635  0.40582  0.37639  1.0000
  H   H24       1.0  0.44315  0.32963  0.33284  1.0000
  C   C52       1.0  0.44755  0.37489  0.34372  1.0000
  C   C53       1.0  0.47416  0.31139  0.34304  1.0000
  H   H25       1.0  0.45937  0.30033  0.30417  1.0000
  H   H26       1.0  0.43166  0.36267  0.31250  1.0000
  C   C54       1.0  0.47965  0.16941  0.35740  1.0000
  C   C55       1.0  0.46124  0.14356  0.34696  1.0000
  C   C56       1.0  0.46722  0.12403  0.35195  1.0000
  C   C57       1.0  0.49272  0.13105  0.36584  1.0000
  C   C58       1.0  0.51191  0.15653  0.37486  1.0000
  C   C59       1.0  0.50489  0.17530  0.37142  1.0000
  H   H27       1.0  0.49748  0.11727  0.36781  1.0000
  H   H28       1.0  0.44290  0.13877  0.33573  1.0000
  C   C60       1.0  0.44881  0.09880  0.33757  1.0000
  C   C61       1.0  0.47284  0.18816  0.35111  1.0000
  H   H29       1.0  0.45557  0.18315  0.32982  1.0000
  H   H30       1.0  0.43482  0.09502  0.29423  1.0000
  H   H31       1.0  0.51090  0.87570  0.41272  1.0000
  C   C62       1.0  0.33814  0.47757  0.35747  1.0000
  C   C63       1.0  0.34558  0.45916  0.34703  1.0000
  C   C64       1.0  0.37109  0.46515  0.35196  1.0000
  C   C65       1.0  0.38958  0.49065  0.36582  1.0000
  C   C66       1.0  0.38327  0.50983  0.37490  1.0000
  C   C67       1.0  0.35748  0.50281  0.37145  1.0000
  H   H32       1.0  0.40811  0.49541  0.36782  1.0000
  H   H33       1.0  0.35273  0.51654  0.37737  1.0000
  H   H34       1.0  0.33203  0.44082  0.33581  1.0000
  C   C68       1.0  0.37791  0.44674  0.33759  1.0000
  C   C69       1.0  0.40171  0.53508  0.38626  1.0000
  C   C70       1.0  0.31258  0.47075  0.35117  1.0000
  H   H35       1.0  0.30031  0.45347  0.33009  1.0000
  H   H36       1.0  0.39683  0.54697  0.41276  1.0000
  H   H37       1.0  0.36771  0.43275  0.29423  1.0000
  C   C71       1.0  0.17147  0.71974  0.35750  1.0000
  C   C72       1.0  0.14562  0.71230  0.34706  1.0000
  C   C73       1.0  0.12610  0.68679  0.35199  1.0000
  C   C74       1.0  0.13311  0.66830  0.36583  1.0000
  C   C75       1.0  0.15860  0.67460  0.37488  1.0000
  C   C76       1.0  0.17736  0.70039  0.37142  1.0000
  H   H38       1.0  0.11934  0.64976  0.36784  1.0000
  H   H39       1.0  0.19585  0.70514  0.37733  1.0000
  H   H40       1.0  0.14083  0.72585  0.33587  1.0000
  C   C77       1.0  0.10087  0.67998  0.33767  1.0000
  C   C78       1.0  0.16541  0.65616  0.38623  1.0000
  C   C79       1.0  0.19022  0.74530  0.35118  1.0000
  H   H41       1.0  0.18520  0.75756  0.33006  1.0000
  H   H42       1.0  0.18218  0.66104  0.41266  1.0000
  H   H43       1.0  0.09708  0.69020  0.29439  1.0000
  C   C80       1.0  0.23365  0.48267  0.37617  1.0000
  C   C81       1.0  0.25096  0.49293  0.44935  1.0000
  C   C82       1.0  0.27420  0.49313  0.44907  1.0000
  H   H44       1.0  0.24673  0.50060  0.50425  1.0000
  N   N19       1.0  0.29117  0.50341  0.52382  1.0000
  O   O19       1.0  0.29831  0.52629  0.53532  1.0000
  O   O20       1.0  0.28144  0.49184  0.59734  1.0000
  N   N20       1.0  0.21274  0.48459  0.37969  1.0000
  C   C83       1.0  0.28106  0.82423  0.37619  1.0000
  C   C84       1.0  0.27400  0.80692  0.44938  1.0000
  C   C85       1.0  0.25097  0.78369  0.44911  1.0000
  H   H45       1.0  0.28591  0.81116  0.50429  1.0000
  N   N21       1.0  0.24427  0.76671  0.52386  1.0000
  O   O21       1.0  0.26002  0.75958  0.53539  1.0000
  O   O22       1.0  0.24243  0.77645  0.59737  1.0000
  N   N22       1.0  0.30388  0.84513  0.37969  1.0000
  C   C86       1.0  0.48470  0.27898  0.37629  1.0000
  C   C87       1.0  0.49491  0.27189  0.44955  1.0000
  C   C88       1.0  0.49512  0.24886  0.44926  1.0000
  H   H46       1.0  0.50254  0.28377  0.50456  1.0000
  N   N23       1.0  0.50535  0.24214  0.52411  1.0000
  O   O23       1.0  0.49371  0.24025  0.59749  1.0000
  N   N24       1.0  0.48663  0.30180  0.37979  1.0000
  C   C89       1.0  0.15369  0.61284  0.36043  1.0000
  C   C90       1.0  0.16120  0.60477  0.43989  1.0000
  C   C91       1.0  0.16152  0.58182  0.43758  1.0000
  H   H47       1.0  0.16632  0.57586  0.49585  1.0000
  N   N25       1.0  0.16719  0.61920  0.52151  1.0000
  O   O24       1.0  0.18927  0.62628  0.54739  1.0000
  O   O25       1.0  0.15233  0.60703  0.58565  1.0000
  N   N26       1.0  0.15128  0.63332  0.35904  1.0000
  C   C92       1.0  0.44504  0.56669  0.36045  1.0000
  C   C93       1.0  0.45310  0.58228  0.43991  1.0000
  C   C94       1.0  0.47605  0.60553  0.43760  1.0000
  H   H48       1.0  0.48201  0.61630  0.49586  1.0000
  N   N27       1.0  0.43867  0.57384  0.52152  1.0000
  O   O26       1.0  0.43160  0.58883  0.54741  1.0000
  O   O27       1.0  0.45084  0.57114  0.58567  1.0000
  N   N28       1.0  0.42455  0.54380  0.35904  1.0000
  C   C95       1.0  0.49118  0.90418  0.36042  1.0000
  C   C96       1.0  0.47560  0.89667  0.43987  1.0000
  C   C97       1.0  0.45234  0.89636  0.43756  1.0000
  H   H49       1.0  0.44157  0.89155  0.49582  1.0000
  N   N29       1.0  0.48403  0.89067  0.52148  1.0000
  O   O28       1.0  0.46903  0.86859  0.54736  1.0000
  O   O29       1.0  0.48673  0.90553  0.58564  1.0000
  N   N30       1.0  0.51407  0.90659  0.35901  1.0000
  C   C98       1.0  0.04327  0.42956  0.45535  1.0000
  N   N31       1.0  0.05692  0.44048  0.53727  1.0000
  O   O30       1.0  0.05197  0.45648  0.56975  1.0000
  O   O31       1.0  0.05231  0.42406  0.59756  1.0000
  C   C99       1.0  0.43448  0.05525  0.37453  1.0000
  C   C100      1.0  0.43155  0.04130  0.45518  1.0000
  C   C101      1.0  0.41828  0.01461  0.45538  1.0000
  H   H50       1.0  0.43945  0.05067  0.51523  1.0000
  N   N32       1.0  0.41550  0.00095  0.53734  1.0000
  O   O32       1.0  0.43643  0.00590  0.57000  1.0000
  O   O33       1.0  0.40366  0.00557  0.59748  1.0000
  N   N33       1.0  0.44921  0.08035  0.37849  1.0000
  C   C102      1.0  0.05732  0.65074  0.37457  1.0000
  C   C103      1.0  0.04336  0.63967  0.45518  1.0000
  H   H51       1.0  0.05273  0.64111  0.51520  1.0000
  N   N34       1.0  0.08241  0.66111  0.37852  1.0000
  C   C104      1.0  0.40716  0.43244  0.37453  1.0000
  C   C105      1.0  0.41819  0.42951  0.45518  1.0000
  C   C106      1.0  0.43160  0.41623  0.45538  1.0000
  H   H52       1.0  0.41673  0.43742  0.51522  1.0000
  N   N35       1.0  0.44248  0.41346  0.53733  1.0000
  O   O34       1.0  0.45847  0.43439  0.56995  1.0000
  O   O35       1.0  0.42603  0.40163  0.59750  1.0000
  N   N36       1.0  0.39677  0.44715  0.37850  1.0000
  C   C107      1.0  0.57497  0.82370  0.37351  1.0000
  C   C108      1.0  0.58486  0.81659  0.29812  1.0000
  C   C109      1.0  0.58505  0.79351  0.30074  1.0000
  H   H53       1.0  0.59170  0.78847  0.24499  1.0000
  N   N37       1.0  0.59349  0.83225  0.21954  1.0000
  O   O36       1.0  0.61625  0.83962  0.20361  1.0000
  O   O37       1.0  0.58083  0.82116  0.14936  1.0000
  N   N38       1.0  0.57256  0.84439  0.37360  1.0000
  C   C110      1.0  0.56853  0.44232  0.35827  1.0000
  C   C111      1.0  0.57648  0.45827  0.28094  1.0000
  C   C112      1.0  0.59941  0.48148  0.28092  1.0000
  H   H54       1.0  0.56535  0.45310  0.22344  1.0000
  N   N39       1.0  0.60721  0.49733  0.20253  1.0000
  O   O38       1.0  0.59164  0.50415  0.18193  1.0000
  O   O39       1.0  0.61017  0.48657  0.13412  1.0000
  N   N40       1.0  0.54590  0.42164  0.35461  1.0000
  C   C113      1.0  0.61556  0.15205  0.35828  1.0000
  C   C114      1.0  0.59960  0.14403  0.28097  1.0000
  C   C115      1.0  0.57639  0.14375  0.28097  1.0000
  H   H55       1.0  0.60477  0.13807  0.22348  1.0000
  N   N41       1.0  0.56054  0.13570  0.20260  1.0000
  O   O40       1.0  0.55371  0.11331  0.18204  1.0000
  O   O41       1.0  0.57129  0.14941  0.13416  1.0000
  N   N42       1.0  0.63624  0.15010  0.35460  1.0000
  C   C116      1.0  0.62555  0.65024  0.37267  1.0000
  C   C117      1.0  0.63601  0.64689  0.29020  1.0000
  C   C118      1.0  0.64967  0.63381  0.29233  1.0000
  H   H56       1.0  0.65644  0.63089  0.23207  1.0000
  N   N43       1.0  0.63150  0.65566  0.20630  1.0000
  O   O42       1.0  0.61910  0.63787  0.15130  1.0000
  O   O43       1.0  0.65170  0.67127  0.16804  1.0000
  N   N44       1.0  0.61047  0.66029  0.37440  1.0000
  C   C119      1.0  0.65230  0.05465  0.37265  1.0000
  C   C120      1.0  0.64894  0.04085  0.29016  1.0000
  C   C121      1.0  0.63585  0.01410  0.29227  1.0000
  H   H57       1.0  0.63292  0.00441  0.23201  1.0000
  N   N45       1.0  0.65770  0.05413  0.20625  1.0000
  O   O44       1.0  0.63991  0.04875  0.15129  1.0000
  O   O45       1.0  0.67330  0.04953  0.16794  1.0000
  N   N46       1.0  0.66236  0.07979  0.37437  1.0000
  C   C122      1.0  0.57987  0.71931  0.35565  1.0000
  C   C123      1.0  0.59866  0.71238  0.34599  1.0000
  C   C124      1.0  0.59336  0.68711  0.35448  1.0000
  C   C125      1.0  0.56805  0.66840  0.37099  1.0000
  C   C126      1.0  0.54860  0.67429  0.37964  1.0000
  C   C127      1.0  0.55491  0.69981  0.37296  1.0000
  H   H58       1.0  0.56359  0.64999  0.37643  1.0000
  H   H59       1.0  0.54089  0.70418  0.37831  1.0000
  H   H60       1.0  0.61679  0.72617  0.33282  1.0000
  C   C128      1.0  0.61239  0.68091  0.34374  1.0000
  C   C129      1.0  0.52384  0.65557  0.39598  1.0000
  C   C130      1.0  0.58578  0.74441  0.34303  1.0000
  H   H61       1.0  0.60058  0.75548  0.30420  1.0000
  H   H62       1.0  0.62828  0.69313  0.31250  1.0000
  H   H63       1.0  0.51906  0.35162  0.37828  1.0000
  C   C131      1.0  0.53610  0.40024  0.39592  1.0000
  H   H64       1.0  0.54654  0.39666  0.43888  1.0000
  C   C132      1.0  0.72139  0.16941  0.35565  1.0000
  C   C133      1.0  0.71445  0.14368  0.34600  1.0000
  C   C134      1.0  0.68918  0.12372  0.35448  1.0000
  C   C135      1.0  0.67047  0.13032  0.37095  1.0000
  C   C136      1.0  0.67637  0.15567  0.37960  1.0000
  C   C137      1.0  0.70189  0.17487  0.37297  1.0000
  H   H65       1.0  0.65206  0.11636  0.37636  1.0000
  H   H66       1.0  0.70625  0.19326  0.37828  1.0000
  H   H67       1.0  0.72824  0.13934  0.33284  1.0000
  C   C138      1.0  0.68298  0.09849  0.34371  1.0000
  C   C139      1.0  0.65764  0.16170  0.39590  1.0000
  C   C140      1.0  0.74649  0.18860  0.34306  1.0000
  H   H68       1.0  0.66122  0.17571  0.43887  1.0000
  H   H69       1.0  0.69521  0.09482  0.31251  1.0000
  H   H70       1.0  0.51863  0.19379  0.37731  1.0000
  C   C141      1.0  0.53716  0.16333  0.38628  1.0000
  H   H71       1.0  0.54905  0.18012  0.41261  1.0000
  C   C142      1.0  0.72180  0.57824  0.35746  1.0000
  C   C143      1.0  0.71436  0.59664  0.34704  1.0000
  C   C144      1.0  0.68885  0.59066  0.35199  1.0000
  C   C145      1.0  0.67037  0.56516  0.36582  1.0000
  C   C146      1.0  0.67666  0.54597  0.37484  1.0000
  C   C147      1.0  0.70246  0.55300  0.37142  1.0000
  H   H72       1.0  0.65183  0.56039  0.36776  1.0000
  H   H73       1.0  0.70721  0.53926  0.37728  1.0000
  H   H74       1.0  0.72791  0.61499  0.33584  1.0000
  C   C148      1.0  0.68204  0.60908  0.33762  1.0000
  C   C149      1.0  0.65822  0.52072  0.38616  1.0000
  C   C150      1.0  0.74736  0.58505  0.35118  1.0000
  H   H75       1.0  0.66311  0.50883  0.41261  1.0000
  H   H76       1.0  0.69225  0.62307  0.29430  1.0000
  C   C151      1.0  0.58030  0.88641  0.35746  1.0000
  C   C152      1.0  0.59871  0.91225  0.34700  1.0000
  C   C153      1.0  0.59272  0.93178  0.35190  1.0000
  C   C154      1.0  0.56722  0.92476  0.36578  1.0000
  C   C155      1.0  0.54804  0.89928  0.37486  1.0000
  C   C156      1.0  0.55506  0.88051  0.37141  1.0000
  H   H77       1.0  0.56246  0.93854  0.36778  1.0000
  H   H78       1.0  0.54133  0.86202  0.37737  1.0000
  H   H79       1.0  0.61706  0.91705  0.33582  1.0000
  C   C157      1.0  0.61114  0.95701  0.33757  1.0000
  C   C158      1.0  0.52279  0.89247  0.38623  1.0000
  C   C159      1.0  0.58712  0.86766  0.35121  1.0000
  H   H80       1.0  0.60440  0.87268  0.33010  1.0000
  H   H81       1.0  0.62513  0.96080  0.29424  1.0000
  C   C160      1.0  0.57520  0.77681  0.37618  1.0000
  C   C161      1.0  0.56494  0.78387  0.44936  1.0000
  C   C162      1.0  0.56474  0.80690  0.44908  1.0000
  H   H82       1.0  0.55727  0.77196  0.50426  1.0000
  N   N47       1.0  0.55446  0.81360  0.52383  1.0000
  O   O46       1.0  0.53158  0.79785  0.53533  1.0000
  O   O47       1.0  0.56603  0.81544  0.59734  1.0000
  N   N48       1.0  0.57329  0.75399  0.37969  1.0000
  O   O48       1.0  0.52822  0.25789  0.53590  1.0000
  C   C163      1.0  0.61490  0.48912  0.36037  1.0000
  C   C164      1.0  0.60683  0.47354  0.43983  1.0000
  C   C165      1.0  0.58388  0.45028  0.43753  1.0000
  H   H83       1.0  0.57792  0.43952  0.49580  1.0000
  N   N49       1.0  0.62126  0.48198  0.52145  1.0000
  O   O49       1.0  0.62834  0.46699  0.54736  1.0000
  O   O50       1.0  0.60909  0.48468  0.58558  1.0000
  N   N50       1.0  0.63539  0.51201  0.35897  1.0000
  C   C166      1.0  0.56876  0.15162  0.36041  1.0000
  C   C167      1.0  0.58435  0.15914  0.43986  1.0000
  C   C168      1.0  0.60761  0.15945  0.43754  1.0000
  H   H84       1.0  0.61838  0.16426  0.49579  1.0000
  N   N51       1.0  0.57592  0.16513  0.52148  1.0000
  O   O51       1.0  0.59091  0.18721  0.54735  1.0000
  O   O52       1.0  0.57322  0.15027  0.58563  1.0000
  N   N52       1.0  0.54586  0.14921  0.35904  1.0000
  C   C169      1.0  0.65281  0.62340  0.37456  1.0000
  C   C170      1.0  0.64175  0.62630  0.45518  1.0000
  C   C171      1.0  0.62833  0.63957  0.45538  1.0000
  H   H85       1.0  0.64320  0.61838  0.51521  1.0000
  N   N53       1.0  0.61743  0.64232  0.53731  1.0000
  O   O53       1.0  0.60144  0.62138  0.56987  1.0000
  O   O54       1.0  0.63387  0.65415  0.59753  1.0000
  N   N54       1.0  0.66318  0.60867  0.37852  1.0000
  C   C172      1.0  0.62543  0.00056  0.37450  1.0000
  C   C173      1.0  0.62837  0.01452  0.45516  1.0000
  C   C174      1.0  0.64165  0.04120  0.45537  1.0000
  H   H86       1.0  0.62046  0.00515  0.51520  1.0000
  N   N55       1.0  0.64443  0.05486  0.53732  1.0000
  O   O55       1.0  0.62350  0.04991  0.56997  1.0000
  O   O56       1.0  0.65627  0.05024  0.59747  1.0000
  N   N56       1.0  0.61072  0.97546  0.37845  1.0000
  C   C175      1.0  0.77918  0.57291  0.37349  1.0000
  C   C176      1.0  0.79619  0.58280  0.29812  1.0000
  C   C177      1.0  0.81945  0.58299  0.30074  1.0000
  H   H87       1.0  0.83114  0.58964  0.24500  1.0000
  N   N57       1.0  0.78915  0.59144  0.21954  1.0000
  O   O57       1.0  0.80454  0.61419  0.20365  1.0000
  O   O58       1.0  0.78759  0.57879  0.14934  1.0000
  N   N58       1.0  0.75607  0.57049  0.37360  1.0000
  C   C178      1.0  0.82577  0.27869  0.37358  1.0000
  C   C179      1.0  0.81861  0.26173  0.29805  1.0000
  C   C180      1.0  0.79554  0.23846  0.30068  1.0000
  H   H88       1.0  0.79046  0.22680  0.24482  1.0000
  N   N59       1.0  0.83423  0.26882  0.21931  1.0000
  O   O59       1.0  0.84159  0.25344  0.20300  1.0000
  O   O60       1.0  0.82309  0.27042  0.14935  1.0000
  N   N60       1.0  0.84645  0.30180  0.37369  1.0000
  C   C181      1.0  0.90583  0.48934  0.35832  1.0000
  C   C182      1.0  0.91384  0.48140  0.28100  1.0000
  C   C183      1.0  0.91412  0.45846  0.28097  1.0000
  H   H89       1.0  0.91979  0.49253  0.22349  1.0000
  N   N61       1.0  0.92216  0.45067  0.20258  1.0000
  O   O61       1.0  0.94455  0.46623  0.18200  1.0000
  O   O62       1.0  0.90844  0.44770  0.13417  1.0000
  N   N62       1.0  0.90778  0.51197  0.35464  1.0000
  H   H90       1.0  0.00648  0.40139  0.23210  1.0000
  C   C184      1.0  0.00322  0.62349  0.37268  1.0000
  N   N63       1.0  0.00375  0.62946  0.20632  1.0000
  N   N64       1.0  0.97809  0.60841  0.37442  1.0000
  C   C185      1.0  0.88846  0.57780  0.35568  1.0000
  C   C186      1.0  0.91419  0.59659  0.34599  1.0000
  C   C187      1.0  0.93415  0.59129  0.35450  1.0000
  C   C188      1.0  0.92756  0.56598  0.37100  1.0000
  C   C189      1.0  0.90221  0.54653  0.37964  1.0000
  C   C190      1.0  0.88300  0.55284  0.37299  1.0000
  H   H91       1.0  0.94151  0.56153  0.37643  1.0000
  H   H92       1.0  0.86461  0.53881  0.37829  1.0000
  H   H93       1.0  0.91852  0.61472  0.33280  1.0000
  C   C191      1.0  0.95938  0.61032  0.34373  1.0000
  C   C192      1.0  0.89617  0.52177  0.39596  1.0000
  C   C193      1.0  0.86927  0.58371  0.34300  1.0000
  H   H94       1.0  0.87300  0.59850  0.30414  1.0000
  H   H95       1.0  0.88218  0.51134  0.43896  1.0000
  H   H96       1.0  0.96305  0.62621  0.31246  1.0000
  H   H97       1.0  0.75756  0.18487  0.30424  1.0000
  H   H98       1.0  0.75963  0.60233  0.33004  1.0000
  C   C194      1.0  0.88847  0.33607  0.35745  1.0000
  C   C195      1.0  0.91431  0.34350  0.34703  1.0000
  C   C196      1.0  0.93384  0.36901  0.35195  1.0000
  C   C197      1.0  0.92683  0.38750  0.36582  1.0000
  C   C198      1.0  0.90135  0.38121  0.37487  1.0000
  C   C199      1.0  0.88258  0.35541  0.37143  1.0000
  H   H99       1.0  0.94061  0.40604  0.36783  1.0000
  H   H100      1.0  0.86409  0.35067  0.37731  1.0000
  H   H101      1.0  0.91910  0.32995  0.33583  1.0000
  C   C200      1.0  0.95907  0.37582  0.33766  1.0000
  C   C201      1.0  0.89454  0.39965  0.38623  1.0000
  C   C202      1.0  0.86972  0.31051  0.35115  1.0000
  H   H102      1.0  0.87472  0.29825  0.32987  1.0000
  H   H103      1.0  0.87777  0.39476  0.41271  1.0000
  H   H104      1.0  0.96286  0.36560  0.29441  1.0000
  C   C203      1.0  0.82629  0.57313  0.37616  1.0000
  C   C204      1.0  0.80898  0.56287  0.44933  1.0000
  C   C205      1.0  0.78574  0.56267  0.44906  1.0000
  H   H105      1.0  0.81321  0.55519  0.50423  1.0000
  N   N65       1.0  0.76876  0.55238  0.52379  1.0000
  O   O63       1.0  0.76163  0.52950  0.53528  1.0000
  O   O64       1.0  0.77849  0.56395  0.59732  1.0000
  N   N66       1.0  0.84720  0.57122  0.37968  1.0000
  C   C206      1.0  0.77890  0.23156  0.37630  1.0000
  C   C207      1.0  0.78599  0.24884  0.44959  1.0000
  C   C208      1.0  0.80901  0.27208  0.44931  1.0000
  H   H106      1.0  0.77411  0.24458  0.50460  1.0000
  N   N67       1.0  0.81575  0.28902  0.52419  1.0000
  O   O65       1.0  0.80000  0.29614  0.53601  1.0000
  O   O66       1.0  0.81764  0.27926  0.59754  1.0000
  N   N68       1.0  0.75607  0.21067  0.37978  1.0000
  C   C209      1.0  0.90626  0.44297  0.36042  1.0000
  C   C210      1.0  0.89875  0.45104  0.43989  1.0000
  C   C211      1.0  0.89844  0.47399  0.43758  1.0000
  H   H107      1.0  0.89364  0.47995  0.49585  1.0000
  N   N69       1.0  0.89276  0.43661  0.52150  1.0000
  O   O67       1.0  0.87069  0.42953  0.54741  1.0000
  O   O68       1.0  0.90763  0.44878  0.58564  1.0000
  N   N70       1.0  0.90866  0.42248  0.35902  1.0000
  C   C212      1.0  0.00262  0.40506  0.37456  1.0000
  H   H108      1.0  0.00721  0.41471  0.51517  1.0000
  N   N71       1.0  0.97753  0.39470  0.37850  1.0000
  N   N72       1.0  0.00302  0.61535  0.53731  1.0000
  O   O69       1.0  0.00763  0.63178  0.59756  1.0000
  C   C213      1.0  0.01617  0.40818  0.29234  1.0000
  C   C214      1.0  0.01702  0.63396  0.29022  1.0000
  O   O70       1.0  0.00913  0.61707  0.15128  1.0000
  O   O71       1.0  0.00834  0.64967  0.16810  1.0000
  C   C215      1.0  0.01658  0.41614  0.45516  1.0000
  C   C216      1.0  0.01667  0.62626  0.45538  1.0000
  O   O72       1.0  0.00796  0.59935  0.56982  1.0000
