data_image0
_chemical_formula_structural       C3H4NHC3H4NHC3H4NHCNCNCNC18H12C3O3CNCNCNC18H12C3O3C3NC2NHOCHNHC3NC2NHOCHNHC3NC2NHOCHNH
_chemical_formula_sum              "C75 H48 N18 O9"
_cell_length_a       36.7173
_cell_length_b       36.7168
_cell_length_c       15.0643
_cell_angle_alpha    90
_cell_angle_beta     90
_cell_angle_gamma    120

_space_group_name_H-M_alt    "P 1"
_space_group_IT_number       1

loop_
  _space_group_symop_operation_xyz
  'x, y, z'

loop_
  _atom_site_type_symbol
  _atom_site_label
  _atom_site_symmetry_multiplicity
  _atom_site_fract_x
  _atom_site_fract_y
  _atom_site_fract_z
  _atom_site_occupancy
  C   C1        1.0  0.47391  0.51888  0.31996  1.0000
  C   C2        1.0  0.50891  0.47957  0.27881  1.0000
  C   C3        1.0  0.48632  0.49961  0.25496  1.0000
  H   H1        1.0  0.47834  0.49947  0.18982  1.0000
  H   H2        1.0  0.51644  0.46488  0.23047  1.0000
  H   H3        1.0  0.43469  0.55823  0.04337  1.0000
  H   H4        1.0  0.43627  0.51113  0.03210  1.0000
  N   N1        1.0  0.45359  0.53954  0.29350  1.0000
  H   H5        1.0  0.46566  0.55854  0.24303  1.0000
  C   C4        1.0  0.47574  0.95393  0.32000  1.0000
  C   C5        1.0  0.51511  0.02822  0.27878  1.0000
  C   C6        1.0  0.49504  0.98559  0.25498  1.0000
  H   H6        1.0  0.49516  0.97772  0.18985  1.0000
  H   H7        1.0  0.52981  0.05043  0.23043  1.0000
  H   H8        1.0  0.43642  0.87544  0.04347  1.0000
  H   H9        1.0  0.48355  0.92408  0.03210  1.0000
  N   N2        1.0  0.45507  0.91295  0.29357  1.0000
  H   H10       1.0  0.43608  0.90601  0.24309  1.0000
  C   C7        1.0  0.04071  0.52087  0.31994  1.0000
  C   C8        1.0  0.96641  0.48584  0.27874  1.0000
  C   C9        1.0  0.00904  0.50847  0.25493  1.0000
  H   H11       1.0  0.01689  0.51650  0.18981  1.0000
  H   H12       1.0  0.94420  0.47833  0.23041  1.0000
  H   H13       1.0  0.11921  0.55999  0.04334  1.0000
  H   H14       1.0  0.07052  0.55837  0.03201  1.0000
  N   N3        1.0  0.08168  0.54125  0.29344  1.0000
  H   H15       1.0  0.08866  0.52912  0.24316  1.0000
  C   C10       1.0  0.28722  0.64816  0.26418  1.0000
  N   N4        1.0  0.30434  0.62282  0.26483  1.0000
  C   C11       1.0  0.34647  0.63794  0.26411  1.0000
  N   N5        1.0  0.37181  0.68040  0.26475  1.0000
  C   C12       1.0  0.35670  0.70742  0.26406  1.0000
  N   N6        1.0  0.31424  0.69029  0.26482  1.0000
  C   C13       1.0  0.36340  0.61070  0.27207  1.0000
  C   C14       1.0  0.33709  0.56689  0.28557  1.0000
  C   C15       1.0  0.35418  0.54072  0.30162  1.0000
  C   C16       1.0  0.39817  0.55735  0.30325  1.0000
  C   C17       1.0  0.42448  0.60092  0.28809  1.0000
  C   C18       1.0  0.40743  0.62706  0.27260  1.0000
  C   C19       1.0  0.24306  0.63127  0.27221  1.0000
  C   C20       1.0  0.21536  0.58724  0.27280  1.0000
  C   C21       1.0  0.17217  0.57022  0.28829  1.0000
  C   C22       1.0  0.15495  0.59656  0.30349  1.0000
  C   C23       1.0  0.18235  0.64055  0.30185  1.0000
  C   C24       1.0  0.22558  0.65760  0.28576  1.0000
  C   C25       1.0  0.38393  0.75158  0.27209  1.0000
  C   C26       1.0  0.36757  0.77925  0.27261  1.0000
  C   C27       1.0  0.39370  0.82245  0.28805  1.0000
  C   C28       1.0  0.43726  0.83971  0.30333  1.0000
  C   C29       1.0  0.45389  0.81234  0.30173  1.0000
  C   C30       1.0  0.42774  0.76910  0.28560  1.0000
  H   H16       1.0  0.15387  0.53821  0.29227  1.0000
  H   H17       1.0  0.22637  0.56678  0.26459  1.0000
  H   H18       1.0  0.17115  0.66069  0.31295  1.0000
  H   H19       1.0  0.24429  0.68962  0.28687  1.0000
  H   H20       1.0  0.33610  0.76823  0.26424  1.0000
  H   H21       1.0  0.37998  0.84075  0.29191  1.0000
  H   H22       1.0  0.44107  0.75042  0.28685  1.0000
  H   H23       1.0  0.48523  0.82357  0.31289  1.0000
  H   H24       1.0  0.42787  0.65853  0.26435  1.0000
  H   H25       1.0  0.45650  0.61464  0.29196  1.0000
  H   H26       1.0  0.33406  0.50938  0.31268  1.0000
  H   H27       1.0  0.30507  0.55355  0.28670  1.0000
  C   C31       1.0  0.11179  0.57915  0.32539  1.0000
  C   C32       1.0  0.46298  0.88288  0.32527  1.0000
  C   C33       1.0  0.41561  0.53162  0.32515  1.0000
  O   O1        1.0  0.39379  0.49886  0.38121  1.0000
  O   O2        1.0  0.49574  0.89382  0.38133  1.0000
  O   O3        1.0  0.10086  0.60097  0.38145  1.0000
  C   C34       1.0  0.70636  0.34747  0.39064  1.0000
  N   N7        1.0  0.68933  0.37288  0.39025  1.0000
  C   C35       1.0  0.64720  0.35780  0.39075  1.0000
  N   N8        1.0  0.62179  0.31535  0.39031  1.0000
  C   C36       1.0  0.63687  0.28830  0.39071  1.0000
  N   N9        1.0  0.67932  0.30534  0.39022  1.0000
  C   C37       1.0  0.63032  0.38516  0.38582  1.0000
  C   C38       1.0  0.65650  0.42885  0.37055  1.0000
  C   C39       1.0  0.63939  0.45532  0.35987  1.0000
  C   C40       1.0  0.59555  0.43918  0.36585  1.0000
  C   C41       1.0  0.56937  0.39572  0.38241  1.0000
  C   C42       1.0  0.58644  0.36922  0.39206  1.0000
  C   C43       1.0  0.75060  0.36435  0.38565  1.0000
  C   C44       1.0  0.77853  0.40823  0.39193  1.0000
  C   C45       1.0  0.82210  0.42530  0.38217  1.0000
  C   C46       1.0  0.83938  0.39913  0.36563  1.0000
  C   C47       1.0  0.81169  0.35528  0.35962  1.0000
  C   C48       1.0  0.76810  0.33817  0.37031  1.0000
  C   C49       1.0  0.60951  0.24406  0.38577  1.0000
  C   C50       1.0  0.62546  0.21614  0.39203  1.0000
  C   C51       1.0  0.59897  0.17257  0.38232  1.0000
  C   C52       1.0  0.55550  0.15528  0.36581  1.0000
  C   C53       1.0  0.53935  0.18297  0.35986  1.0000
  C   C54       1.0  0.56583  0.22656  0.37051  1.0000
  H   H28       1.0  0.84081  0.45732  0.38385  1.0000
  H   H29       1.0  0.76753  0.42857  0.40216  1.0000
  H   H30       1.0  0.82296  0.33531  0.34726  1.0000
  H   H31       1.0  0.74925  0.30630  0.36428  1.0000
  H   H32       1.0  0.65682  0.22715  0.40212  1.0000
  H   H33       1.0  0.61229  0.15387  0.38382  1.0000
  H   H34       1.0  0.55279  0.24540  0.36454  1.0000
  H   H35       1.0  0.50809  0.17169  0.34753  1.0000
  H   H36       1.0  0.56609  0.33786  0.40216  1.0000
  H   H37       1.0  0.53735  0.38240  0.38386  1.0000
  H   H38       1.0  0.65937  0.48658  0.34752  1.0000
  H   H39       1.0  0.68838  0.44187  0.36455  1.0000
  C   C55       1.0  0.88308  0.41671  0.34954  1.0000
  C   C56       1.0  0.52940  0.11158  0.34966  1.0000
  C   C57       1.0  0.57796  0.46528  0.34968  1.0000
  O   O4        1.0  0.59782  0.49727  0.29092  1.0000
  O   O5        1.0  0.49742  0.09946  0.29089  1.0000
  O   O6        1.0  0.89521  0.39690  0.29068  1.0000
  C   C58       1.0  0.48570  0.51890  0.40953  1.0000
  C   C59       1.0  0.50869  0.49872  0.43352  1.0000
  C   C60       1.0  0.52081  0.47930  0.36792  1.0000
  N   N10       1.0  0.52026  0.50039  0.51995  1.0000
  C   C61       1.0  0.51068  0.52012  0.58414  1.0000
  C   C62       1.0  0.48778  0.54002  0.56086  1.0000
  N   N11       1.0  0.47680  0.53910  0.47444  1.0000
  H   H40       1.0  0.52042  0.52078  0.64790  1.0000
  O   O7        1.0  0.47933  0.56235  0.62178  1.0000
  C   C63       1.0  0.43874  0.53810  0.66263  1.0000
  H   H41       1.0  0.41348  0.52723  0.61359  1.0000
  N   N12       1.0  0.54208  0.45895  0.39010  1.0000
  H   H42       1.0  0.53151  0.44001  0.44096  1.0000
  C   C64       1.0  0.47575  0.96571  0.40957  1.0000
  C   C65       1.0  0.49596  0.00890  0.43351  1.0000
  C   C66       1.0  0.51539  0.04043  0.36788  1.0000
  N   N13       1.0  0.49433  0.01883  0.51994  1.0000
  C   C67       1.0  0.47459  0.98953  0.58416  1.0000
  C   C68       1.0  0.45465  0.94673  0.56092  1.0000
  N   N14       1.0  0.45554  0.93664  0.47451  1.0000
  H   H43       1.0  0.47396  0.99864  0.64792  1.0000
  O   O8        1.0  0.43232  0.91597  0.62188  1.0000
  C   C69       1.0  0.45655  0.89960  0.66269  1.0000
  H   H44       1.0  0.46737  0.88516  0.61364  1.0000
  N   N15       1.0  0.53579  0.08205  0.38999  1.0000
  H   H45       1.0  0.55468  0.09041  0.44092  1.0000
  C   C70       1.0  0.02894  0.50902  0.40949  1.0000
  C   C71       1.0  0.98576  0.48597  0.43343  1.0000
  C   C72       1.0  0.95423  0.47387  0.36782  1.0000
  N   N16       1.0  0.97584  0.47436  0.51985  1.0000
  C   C73       1.0  0.00516  0.48394  0.58404  1.0000
  C   C74       1.0  0.04796  0.50685  0.56078  1.0000
  N   N17       1.0  0.05803  0.51791  0.47439  1.0000
  H   H46       1.0  0.99607  0.47416  0.64779  1.0000
  O   O9        1.0  0.07873  0.51533  0.62173  1.0000
  C   C75       1.0  0.09503  0.55592  0.66258  1.0000
  H   H47       1.0  0.10943  0.58119  0.61355  1.0000
  N   N18       1.0  0.91260  0.45261  0.38996  1.0000
  H   H48       1.0  0.90423  0.46310  0.44095  1.0000
