data_image0
_chemical_formula_structural       C16H20C16H20C16H20NC2HNHNC2HNHNC2HNHNC2HNHNC2HNHNC2HNHC3NC3NC5NC5NC36H26C4H4C3NC3NC5NC5NC36H26C4H4C3NC3NC5NC5NC36H26C4H4CNCNH2NHCNCNH2NHCNCNH2NHCNCNH2NHCNCNH2NHCNCNH2NH
_chemical_formula_sum              "C240 H180 N42"
_cell_length_a       66.1585
_cell_length_b       66.1585
_cell_length_c       15.0106
_cell_angle_alpha    89.9578
_cell_angle_beta     90.0422
_cell_angle_gamma    120

_space_group_name_H-M_alt    "P 1"
_space_group_IT_number       1

loop_
  _space_group_symop_operation_xyz
  'x, y, z'

loop_
  _atom_site_type_symbol
  _atom_site_label
  _atom_site_symmetry_multiplicity
  _atom_site_fract_x
  _atom_site_fract_y
  _atom_site_fract_z
  _atom_site_occupancy
  C   C1        1.0  0.10200  0.53915  0.24864  1.0000
  C   C2        1.0  0.12013  0.53390  0.24725  1.0000
  C   C3        1.0  0.18817  0.53782  0.27464  1.0000
  C   C4        1.0  0.16844  0.54055  0.27230  1.0000
  C   C5        1.0  0.09879  0.65710  0.26317  1.0000
  C   C6        1.0  0.11425  0.68132  0.26788  1.0000
  C   C7        1.0  0.13394  0.73334  0.29236  1.0000
  C   C8        1.0  0.14951  0.75755  0.29660  1.0000
  C   C9        1.0  0.93935  0.58697  0.24800  1.0000
  C   C10       1.0  0.95731  0.58147  0.24912  1.0000
  C   C11       1.0  0.89144  0.58124  0.27455  1.0000
  C   C12       1.0  0.87201  0.58447  0.27702  1.0000
  C   C13       1.0  0.96049  0.46376  0.26268  1.0000
  C   C14       1.0  0.94482  0.43958  0.26727  1.0000
  C   C15       1.0  0.90830  0.36329  0.29516  1.0000
  C   C16       1.0  0.92428  0.38742  0.29116  1.0000
  H   H1        1.0  0.90915  0.35265  0.24770  1.0000
  H   H2        1.0  0.93657  0.39349  0.24169  1.0000
  H   H3        1.0  0.93706  0.43091  0.20962  1.0000
  H   H4        1.0  0.96407  0.47195  0.20208  1.0000
  H   H5        1.0  0.96332  0.57876  0.19006  1.0000
  H   H6        1.0  0.93285  0.58826  0.18769  1.0000
  H   H7        1.0  0.09517  0.64898  0.20245  1.0000
  H   H8        1.0  0.12184  0.69009  0.21018  1.0000
  H   H9        1.0  0.14833  0.76809  0.24946  1.0000
  H   H10       1.0  0.12160  0.72709  0.24306  1.0000
  H   H11       1.0  0.16904  0.55355  0.23334  1.0000
  H   H12       1.0  0.20234  0.54868  0.23662  1.0000
  H   H13       1.0  0.12652  0.53255  0.18682  1.0000
  H   H14       1.0  0.09576  0.54164  0.18965  1.0000
  H   H15       1.0  0.89045  0.56799  0.23616  1.0000
  H   H16       1.0  0.85764  0.57367  0.23976  1.0000
  H   H17       1.0  0.17948  0.80209  0.31926  1.0000
  H   H18       1.0  0.22426  0.53258  0.29728  1.0000
  H   H19       1.0  0.83655  0.59070  0.29991  1.0000
  H   H20       1.0  0.87758  0.31892  0.31738  1.0000
  C   C17       1.0  0.55304  0.65789  0.24917  1.0000
  C   C18       1.0  0.55829  0.68128  0.24775  1.0000
  C   C19       1.0  0.55437  0.74539  0.27504  1.0000
  C   C20       1.0  0.55162  0.72292  0.27280  1.0000
  C   C21       1.0  0.43507  0.53672  0.26375  1.0000
  C   C22       1.0  0.41086  0.52798  0.26844  1.0000
  C   C23       1.0  0.35884  0.49566  0.29299  1.0000
  C   C24       1.0  0.33463  0.48701  0.29723  1.0000
  C   C25       1.0  0.50517  0.44742  0.24852  1.0000
  C   C26       1.0  0.51067  0.47089  0.24969  1.0000
  C   C27       1.0  0.51087  0.40521  0.27485  1.0000
  C   C28       1.0  0.50763  0.38255  0.27734  1.0000
  C   C29       1.0  0.62842  0.59180  0.26322  1.0000
  C   C30       1.0  0.65259  0.60030  0.26780  1.0000
  C   C31       1.0  0.72888  0.64008  0.29575  1.0000
  C   C32       1.0  0.70476  0.63192  0.29176  1.0000
  H   H21       1.0  0.73953  0.65161  0.24835  1.0000
  H   H22       1.0  0.69867  0.63816  0.24235  1.0000
  H   H23       1.0  0.66127  0.60125  0.21012  1.0000
  H   H24       1.0  0.62023  0.58723  0.20260  1.0000
  H   H25       1.0  0.51337  0.47963  0.19064  1.0000
  H   H26       1.0  0.50386  0.43966  0.18819  1.0000
  H   H27       1.0  0.44320  0.54122  0.20303  1.0000
  H   H28       1.0  0.40209  0.52679  0.21072  1.0000
  H   H29       1.0  0.32408  0.47527  0.25018  1.0000
  H   H30       1.0  0.36509  0.48956  0.24377  1.0000
  H   H31       1.0  0.53865  0.71054  0.23375  1.0000
  H   H32       1.0  0.54350  0.74870  0.23704  1.0000
  H   H33       1.0  0.55966  0.68903  0.18731  1.0000
  H   H34       1.0  0.55056  0.64919  0.19018  1.0000
  H   H35       1.0  0.52412  0.41748  0.23649  1.0000
  H   H36       1.0  0.51842  0.37899  0.24002  1.0000
  H   H37       1.0  0.29008  0.47240  0.31993  1.0000
  H   H38       1.0  0.55957  0.78669  0.29777  1.0000
  H   H39       1.0  0.50139  0.34084  0.30009  1.0000
  H   H40       1.0  0.77326  0.65375  0.31797  1.0000
  C   C33       1.0  0.43431  0.99022  0.24964  1.0000
  C   C34       1.0  0.41093  0.97208  0.24816  1.0000
  C   C35       1.0  0.34682  0.90403  0.27550  1.0000
  C   C36       1.0  0.36929  0.92377  0.27323  1.0000
  C   C37       1.0  0.55543  0.99339  0.26444  1.0000
  C   C38       1.0  0.56417  0.97792  0.26912  1.0000
  C   C39       1.0  0.59649  0.95820  0.29361  1.0000
  C   C40       1.0  0.60513  0.94263  0.29783  1.0000
  C   C41       1.0  0.64473  0.15280  0.24894  1.0000
  C   C42       1.0  0.62127  0.13484  0.25018  1.0000
  C   C43       1.0  0.68693  0.20070  0.27530  1.0000
  C   C44       1.0  0.70960  0.22014  0.27772  1.0000
  C   C45       1.0  0.50041  0.13171  0.26375  1.0000
  C   C46       1.0  0.49191  0.14738  0.26834  1.0000
  C   C47       1.0  0.45215  0.18390  0.29631  1.0000
  C   C48       1.0  0.46030  0.16793  0.29230  1.0000
  H   H41       1.0  0.44061  0.18302  0.24892  1.0000
  H   H42       1.0  0.45406  0.15563  0.24288  1.0000
  H   H43       1.0  0.49096  0.15513  0.21066  1.0000
  H   H44       1.0  0.50497  0.12810  0.20313  1.0000
  H   H45       1.0  0.61250  0.12883  0.19116  1.0000
  H   H46       1.0  0.65248  0.15929  0.18858  1.0000
  H   H47       1.0  0.55092  0.99703  0.20372  1.0000
  H   H48       1.0  0.56535  0.97034  0.21140  1.0000
  H   H49       1.0  0.61685  0.94383  0.25073  1.0000
  H   H50       1.0  0.60259  0.97057  0.24437  1.0000
  H   H51       1.0  0.38169  0.92317  0.23438  1.0000
  H   H52       1.0  0.34353  0.88985  0.23760  1.0000
  H   H53       1.0  0.40319  0.96570  0.18771  1.0000
  H   H54       1.0  0.44304  0.99645  0.19068  1.0000
  H   H55       1.0  0.67464  0.20170  0.23711  1.0000
  H   H56       1.0  0.71312  0.23451  0.24056  1.0000
  H   H57       1.0  0.61971  0.91266  0.32042  1.0000
  H   H58       1.0  0.30554  0.86792  0.29816  1.0000
  H   H59       1.0  0.75129  0.25561  0.30047  1.0000
  H   H60       1.0  0.43847  0.21459  0.31857  1.0000
  N   N1        1.0  0.26330  0.50065  0.26059  1.0000
  C   C49       1.0  0.24178  0.49774  0.24632  1.0000
  C   C50       1.0  0.22751  0.49507  0.32030  1.0000
  H   H61       1.0  0.23678  0.49896  0.18307  1.0000
  N   N2        1.0  0.20650  0.49579  0.31414  1.0000
  H   H62       1.0  0.20001  0.49186  0.25034  1.0000
  N   N3        1.0  0.59139  0.85764  0.26103  1.0000
  C   C51       1.0  0.59429  0.83902  0.24679  1.0000
  C   C52       1.0  0.59705  0.82745  0.32074  1.0000
  H   H63       1.0  0.59314  0.83287  0.18352  1.0000
  N   N4        1.0  0.59636  0.80574  0.31464  1.0000
  H   H64       1.0  0.60031  0.80321  0.25085  1.0000
  N   N5        1.0  0.23452  0.82887  0.26028  1.0000
  C   C53       1.0  0.25316  0.85039  0.24628  1.0000
  C   C54       1.0  0.26475  0.86460  0.32041  1.0000
  H   H65       1.0  0.25931  0.85548  0.18303  1.0000
  N   N6        1.0  0.28646  0.88564  0.31447  1.0000
  H   H66       1.0  0.28904  0.89214  0.25065  1.0000
  N   N7        1.0  0.79899  0.62440  0.25961  1.0000
  C   C55       1.0  0.82026  0.62667  0.24578  1.0000
  C   C56       1.0  0.83427  0.62880  0.32005  1.0000
  H   H67       1.0  0.82523  0.62541  0.18257  1.0000
  N   N8        1.0  0.85501  0.62757  0.31418  1.0000
  H   H68       1.0  0.86140  0.63111  0.25018  1.0000
  N   N9        1.0  0.46782  0.26968  0.26023  1.0000
  C   C57       1.0  0.46550  0.28865  0.24632  1.0000
  C   C58       1.0  0.46327  0.30047  0.32052  1.0000
  H   H69       1.0  0.46684  0.29495  0.18314  1.0000
  N   N10       1.0  0.46453  0.32246  0.31470  1.0000
  H   H70       1.0  0.46095  0.32530  0.25074  1.0000
  N   N11       1.0  0.82245  0.29322  0.25933  1.0000
  C   C59       1.0  0.80344  0.27193  0.24568  1.0000
  C   C60       1.0  0.79168  0.25791  0.32004  1.0000
  H   H71       1.0  0.79717  0.26690  0.18253  1.0000
  N   N12       1.0  0.76971  0.23715  0.31445  1.0000
  H   H72       1.0  0.76681  0.23074  0.25049  1.0000
  C   C61       1.0  0.02040  0.49186  0.32859  1.0000
  C   C62       1.0  0.04445  0.50467  0.32709  1.0000
  C   C63       1.0  0.05122  0.52834  0.33059  1.0000
  N   N13       1.0  0.03108  0.52899  0.33344  1.0000
  C   C64       1.0  0.01191  0.50741  0.33288  1.0000
  C   C65       1.0  0.98789  0.50080  0.33625  1.0000
  C   C66       1.0  0.97925  0.51658  0.33662  1.0000
  N   N14       1.0  0.99173  0.54012  0.33328  1.0000
  C   C67       1.0  0.97785  0.54967  0.33450  1.0000
  C   C68       1.0  0.95495  0.53103  0.33847  1.0000
  C   C69       1.0  0.95582  0.51062  0.34013  1.0000
  C   C70       1.0  0.98478  0.57373  0.33202  1.0000
  C   C71       1.0  0.00827  0.59241  0.33070  1.0000
  N   N15       1.0  0.02841  0.59175  0.33358  1.0000
  C   C72       1.0  0.04758  0.61333  0.33307  1.0000
  C   C73       1.0  0.03910  0.62888  0.32873  1.0000
  C   C74       1.0  0.01504  0.61607  0.32713  1.0000
  C   C75       1.0  0.07160  0.61995  0.33653  1.0000
  C   C76       1.0  0.08024  0.60417  0.33688  1.0000
  N   N16       1.0  0.06776  0.58063  0.33348  1.0000
  C   C77       1.0  0.08164  0.57107  0.33458  1.0000
  C   C78       1.0  0.10455  0.58972  0.33847  1.0000
  C   C79       1.0  0.10367  0.61013  0.34028  1.0000
  C   C80       1.0  0.07471  0.54702  0.33196  1.0000
  C   C81       1.0  0.09271  0.54123  0.33048  1.0000
  C   C82       1.0  0.12940  0.53054  0.32735  1.0000
  C   C83       1.0  0.11969  0.53232  0.40904  1.0000
  C   C84       1.0  0.10160  0.53763  0.41072  1.0000
  C   C85       1.0  0.14872  0.52660  0.32612  1.0000
  C   C86       1.0  0.14927  0.50949  0.38120  1.0000
  C   C87       1.0  0.16901  0.50671  0.38343  1.0000
  C   C88       1.0  0.18880  0.52098  0.33074  1.0000
  C   C89       1.0  0.08819  0.64421  0.34117  1.0000
  C   C90       1.0  0.11949  0.69331  0.35037  1.0000
  C   C91       1.0  0.10881  0.68013  0.42819  1.0000
  C   C92       1.0  0.09336  0.65593  0.42379  1.0000
  C   C93       1.0  0.13506  0.71793  0.35515  1.0000
  C   C94       1.0  0.16675  0.76715  0.36380  1.0000
  C   C95       1.0  0.16765  0.75189  0.42754  1.0000
  C   C96       1.0  0.15215  0.72770  0.42309  1.0000
  C   C97       1.0  0.96679  0.57954  0.33080  1.0000
  C   C98       1.0  0.95825  0.58351  0.41112  1.0000
  C   C99       1.0  0.94033  0.58908  0.40971  1.0000
  C   C100      1.0  0.93047  0.59076  0.32820  1.0000
  C   C101      1.0  0.91142  0.59512  0.32727  1.0000
  C   C102      1.0  0.87195  0.60173  0.33224  1.0000
  C   C103      1.0  0.89199  0.61591  0.38388  1.0000
  C   C104      1.0  0.91144  0.61264  0.38147  1.0000
  C   C105      1.0  0.97128  0.47653  0.34069  1.0000
  C   C106      1.0  0.96612  0.46473  0.42317  1.0000
  C   C107      1.0  0.93954  0.42752  0.34965  1.0000
  C   C108      1.0  0.95045  0.44057  0.42746  1.0000
  C   C109      1.0  0.92362  0.40297  0.35436  1.0000
  C   C110      1.0  0.90657  0.39342  0.42246  1.0000
  C   C111      1.0  0.89067  0.36932  0.42670  1.0000
  C   C112      1.0  0.89110  0.35392  0.36252  1.0000
  H   H73       1.0  0.87848  0.36312  0.47650  1.0000
  H   H74       1.0  0.90517  0.40401  0.46874  1.0000
  H   H75       1.0  0.94750  0.43251  0.48813  1.0000
  H   H76       1.0  0.97394  0.47360  0.48048  1.0000
  H   H77       1.0  0.01090  0.47404  0.32693  1.0000
  H   H78       1.0  0.05505  0.49755  0.32463  1.0000
  H   H79       1.0  0.03048  0.54315  0.33843  1.0000
  H   H80       1.0  0.02900  0.57759  0.33867  1.0000
  H   H81       1.0  0.94155  0.49423  0.34317  1.0000
  H   H82       1.0  0.93994  0.53187  0.34043  1.0000
  H   H83       1.0  0.96483  0.58211  0.47112  1.0000
  H   H84       1.0  0.93406  0.59118  0.46921  1.0000
  H   H85       1.0  0.00445  0.62320  0.32459  1.0000
  H   H86       1.0  0.04859  0.64671  0.32705  1.0000
  H   H87       1.0  0.11956  0.58889  0.34030  1.0000
  H   H88       1.0  0.11794  0.62652  0.34325  1.0000
  H   H89       1.0  0.08563  0.64698  0.48108  1.0000
  H   H90       1.0  0.11173  0.68813  0.48894  1.0000
  H   H91       1.0  0.15387  0.71723  0.46908  1.0000
  H   H92       1.0  0.17987  0.75827  0.47727  1.0000
  H   H93       1.0  0.09519  0.53918  0.47084  1.0000
  H   H94       1.0  0.12626  0.53056  0.46847  1.0000
  H   H95       1.0  0.16905  0.49451  0.42530  1.0000
  H   H96       1.0  0.13531  0.49896  0.42076  1.0000
  H   H97       1.0  0.92560  0.62314  0.42021  1.0000
  H   H98       1.0  0.89237  0.62842  0.42507  1.0000
  C   C113      1.0  0.18406  0.79257  0.36726  1.0000
  C   C114      1.0  0.21029  0.51925  0.33862  1.0000
  C   C115      1.0  0.87334  0.32863  0.36564  1.0000
  C   C116      1.0  0.85080  0.60404  0.34022  1.0000
  H   H99       1.0  0.18354  0.79917  0.43344  1.0000
  H   H100      1.0  0.21611  0.52310  0.40796  1.0000
  H   H101      1.0  0.84517  0.60060  0.40986  1.0000
  H   H102      1.0  0.87369  0.32185  0.43167  1.0000
  C   C117      1.0  0.60032  0.62355  0.32972  1.0000
  C   C118      1.0  0.58751  0.63480  0.32818  1.0000
  C   C119      1.0  0.56385  0.61791  0.33140  1.0000
  N   N17       1.0  0.56319  0.59711  0.33416  1.0000
  C   C120      1.0  0.58477  0.59952  0.33366  1.0000
  C   C121      1.0  0.59137  0.58210  0.33681  1.0000
  C   C122      1.0  0.57559  0.55769  0.33713  1.0000
  N   N18       1.0  0.55205  0.54662  0.33390  1.0000
  C   C123      1.0  0.54249  0.52318  0.33507  1.0000
  C   C124      1.0  0.56113  0.51892  0.33889  1.0000
  C   C125      1.0  0.58155  0.54021  0.34052  1.0000
  C   C126      1.0  0.51843  0.50607  0.33264  1.0000
  C   C127      1.0  0.49976  0.51088  0.33134  1.0000
  N   N19       1.0  0.50042  0.53168  0.33420  1.0000
  C   C128      1.0  0.47884  0.52927  0.33375  1.0000
  C   C129      1.0  0.46329  0.50524  0.32951  1.0000
  C   C130      1.0  0.47609  0.49399  0.32785  1.0000
  C   C131      1.0  0.47223  0.54668  0.33718  1.0000
  C   C132      1.0  0.48800  0.57109  0.33745  1.0000
  N   N20       1.0  0.51155  0.58216  0.33412  1.0000
  C   C133      1.0  0.52111  0.60559  0.33507  1.0000
  C   C134      1.0  0.50246  0.60985  0.33885  1.0000
  C   C135      1.0  0.48204  0.58857  0.34068  1.0000
  C   C136      1.0  0.54516  0.62271  0.33253  1.0000
  C   C137      1.0  0.55095  0.64651  0.33103  1.0000
  C   C138      1.0  0.56166  0.69389  0.32784  1.0000
  C   C139      1.0  0.55984  0.68237  0.40955  1.0000
  C   C140      1.0  0.55455  0.65897  0.41125  1.0000
  C   C141      1.0  0.56560  0.71715  0.32657  1.0000
  C   C142      1.0  0.58270  0.73479  0.38165  1.0000
  C   C143      1.0  0.58547  0.75731  0.38387  1.0000
  C   C144      1.0  0.57120  0.76284  0.33117  1.0000
  C   C145      1.0  0.44796  0.53901  0.34178  1.0000
  C   C146      1.0  0.39887  0.52125  0.35094  1.0000
  C   C147      1.0  0.41205  0.52375  0.42878  1.0000
  C   C148      1.0  0.43625  0.53248  0.42441  1.0000
  C   C149      1.0  0.37425  0.51220  0.35569  1.0000
  C   C150      1.0  0.32502  0.49464  0.36436  1.0000
  C   C151      1.0  0.34029  0.51082  0.42802  1.0000
  C   C152      1.0  0.36448  0.51953  0.42350  1.0000
  C   C153      1.0  0.51262  0.48227  0.33138  1.0000
  C   C154      1.0  0.50867  0.46973  0.41169  1.0000
  C   C155      1.0  0.50312  0.44625  0.41024  1.0000
  C   C156      1.0  0.50139  0.43472  0.32871  1.0000
  C   C157      1.0  0.49702  0.41131  0.32773  1.0000
  C   C158      1.0  0.49040  0.36521  0.33262  1.0000
  C   C159      1.0  0.47624  0.37108  0.38437  1.0000
  C   C160      1.0  0.47953  0.39380  0.38203  1.0000
  C   C161      1.0  0.61564  0.58975  0.34125  1.0000
  C   C162      1.0  0.62743  0.59632  0.42375  1.0000
  C   C163      1.0  0.66465  0.60702  0.35019  1.0000
  C   C164      1.0  0.65159  0.60481  0.42802  1.0000
  C   C165      1.0  0.68921  0.61566  0.35489  1.0000
  C   C166      1.0  0.69876  0.60812  0.42291  1.0000
  C   C167      1.0  0.72286  0.61633  0.42715  1.0000
  C   C168      1.0  0.73826  0.63221  0.36303  1.0000
  H   H103      1.0  0.72907  0.61032  0.47691  1.0000
  H   H104      1.0  0.68817  0.59610  0.46915  1.0000
  H   H105      1.0  0.65965  0.60988  0.48871  1.0000
  H   H106      1.0  0.61856  0.59523  0.48108  1.0000
  H   H107      1.0  0.61814  0.63188  0.32819  1.0000
  H   H108      1.0  0.59464  0.65253  0.32591  1.0000
  H   H109      1.0  0.54902  0.58234  0.33832  1.0000
  H   H110      1.0  0.51458  0.54643  0.33924  1.0000
  H   H111      1.0  0.59793  0.54231  0.34349  1.0000
  H   H112      1.0  0.56029  0.50308  0.34082  1.0000
  H   H113      1.0  0.51009  0.47769  0.47170  1.0000
  H   H114      1.0  0.50101  0.43785  0.46973  1.0000
  H   H115      1.0  0.46896  0.47627  0.32548  1.0000
  H   H116      1.0  0.44546  0.49691  0.32796  1.0000
  H   H117      1.0  0.50329  0.62570  0.34056  1.0000
  H   H118      1.0  0.46566  0.58646  0.34359  1.0000
  H   H119      1.0  0.44519  0.53370  0.48173  1.0000
  H   H120      1.0  0.40404  0.51866  0.48955  1.0000
  H   H121      1.0  0.37495  0.53171  0.46948  1.0000
  H   H122      1.0  0.33391  0.51666  0.47769  1.0000
  H   H123      1.0  0.55298  0.65099  0.47138  1.0000
  H   H124      1.0  0.56163  0.69069  0.46896  1.0000
  H   H125      1.0  0.59765  0.76953  0.42581  1.0000
  H   H126      1.0  0.59323  0.73136  0.42125  1.0000
  H   H127      1.0  0.46905  0.39746  0.42086  1.0000
  H   H128      1.0  0.46376  0.35894  0.42566  1.0000
  C   C169      1.0  0.29960  0.48649  0.36788  1.0000
  C   C170      1.0  0.57291  0.78604  0.33909  1.0000
  C   C171      1.0  0.76355  0.63977  0.36618  1.0000
  C   C172      1.0  0.48808  0.34175  0.34056  1.0000
  H   H129      1.0  0.29302  0.47937  0.43408  1.0000
  H   H130      1.0  0.56905  0.78798  0.40844  1.0000
  H   H131      1.0  0.49156  0.33955  0.41015  1.0000
  H   H132      1.0  0.77033  0.64687  0.43223  1.0000
  C   C173      1.0  0.46864  0.07182  0.33002  1.0000
  C   C174      1.0  0.45739  0.04777  0.32853  1.0000
  C   C175      1.0  0.47428  0.04099  0.33186  1.0000
  N   N21       1.0  0.49507  0.06112  0.33467  1.0000
  C   C176      1.0  0.49267  0.08030  0.33412  1.0000
  C   C177      1.0  0.51009  0.10432  0.33733  1.0000
  C   C178      1.0  0.53451  0.11295  0.33772  1.0000
  N   N22       1.0  0.54557  0.10046  0.33446  1.0000
  C   C179      1.0  0.56900  0.11434  0.33566  1.0000
  C   C180      1.0  0.57327  0.13724  0.33947  1.0000
  C   C181      1.0  0.55199  0.13638  0.34115  1.0000
  C   C182      1.0  0.58611  0.10739  0.33325  1.0000
  C   C183      1.0  0.58130  0.08390  0.33200  1.0000
  N   N23       1.0  0.56050  0.06377  0.33494  1.0000
  C   C184      1.0  0.56290  0.04459  0.33445  1.0000
  C   C185      1.0  0.58693  0.05306  0.33012  1.0000
  C   C186      1.0  0.59818  0.07712  0.32851  1.0000
  C   C187      1.0  0.54549  0.02057  0.33787  1.0000
  C   C188      1.0  0.52107  0.01194  0.33811  1.0000
  N   N24       1.0  0.51002  0.02443  0.33473  1.0000
  C   C189      1.0  0.48658  0.01055  0.33569  1.0000
  C   C190      1.0  0.48232  0.98765  0.33952  1.0000
  C   C191      1.0  0.50359  0.98851  0.34139  1.0000
  C   C192      1.0  0.46947  0.01750  0.33309  1.0000
  C   C193      1.0  0.44567  0.99950  0.33153  1.0000
  C   C194      1.0  0.39829  0.96283  0.32822  1.0000
  C   C195      1.0  0.40978  0.97252  0.40995  1.0000
  C   C196      1.0  0.43318  0.99062  0.41172  1.0000
  C   C197      1.0  0.37504  0.94351  0.32689  1.0000
  C   C198      1.0  0.35737  0.94295  0.38179  1.0000
  C   C199      1.0  0.33485  0.92320  0.38399  1.0000
  C   C200      1.0  0.32935  0.90340  0.33142  1.0000
  C   C201      1.0  0.55315  0.00397  0.34247  1.0000
  C   C202      1.0  0.57092  0.97264  0.35161  1.0000
  C   C203      1.0  0.56843  0.98330  0.42945  1.0000
  C   C204      1.0  0.55970  0.99878  0.42508  1.0000
  C   C205      1.0  0.57997  0.95707  0.35635  1.0000
  C   C206      1.0  0.59750  0.92537  0.36496  1.0000
  C   C207      1.0  0.58134  0.92446  0.42866  1.0000
  C   C208      1.0  0.57265  0.93996  0.42421  1.0000
  C   C209      1.0  0.60992  0.12538  0.33191  1.0000
  C   C210      1.0  0.62248  0.13391  0.41217  1.0000
  C   C211      1.0  0.64597  0.15183  0.41063  1.0000
  C   C212      1.0  0.65746  0.16168  0.32907  1.0000
  C   C213      1.0  0.68087  0.18072  0.32803  1.0000
  C   C214      1.0  0.72696  0.22020  0.33281  1.0000
  C   C215      1.0  0.72113  0.20015  0.38439  1.0000
  C   C216      1.0  0.69841  0.18071  0.38210  1.0000
  C   C217      1.0  0.50245  0.12094  0.34177  1.0000
  C   C218      1.0  0.49588  0.12614  0.42427  1.0000
  C   C219      1.0  0.48519  0.15269  0.35073  1.0000
  C   C220      1.0  0.48740  0.14181  0.42856  1.0000
  C   C221      1.0  0.47656  0.16861  0.35543  1.0000
  C   C222      1.0  0.48410  0.18568  0.42348  1.0000
  C   C223      1.0  0.47590  0.20158  0.42770  1.0000
  C   C224      1.0  0.46002  0.20111  0.36361  1.0000
  H   H133      1.0  0.48190  0.21377  0.47751  1.0000
  H   H134      1.0  0.49612  0.18710  0.46970  1.0000
  H   H135      1.0  0.48232  0.14478  0.48923  1.0000
  H   H136      1.0  0.49695  0.11832  0.48160  1.0000
  H   H137      1.0  0.46032  0.08133  0.32839  1.0000
  H   H138      1.0  0.43966  0.03718  0.32611  1.0000
  H   H139      1.0  0.50984  0.06172  0.33916  1.0000
  H   H140      1.0  0.54574  0.06318  0.34001  1.0000
  H   H141      1.0  0.54989  0.15066  0.34411  1.0000
  H   H142      1.0  0.58912  0.15225  0.34148  1.0000
  H   H143      1.0  0.61454  0.12735  0.47221  1.0000
  H   H144      1.0  0.65438  0.15811  0.47010  1.0000
  H   H145      1.0  0.61590  0.08771  0.32589  1.0000
  H   H146      1.0  0.59525  0.04356  0.32845  1.0000
  H   H147      1.0  0.46647  0.97264  0.34124  1.0000
  H   H148      1.0  0.50570  0.97423  0.34432  1.0000
  H   H149      1.0  0.55849  0.00649  0.48240  1.0000
  H   H150      1.0  0.57353  0.98038  0.49020  1.0000
  H   H151      1.0  0.56046  0.93823  0.47018  1.0000
  H   H152      1.0  0.57549  0.91222  0.47833  1.0000
  H   H153      1.0  0.44115  0.99703  0.47186  1.0000
  H   H154      1.0  0.40144  0.96597  0.46934  1.0000
  H   H155      1.0  0.32261  0.92316  0.42575  1.0000
  H   H156      1.0  0.36078  0.95692  0.42128  1.0000
  H   H157      1.0  0.69477  0.16655  0.42083  1.0000
  H   H158      1.0  0.73329  0.19978  0.42553  1.0000
  C   C225      1.0  0.60562  0.90807  0.36840  1.0000
  C   C226      1.0  0.30615  0.88191  0.33929  1.0000
  C   C227      1.0  0.45245  0.21884  0.36681  1.0000
  C   C228      1.0  0.75041  0.24136  0.34071  1.0000
  H   H159      1.0  0.61274  0.90858  0.43459  1.0000
  H   H160      1.0  0.30417  0.87612  0.40870  1.0000
  H   H161      1.0  0.75265  0.24697  0.41036  1.0000
  H   H162      1.0  0.44534  0.21847  0.43285  1.0000
  C   C229      1.0  0.27173  0.50037  0.34282  1.0000
  N   N25       1.0  0.23612  0.49503  0.40247  1.0000
  C   C230      1.0  0.25743  0.49731  0.41795  1.0000
  N   N26       1.0  0.26408  0.49794  0.50366  1.0000
  H   H163      1.0  0.27953  0.50080  0.51916  1.0000
  H   H164      1.0  0.25366  0.49639  0.55224  1.0000
  N   N27       1.0  0.29524  0.50591  0.34614  1.0000
  H   H165      1.0  0.30423  0.52000  0.38748  1.0000
  C   C231      1.0  0.59167  0.86632  0.34326  1.0000
  N   N28       1.0  0.59711  0.83609  0.40291  1.0000
  C   C232      1.0  0.59480  0.85510  0.41838  1.0000
  N   N29       1.0  0.59422  0.86112  0.50410  1.0000
  H   H166      1.0  0.59119  0.87360  0.51959  1.0000
  H   H167      1.0  0.59568  0.85218  0.55266  1.0000
  N   N30       1.0  0.58618  0.88433  0.34663  1.0000
  H   H168      1.0  0.57209  0.87922  0.38796  1.0000
  C   C233      1.0  0.22582  0.82037  0.34243  1.0000
  N   N31       1.0  0.25609  0.85594  0.40249  1.0000
  C   C234      1.0  0.23706  0.83461  0.41772  1.0000
  N   N32       1.0  0.23101  0.82791  0.50336  1.0000
  H   H169      1.0  0.21845  0.81244  0.51867  1.0000
  H   H170      1.0  0.23990  0.83828  0.55205  1.0000
  N   N33       1.0  0.20780  0.79688  0.34553  1.0000
  H   H171      1.0  0.21289  0.78783  0.38673  1.0000
  C   C235      1.0  0.79059  0.62486  0.34167  1.0000
  N   N34       1.0  0.82572  0.62907  0.40203  1.0000
  C   C236      1.0  0.80466  0.62741  0.41708  1.0000
  N   N35       1.0  0.79801  0.62694  0.50265  1.0000
  H   H172      1.0  0.78271  0.62454  0.51784  1.0000
  H   H173      1.0  0.80825  0.62813  0.55144  1.0000
  N   N36       1.0  0.76727  0.61995  0.34455  1.0000
  H   H174      1.0  0.75796  0.60588  0.38570  1.0000
  C   C237      1.0  0.46733  0.26080  0.34231  1.0000
  N   N37       1.0  0.46299  0.29162  0.40253  1.0000
  C   C238      1.0  0.46468  0.27224  0.41766  1.0000
  N   N38       1.0  0.46515  0.26605  0.50327  1.0000
  H   H175      1.0  0.46759  0.25317  0.51852  1.0000
  H   H176      1.0  0.46391  0.27506  0.55201  1.0000
  N   N39       1.0  0.47226  0.24240  0.34528  1.0000
  H   H177      1.0  0.48631  0.24715  0.38656  1.0000
  C   C239      1.0  0.83136  0.30164  0.34132  1.0000
  N   N40       1.0  0.80058  0.26648  0.40195  1.0000
  C   C240      1.0  0.81997  0.28757  0.41683  1.0000
  N   N41       1.0  0.82623  0.29424  0.50236  1.0000
  H   H178      1.0  0.83902  0.30961  0.51743  1.0000
  H   H179      1.0  0.81717  0.28405  0.55121  1.0000
  N   N42       1.0  0.84981  0.32495  0.34408  1.0000
  H   H180      1.0  0.84509  0.33428  0.38523  1.0000
