data_image0
_chemical_formula_structural       C2HCNO2C2NO2C3HNO2C3HNO2C3HNO2C3HNO2C3HNO2C3HNO2C3HNO2C3HNO2C24H15C24H15C24H15C24H15C24H15C24H15CHC3HNO2C3HNO2C3HNO2C3HNO2C3HNO2C3HNO2C3HNO2C3HNO2
_chemical_formula_sum              "C198 H108 N18 O36"
_cell_length_a       61.6333
_cell_length_b       61.6334
_cell_length_c       14.9811
_cell_angle_alpha    90
_cell_angle_beta     90
_cell_angle_gamma    120

_space_group_name_H-M_alt    "P 1"
_space_group_IT_number       1

loop_
  _space_group_symop_operation_xyz
  'x, y, z'

loop_
  _atom_site_type_symbol
  _atom_site_label
  _atom_site_symmetry_multiplicity
  _atom_site_fract_x
  _atom_site_fract_y
  _atom_site_fract_z
  _atom_site_occupancy
  C   C1        1.0  0.01487  0.50735  0.26729  1.0000
  C   C2        1.0  0.01352  0.50677  0.42975  1.0000
  H   H1        1.0  0.02483  0.51227  0.20886  1.0000
  C   C3        1.0  0.02779  0.51391  0.34975  1.0000
  N   N1        1.0  0.02579  0.51183  0.51352  1.0000
  O   O1        1.0  0.02016  0.49198  0.55505  1.0000
  O   O2        1.0  0.02051  0.52525  0.56171  1.0000
  C   C4        1.0  0.97412  0.48735  0.34241  1.0000
  C   C5        1.0  0.98839  0.49412  0.26240  1.0000
  N   N2        1.0  0.97614  0.48679  0.17858  1.0000
  O   O3        1.0  0.98155  0.47229  0.13791  1.0000
  O   O4        1.0  0.98165  0.50540  0.12959  1.0000
  C   C6        1.0  0.51474  0.48756  0.34265  1.0000
  C   C7        1.0  0.51101  0.49798  0.26360  1.0000
  C   C8        1.0  0.49766  0.51111  0.26815  1.0000
  H   H2        1.0  0.49539  0.51879  0.21075  1.0000
  N   N3        1.0  0.52129  0.49583  0.18169  1.0000
  O   O5        1.0  0.53708  0.51693  0.15139  1.0000
  O   O6        1.0  0.50456  0.48456  0.12385  1.0000
  C   C9        1.0  0.51384  0.02736  0.34256  1.0000
  C   C10       1.0  0.50348  0.01323  0.26343  1.0000
  C   C11       1.0  0.49040  0.98674  0.26783  1.0000
  H   H3        1.0  0.48277  0.97681  0.21036  1.0000
  N   N4        1.0  0.50562  0.02568  0.18159  1.0000
  O   O7        1.0  0.48451  0.02033  0.15123  1.0000
  O   O8        1.0  0.51694  0.02029  0.12374  1.0000
  C   C12       1.0  0.28953  0.53080  0.34034  1.0000
  C   C13       1.0  0.27201  0.52020  0.26951  1.0000
  C   C14       1.0  0.24924  0.52052  0.27394  1.0000
  H   H4        1.0  0.23727  0.51384  0.22058  1.0000
  N   N5        1.0  0.27781  0.51000  0.19455  1.0000
  O   O9        1.0  0.26222  0.48708  0.18579  1.0000
  O   O10       1.0  0.27818  0.52107  0.12358  1.0000
  C   C15       1.0  0.47089  0.75886  0.33336  1.0000
  C   C16       1.0  0.48125  0.75196  0.26163  1.0000
  C   C17       1.0  0.48114  0.72896  0.26557  1.0000
  H   H5        1.0  0.48762  0.72368  0.21161  1.0000
  N   N6        1.0  0.49103  0.76789  0.18634  1.0000
  O   O11       1.0  0.51394  0.77536  0.17625  1.0000
  O   O12       1.0  0.47970  0.75708  0.11587  1.0000
  C   C18       1.0  0.24248  0.71254  0.32522  1.0000
  C   C19       1.0  0.24982  0.72967  0.25295  1.0000
  C   C20       1.0  0.27287  0.75250  0.25750  1.0000
  H   H6        1.0  0.27844  0.76418  0.20325  1.0000
  N   N7        1.0  0.23427  0.72346  0.17660  1.0000
  O   O13       1.0  0.22697  0.73897  0.16464  1.0000
  O   O14       1.0  0.24537  0.72272  0.10724  1.0000
  C   C21       1.0  0.71247  0.47094  0.33286  1.0000
  C   C22       1.0  0.72987  0.48103  0.26147  1.0000
  C   C23       1.0  0.75260  0.48063  0.26647  1.0000
  H   H7        1.0  0.76447  0.48692  0.21276  1.0000
  N   N8        1.0  0.72400  0.49078  0.18543  1.0000
  O   O15       1.0  0.73964  0.51362  0.17490  1.0000
  O   O16       1.0  0.72345  0.47924  0.11550  1.0000
  C   C24       1.0  0.53056  0.24188  0.33223  1.0000
  C   C25       1.0  0.52050  0.24913  0.26060  1.0000
  C   C26       1.0  0.52086  0.27224  0.26522  1.0000
  H   H8        1.0  0.51456  0.27776  0.21138  1.0000
  N   N9        1.0  0.51076  0.23344  0.18473  1.0000
  O   O17       1.0  0.48792  0.22621  0.17407  1.0000
  O   O18       1.0  0.52232  0.24438  0.11473  1.0000
  C   C27       1.0  0.75954  0.28881  0.33103  1.0000
  C   C28       1.0  0.75221  0.27144  0.25953  1.0000
  C   C29       1.0  0.72911  0.24869  0.26453  1.0000
  H   H9        1.0  0.72353  0.23686  0.21072  1.0000
  N   N10       1.0  0.76781  0.27736  0.18342  1.0000
  O   O19       1.0  0.77504  0.26175  0.17266  1.0000
  O   O20       1.0  0.75679  0.27793  0.11360  1.0000
  C   C30       1.0  0.17497  0.60785  0.32636  1.0000
  C   C31       1.0  0.14861  0.59422  0.33455  1.0000
  C   C32       1.0  0.13523  0.56771  0.34208  1.0000
  C   C33       1.0  0.14917  0.55507  0.34277  1.0000
  C   C34       1.0  0.17552  0.56812  0.33387  1.0000
  C   C35       1.0  0.18803  0.59447  0.32681  1.0000
  C   C36       1.0  0.10839  0.55405  0.34580  1.0000
  C   C37       1.0  0.09488  0.56282  0.39627  1.0000
  C   C38       1.0  0.06851  0.54969  0.39782  1.0000
  C   C39       1.0  0.05458  0.52709  0.34973  1.0000
  C   C40       1.0  0.06798  0.51826  0.29924  1.0000
  C   C41       1.0  0.09434  0.53150  0.29718  1.0000
  C   C42       1.0  0.18866  0.63444  0.31809  1.0000
  C   C43       1.0  0.18688  0.64998  0.38370  1.0000
  C   C44       1.0  0.20376  0.67602  0.38397  1.0000
  C   C45       1.0  0.22253  0.68728  0.31769  1.0000
  C   C46       1.0  0.22355  0.67181  0.25007  1.0000
  C   C47       1.0  0.20684  0.64586  0.25005  1.0000
  C   C48       1.0  0.18967  0.55559  0.33110  1.0000
  C   C49       1.0  0.20769  0.56146  0.26310  1.0000
  C   C50       1.0  0.22446  0.55232  0.26637  1.0000
  C   C51       1.0  0.22373  0.53692  0.33763  1.0000
  C   C52       1.0  0.20492  0.53002  0.40338  1.0000
  C   C53       1.0  0.18800  0.53911  0.39991  1.0000
  H   H10       1.0  0.20299  0.68655  0.43537  1.0000
  H   H11       1.0  0.17458  0.64227  0.43571  1.0000
  H   H12       1.0  0.23755  0.67900  0.20338  1.0000
  H   H13       1.0  0.20894  0.63517  0.20229  1.0000
  H   H14       1.0  0.20952  0.57339  0.21234  1.0000
  H   H15       1.0  0.23822  0.55831  0.21885  1.0000
  H   H16       1.0  0.17564  0.53500  0.45141  1.0000
  H   H17       1.0  0.20411  0.51920  0.45647  1.0000
  H   H18       1.0  0.10314  0.52468  0.25785  1.0000
  H   H19       1.0  0.05864  0.50202  0.26330  1.0000
  H   H20       1.0  0.05955  0.55703  0.43355  1.0000
  H   H21       1.0  0.10414  0.57890  0.43308  1.0000
  H   H22       1.0  0.13901  0.60378  0.33129  1.0000
  H   H23       1.0  0.20723  0.60423  0.32343  1.0000
  H   H24       1.0  0.14003  0.53596  0.34863  1.0000
  C   C54       1.0  0.39426  0.56793  0.33273  1.0000
  C   C55       1.0  0.40765  0.55495  0.34077  1.0000
  C   C56       1.0  0.43421  0.56781  0.34294  1.0000
  C   C57       1.0  0.44726  0.59437  0.33899  1.0000
  C   C58       1.0  0.43442  0.60790  0.33106  1.0000
  C   C59       1.0  0.40797  0.59434  0.32879  1.0000
  C   C60       1.0  0.44749  0.55430  0.34586  1.0000
  C   C61       1.0  0.44029  0.53308  0.29085  1.0000
  C   C62       1.0  0.45350  0.51994  0.29230  1.0000
  C   C63       1.0  0.47438  0.52750  0.34913  1.0000
  C   C64       1.0  0.48174  0.54875  0.40386  1.0000
  C   C65       1.0  0.46853  0.56190  0.40223  1.0000
  C   C66       1.0  0.36762  0.55526  0.32811  1.0000
  C   C67       1.0  0.35259  0.53861  0.39618  1.0000
  C   C68       1.0  0.32656  0.52941  0.39841  1.0000
  C   C69       1.0  0.31480  0.53621  0.33170  1.0000
  C   C70       1.0  0.32975  0.55207  0.26186  1.0000
  C   C71       1.0  0.35570  0.56135  0.25990  1.0000
  C   C72       1.0  0.44717  0.63453  0.32537  1.0000
  C   C73       1.0  0.44073  0.64632  0.25770  1.0000
  C   C74       1.0  0.44969  0.67221  0.26005  1.0000
  C   C75       1.0  0.46552  0.68722  0.32991  1.0000
  C   C76       1.0  0.47306  0.67570  0.39500  1.0000
  C   C77       1.0  0.46408  0.64970  0.39261  1.0000
  H   H25       1.0  0.31639  0.51859  0.45129  1.0000
  H   H26       1.0  0.36069  0.53448  0.44815  1.0000
  H   H27       1.0  0.32218  0.55835  0.21468  1.0000
  H   H28       1.0  0.36601  0.57360  0.21020  1.0000
  H   H29       1.0  0.42833  0.63592  0.20850  1.0000
  H   H30       1.0  0.44324  0.67970  0.21316  1.0000
  H   H31       1.0  0.46857  0.64172  0.44399  1.0000
  H   H32       1.0  0.48414  0.68595  0.44726  1.0000
  H   H33       1.0  0.47431  0.57703  0.44357  1.0000
  H   H34       1.0  0.49704  0.55505  0.44467  1.0000
  H   H35       1.0  0.44764  0.50467  0.25160  1.0000
  H   H36       1.0  0.42556  0.52721  0.24755  1.0000
  H   H37       1.0  0.39781  0.53579  0.34397  1.0000
  H   H38       1.0  0.39842  0.60399  0.32576  1.0000
  H   H39       1.0  0.46645  0.60404  0.33801  1.0000
  C   C78       1.0  0.43368  0.82646  0.32961  1.0000
  C   C79       1.0  0.44667  0.85281  0.33836  1.0000
  C   C80       1.0  0.43384  0.86654  0.34094  1.0000
  C   C81       1.0  0.40728  0.85307  0.33654  1.0000
  C   C82       1.0  0.39373  0.82671  0.32791  1.0000
  C   C83       1.0  0.40727  0.81380  0.32544  1.0000
  C   C84       1.0  0.44737  0.89334  0.34447  1.0000
  C   C85       1.0  0.46863  0.90745  0.28976  1.0000
  C   C86       1.0  0.48173  0.93380  0.29157  1.0000
  C   C87       1.0  0.47410  0.94704  0.34855  1.0000
  C   C88       1.0  0.45283  0.93305  0.40308  1.0000
  C   C89       1.0  0.43970  0.90668  0.40106  1.0000
  C   C90       1.0  0.44632  0.81246  0.32417  1.0000
  C   C91       1.0  0.46313  0.81404  0.39153  1.0000
  C   C92       1.0  0.47232  0.79719  0.39282  1.0000
  C   C93       1.0  0.46543  0.77871  0.32576  1.0000
  C   C94       1.0  0.44939  0.77784  0.25667  1.0000
  C   C95       1.0  0.44011  0.79452  0.25560  1.0000
  C   C96       1.0  0.36710  0.81286  0.32134  1.0000
  C   C97       1.0  0.35546  0.79468  0.25341  1.0000
  C   C98       1.0  0.32955  0.77784  0.25473  1.0000
  C   C99       1.0  0.31434  0.77864  0.32388  1.0000
  C   C100      1.0  0.32572  0.79768  0.38918  1.0000
  C   C101      1.0  0.35175  0.81462  0.38781  1.0000
  H   H40       1.0  0.48332  0.79786  0.44513  1.0000
  H   H41       1.0  0.46737  0.82623  0.44370  1.0000
  H   H42       1.0  0.44300  0.76403  0.20932  1.0000
  H   H43       1.0  0.42775  0.79260  0.20638  1.0000
  H   H44       1.0  0.36597  0.79267  0.20470  1.0000
  H   H45       1.0  0.32219  0.76389  0.20782  1.0000
  H   H46       1.0  0.35959  0.82710  0.43924  1.0000
  H   H47       1.0  0.31532  0.79856  0.44081  1.0000
  H   H48       1.0  0.42454  0.89728  0.44215  1.0000
  H   H49       1.0  0.44647  0.94198  0.44395  1.0000
  H   H50       1.0  0.49700  0.94327  0.25097  1.0000
  H   H51       1.0  0.47454  0.89867  0.24626  1.0000
  H   H52       1.0  0.46583  0.86212  0.34165  1.0000
  H   H53       1.0  0.39761  0.79461  0.32193  1.0000
  H   H54       1.0  0.39764  0.86261  0.33567  1.0000
  C   C102      1.0  0.82686  0.39353  0.32681  1.0000
  C   C103      1.0  0.85325  0.40721  0.33377  1.0000
  C   C104      1.0  0.86665  0.43376  0.33928  1.0000
  C   C105      1.0  0.85270  0.44640  0.33923  1.0000
  C   C106      1.0  0.82632  0.43329  0.33151  1.0000
  C   C107      1.0  0.81379  0.40689  0.32644  1.0000
  C   C108      1.0  0.89351  0.44741  0.34165  1.0000
  C   C109      1.0  0.90716  0.43885  0.39239  1.0000
  C   C110      1.0  0.93353  0.45191  0.39266  1.0000
  C   C111      1.0  0.94733  0.47410  0.34220  1.0000
  C   C112      1.0  0.93379  0.48294  0.29266  1.0000
  C   C113      1.0  0.90743  0.46976  0.29185  1.0000
  C   C114      1.0  0.81318  0.36691  0.32020  1.0000
  C   C115      1.0  0.81506  0.35169  0.38687  1.0000
  C   C116      1.0  0.79826  0.32564  0.38843  1.0000
  C   C117      1.0  0.77944  0.31406  0.32249  1.0000
  C   C118      1.0  0.77828  0.32922  0.25392  1.0000
  C   C119      1.0  0.79492  0.35518  0.25261  1.0000
  C   C120      1.0  0.81215  0.44578  0.32764  1.0000
  C   C121      1.0  0.79395  0.43950  0.25997  1.0000
  C   C122      1.0  0.77719  0.44866  0.26231  1.0000
  C   C123      1.0  0.77813  0.46453  0.33221  1.0000
  C   C124      1.0  0.79708  0.47181  0.39761  1.0000
  C   C125      1.0  0.81397  0.46266  0.39512  1.0000
  H   H55       1.0  0.79914  0.31533  0.44037  1.0000
  H   H56       1.0  0.82750  0.35964  0.43839  1.0000
  H   H57       1.0  0.76418  0.32181  0.20761  1.0000
  H   H58       1.0  0.79269  0.36564  0.20426  1.0000
  H   H59       1.0  0.79200  0.42727  0.21017  1.0000
  H   H60       1.0  0.76335  0.44242  0.21506  1.0000
  H   H61       1.0  0.82650  0.46713  0.44630  1.0000
  H   H62       1.0  0.79806  0.48300  0.44970  1.0000
  H   H63       1.0  0.89852  0.47653  0.25289  1.0000
  H   H64       1.0  0.94302  0.49918  0.25668  1.0000
  H   H65       1.0  0.94259  0.44485  0.42936  1.0000
  H   H66       1.0  0.89801  0.42304  0.43064  1.0000
  H   H67       1.0  0.86283  0.39763  0.33089  1.0000
  H   H68       1.0  0.79459  0.39711  0.32384  1.0000
  H   H69       1.0  0.86185  0.46553  0.34361  1.0000
  C   C126      1.0  0.60775  0.43356  0.32785  1.0000
  C   C127      1.0  0.59413  0.44631  0.33535  1.0000
  C   C128      1.0  0.56758  0.43318  0.33944  1.0000
  C   C129      1.0  0.55481  0.40661  0.33774  1.0000
  C   C130      1.0  0.56788  0.39330  0.33020  1.0000
  C   C131      1.0  0.59430  0.40711  0.32625  1.0000
  C   C132      1.0  0.55406  0.44647  0.34185  1.0000
  C   C133      1.0  0.56174  0.46761  0.39771  1.0000
  C   C134      1.0  0.54878  0.48102  0.39829  1.0000
  C   C135      1.0  0.52778  0.47388  0.34243  1.0000
  C   C136      1.0  0.51988  0.45262  0.28728  1.0000
  C   C137      1.0  0.53282  0.43921  0.28687  1.0000
  C   C138      1.0  0.63438  0.44645  0.32171  1.0000
  C   C139      1.0  0.64955  0.46348  0.38862  1.0000
  C   C140      1.0  0.67560  0.47275  0.39026  1.0000
  C   C141      1.0  0.68723  0.46562  0.32418  1.0000
  C   C142      1.0  0.67211  0.44933  0.25549  1.0000
  C   C143      1.0  0.64615  0.44003  0.25397  1.0000
  C   C144      1.0  0.55536  0.36664  0.32588  1.0000
  C   C145      1.0  0.56173  0.35477  0.25831  1.0000
  C   C146      1.0  0.55267  0.32887  0.26074  1.0000
  C   C147      1.0  0.53682  0.31392  0.33064  1.0000
  C   C148      1.0  0.52942  0.32553  0.39585  1.0000
  C   C149      1.0  0.53849  0.35154  0.39336  1.0000
  H   H70       1.0  0.68589  0.48390  0.44235  1.0000
  H   H71       1.0  0.64157  0.46790  0.44019  1.0000
  H   H72       1.0  0.67956  0.44276  0.20891  1.0000
  H   H73       1.0  0.63573  0.42742  0.20533  1.0000
  H   H74       1.0  0.57400  0.36510  0.20867  1.0000
  H   H75       1.0  0.55899  0.32131  0.21363  1.0000
  H   H76       1.0  0.53399  0.35959  0.44450  1.0000
  H   H77       1.0  0.51828  0.31531  0.44804  1.0000
  H   H78       1.0  0.52681  0.42430  0.24431  1.0000
  H   H79       1.0  0.50453  0.44664  0.24697  1.0000
  H   H80       1.0  0.55505  0.49632  0.43909  1.0000
  H   H81       1.0  0.57678  0.47335  0.43941  1.0000
  H   H82       1.0  0.60373  0.46550  0.33370  1.0000
  H   H83       1.0  0.60404  0.39765  0.32355  1.0000
  H   H84       1.0  0.53565  0.39672  0.34085  1.0000
  C   C150      1.0  0.56787  0.17444  0.32832  1.0000
  C   C151      1.0  0.55508  0.14806  0.33580  1.0000
  C   C152      1.0  0.56819  0.13461  0.33981  1.0000
  C   C153      1.0  0.59476  0.14839  0.33810  1.0000
  C   C154      1.0  0.60810  0.17477  0.33059  1.0000
  C   C155      1.0  0.59431  0.18740  0.32671  1.0000
  C   C156      1.0  0.55489  0.10780  0.34206  1.0000
  C   C157      1.0  0.53373  0.09430  0.39785  1.0000
  C   C158      1.0  0.52033  0.06793  0.39834  1.0000
  C   C159      1.0  0.52750  0.05409  0.34246  1.0000
  C   C160      1.0  0.54876  0.06748  0.28735  1.0000
  C   C161      1.0  0.56216  0.09384  0.28703  1.0000
  C   C162      1.0  0.55502  0.18821  0.32202  1.0000
  C   C163      1.0  0.53800  0.18644  0.38887  1.0000
  C   C164      1.0  0.52878  0.20326  0.39028  1.0000
  C   C165      1.0  0.53593  0.22198  0.32399  1.0000
  C   C166      1.0  0.55220  0.22306  0.25537  1.0000
  C   C167      1.0  0.56148  0.20639  0.25418  1.0000
  C   C168      1.0  0.63475  0.18887  0.32608  1.0000
  C   C169      1.0  0.64659  0.20708  0.25841  1.0000
  C   C170      1.0  0.67250  0.22390  0.26055  1.0000
  C   C171      1.0  0.68749  0.22305  0.33041  1.0000
  C   C172      1.0  0.67590  0.20409  0.39583  1.0000
  C   C173      1.0  0.64989  0.18713  0.39348  1.0000
  H   H85       1.0  0.51763  0.20244  0.44228  1.0000
  H   H86       1.0  0.53356  0.17406  0.44053  1.0000
  H   H87       1.0  0.55876  0.23703  0.20861  1.0000
  H   H88       1.0  0.57404  0.20849  0.20545  1.0000
  H   H89       1.0  0.63625  0.20902  0.20883  1.0000
  H   H90       1.0  0.68003  0.23778  0.21342  1.0000
  H   H91       1.0  0.64187  0.17461  0.44470  1.0000
  H   H92       1.0  0.68616  0.20316  0.44787  1.0000
  H   H93       1.0  0.57707  0.10275  0.24453  1.0000
  H   H94       1.0  0.55476  0.05812  0.24704  1.0000
  H   H95       1.0  0.50503  0.05889  0.43911  1.0000
  H   H96       1.0  0.52797  0.10358  0.43956  1.0000
  H   H97       1.0  0.53590  0.13849  0.33412  1.0000
  H   H98       1.0  0.60380  0.20660  0.32398  1.0000
  H   H99       1.0  0.60463  0.13909  0.34113  1.0000
  C   C174      1.0  0.98703  0.49376  0.42488  1.0000
  H   H100      1.0  0.97707  0.48898  0.48328  1.0000
  C   C175      1.0  0.48790  0.51428  0.34943  1.0000
  C   C176      1.0  0.49170  0.50393  0.42852  1.0000
  C   C177      1.0  0.50509  0.49083  0.42402  1.0000
  H   H101      1.0  0.50729  0.48307  0.48133  1.0000
  N   N11       1.0  0.48134  0.50602  0.51030  1.0000
  O   O21       1.0  0.46558  0.48489  0.54049  1.0000
  O   O22       1.0  0.49804  0.51732  0.56822  1.0000
  C   C178      1.0  0.48725  0.97378  0.34903  1.0000
  C   C179      1.0  0.49752  0.98791  0.42821  1.0000
  C   C180      1.0  0.51057  0.01441  0.42387  1.0000
  H   H102      1.0  0.51827  0.02435  0.48125  1.0000
  N   N12       1.0  0.49542  0.97544  0.50994  1.0000
  O   O23       1.0  0.51655  0.98085  0.54027  1.0000
  O   O24       1.0  0.48406  0.98076  0.56782  1.0000
  C   C181      1.0  0.24361  0.53155  0.34648  1.0000
  C   C182      1.0  0.26060  0.54108  0.41925  1.0000
  C   C183      1.0  0.28316  0.54032  0.41556  1.0000
  H   H103      1.0  0.29599  0.54886  0.46566  1.0000
  N   N13       1.0  0.25591  0.55302  0.49147  1.0000
  O   O25       1.0  0.25479  0.54239  0.56431  1.0000
  O   O26       1.0  0.27234  0.57577  0.49741  1.0000
  C   C184      1.0  0.47060  0.71239  0.33861  1.0000
  C   C185      1.0  0.46132  0.71983  0.41220  1.0000
  C   C186      1.0  0.46187  0.74304  0.40896  1.0000
  H   H104      1.0  0.45351  0.74731  0.45975  1.0000
  N   N14       1.0  0.44985  0.70326  0.48496  1.0000
  O   O27       1.0  0.46080  0.71293  0.55720  1.0000
  O   O28       1.0  0.42709  0.69677  0.49247  1.0000
  C   C187      1.0  0.28911  0.75862  0.33164  1.0000
  C   C188      1.0  0.28125  0.74199  0.40560  1.0000
  C   C189      1.0  0.25799  0.71937  0.40166  1.0000
  H   H105      1.0  0.25340  0.70685  0.45303  1.0000
  N   N15       1.0  0.29745  0.74711  0.47954  1.0000
  O   O29       1.0  0.28747  0.74854  0.55080  1.0000
  O   O30       1.0  0.30380  0.73077  0.48863  1.0000
  C   C190      1.0  0.75834  0.47006  0.34020  1.0000
  C   C191      1.0  0.74148  0.46107  0.41346  1.0000
  C   C192      1.0  0.71895  0.46187  0.40910  1.0000
  H   H106      1.0  0.70623  0.45375  0.45978  1.0000
  N   N16       1.0  0.74628  0.44960  0.48695  1.0000
  O   O31       1.0  0.74757  0.46073  0.55874  1.0000
  O   O32       1.0  0.72982  0.42691  0.49474  1.0000
  C   C193      1.0  0.53140  0.28863  0.33877  1.0000
  C   C194      1.0  0.54041  0.28084  0.41222  1.0000
  C   C195      1.0  0.53962  0.25751  0.40828  1.0000
  H   H107      1.0  0.54779  0.25300  0.45906  1.0000
  N   N17       1.0  0.55187  0.29719  0.48554  1.0000
  O   O33       1.0  0.54074  0.28740  0.55740  1.0000
  O   O34       1.0  0.57456  0.30343  0.49343  1.0000
  C   C196      1.0  0.71280  0.24291  0.33829  1.0000
  C   C197      1.0  0.72067  0.25976  0.41159  1.0000
  C   C198      1.0  0.74401  0.28228  0.40735  1.0000
  H   H108      1.0  0.74858  0.29501  0.45798  1.0000
  N   N18       1.0  0.70440  0.25493  0.48510  1.0000
  O   O35       1.0  0.71425  0.25362  0.55686  1.0000
  O   O36       1.0  0.69818  0.27139  0.49301  1.0000
