data_image0
_chemical_formula_structural       C4HC2O2CNCNO2NHCNCNO2NHC6HC5HCH3C2O2NC2HNHNC2HNHC4HC2O2CNCNO2NHCNCNO2NHC6HC5HCH3C2O2NC2HNHNC2HNHC4HC2O2CNCNO2NHCNCNO2NHC6HC5HCH3C2O2NC2HNHNC2HNHC4HC2O2CNCNO2NHCNCNO2NHC6HC5HCH3C2O2NC2HNHNC2HNH
_chemical_formula_sum              "C112 H48 O32 N40"
_cell_length_a       30.5202
_cell_length_b       30.5202
_cell_length_c       15.0031
_cell_angle_alpha    90
_cell_angle_beta     90
_cell_angle_gamma    90

_space_group_name_H-M_alt    "P 1"
_space_group_IT_number       1

loop_
  _space_group_symop_operation_xyz
  'x, y, z'

loop_
  _atom_site_type_symbol
  _atom_site_label
  _atom_site_symmetry_multiplicity
  _atom_site_fract_x
  _atom_site_fract_y
  _atom_site_fract_z
  _atom_site_occupancy
  C   C1        1.0  0.46842  0.08875  0.25749  1.0000
  C   C2        1.0  0.49843  0.05847  0.29651  1.0000
  C   C3        1.0  0.00352  0.43923  0.36666  1.0000
  C   C4        1.0  0.03358  0.40888  0.40526  1.0000
  H   H1        1.0  0.44789  0.39704  0.36472  1.0000
  C   C5        1.0  0.47575  0.13468  0.25011  1.0000
  C   C6        1.0  0.02656  0.36284  0.41074  1.0000
  O   O1        1.0  0.45550  0.15628  0.18251  1.0000
  O   O2        1.0  0.04688  0.34078  0.47762  1.0000
  C   C7        1.0  0.00571  0.29506  0.33347  1.0000
  N   N1        1.0  0.98888  0.22971  0.25269  1.0000
  C   C8        1.0  0.99228  0.27421  0.25338  1.0000
  N   N2        1.0  0.98308  0.29820  0.17528  1.0000
  O   O3        1.0  0.94439  0.29143  0.15039  1.0000
  O   O4        1.0  0.00834  0.28676  0.11342  1.0000
  N   N3        1.0  0.01011  0.33953  0.34038  1.0000
  H   H2        1.0  0.50331  0.35631  0.28697  1.0000
  C   C9        1.0  0.20471  0.99405  0.33342  1.0000
  N   N4        1.0  0.27005  0.01093  0.25265  1.0000
  C   C10       1.0  0.22556  0.00752  0.25335  1.0000
  N   N5        1.0  0.20156  0.01674  0.17528  1.0000
  O   O5        1.0  0.20832  0.05544  0.15046  1.0000
  O   O6        1.0  0.21300  0.99151  0.11336  1.0000
  N   N6        1.0  0.16025  0.98965  0.34034  1.0000
  H   H3        1.0  0.14346  0.49643  0.28693  1.0000
  C   C11       1.0  0.48548  0.01433  0.31397  1.0000
  C   C12       1.0  0.44133  0.00140  0.29651  1.0000
  C   C13       1.0  0.41106  0.03139  0.25742  1.0000
  C   C14       1.0  0.42674  0.07307  0.23153  1.0000
  C   C15       1.0  0.42973  0.45732  0.31313  1.0000
  C   C16       1.0  0.04250  0.07006  0.31317  1.0000
  H   H4        1.0  0.40453  0.09534  0.20761  1.0000
  C   C17       1.0  0.01639  0.48341  0.34951  1.0000
  C   C18       1.0  0.07528  0.42449  0.43119  1.0000
  C   C19       1.0  0.09092  0.46617  0.40518  1.0000
  C   C20       1.0  0.06057  0.49626  0.36666  1.0000
  C   C21       1.0  0.45950  0.42755  0.34971  1.0000
  H   H5        1.0  0.09762  0.40219  0.45452  1.0000
  C   C22       1.0  0.07226  0.04028  0.34974  1.0000
  H   H6        1.0  0.39932  0.44562  0.29763  1.0000
  H   H7        1.0  0.10279  0.05187  0.36472  1.0000
  H   H8        1.0  0.05422  0.10047  0.29768  1.0000
  C   C23       1.0  0.36512  0.02416  0.25015  1.0000
  C   C24       1.0  0.13696  0.47320  0.41075  1.0000
  O   O7        1.0  0.34343  0.04444  0.18270  1.0000
  O   O8        1.0  0.15899  0.45295  0.47775  1.0000
  N   N7        1.0  0.01428  0.26827  0.40396  1.0000
  C   C25       1.0  0.01097  0.22403  0.40232  1.0000
  C   C26       1.0  0.99731  0.20303  0.32323  1.0000
  H   H9        1.0  0.01793  0.20666  0.45877  1.0000
  N   N8        1.0  0.99275  0.15859  0.31905  1.0000
  H   H10       1.0  0.99962  0.14260  0.37358  1.0000
  N   N9        1.0  0.23151  0.98546  0.40388  1.0000
  C   C27       1.0  0.27575  0.98877  0.40222  1.0000
  C   C28       1.0  0.29675  0.00247  0.32317  1.0000
  H   H11       1.0  0.29313  0.98180  0.45868  1.0000
  N   N10       1.0  0.34119  0.00707  0.31897  1.0000
  H   H12       1.0  0.35717  0.00015  0.37349  1.0000
  C   C29       1.0  0.46842  0.58875  0.25749  1.0000
  C   C30       1.0  0.49843  0.55846  0.29651  1.0000
  C   C31       1.0  0.00352  0.93923  0.36666  1.0000
  C   C32       1.0  0.03358  0.90888  0.40526  1.0000
  H   H13       1.0  0.44789  0.89704  0.36472  1.0000
  C   C33       1.0  0.47575  0.63468  0.25011  1.0000
  C   C34       1.0  0.02656  0.86284  0.41074  1.0000
  O   O9        1.0  0.45550  0.65627  0.18251  1.0000
  O   O10       1.0  0.04688  0.84078  0.47762  1.0000
  C   C35       1.0  0.00571  0.79507  0.33347  1.0000
  N   N11       1.0  0.98888  0.72971  0.25269  1.0000
  C   C36       1.0  0.99228  0.77421  0.25338  1.0000
  N   N12       1.0  0.98308  0.79820  0.17528  1.0000
  O   O11       1.0  0.94439  0.79143  0.15039  1.0000
  O   O12       1.0  0.00834  0.78676  0.11342  1.0000
  N   N13       1.0  0.01011  0.83952  0.34038  1.0000
  H   H14       1.0  0.50331  0.85631  0.28697  1.0000
  C   C37       1.0  0.20471  0.49405  0.33342  1.0000
  N   N14       1.0  0.27005  0.51093  0.25265  1.0000
  C   C38       1.0  0.22556  0.50751  0.25335  1.0000
  N   N15       1.0  0.20156  0.51674  0.17528  1.0000
  O   O13       1.0  0.20832  0.55544  0.15046  1.0000
  O   O14       1.0  0.21300  0.49151  0.11336  1.0000
  N   N16       1.0  0.16025  0.48965  0.34034  1.0000
  H   H15       1.0  0.14346  0.99643  0.28693  1.0000
  C   C39       1.0  0.48548  0.51433  0.31397  1.0000
  C   C40       1.0  0.44133  0.50140  0.29651  1.0000
  C   C41       1.0  0.41106  0.53139  0.25742  1.0000
  C   C42       1.0  0.42674  0.57307  0.23153  1.0000
  C   C43       1.0  0.42973  0.95732  0.31313  1.0000
  C   C44       1.0  0.04250  0.57006  0.31317  1.0000
  H   H16       1.0  0.40453  0.59534  0.20761  1.0000
  C   C45       1.0  0.01639  0.98341  0.34951  1.0000
  C   C46       1.0  0.07528  0.92449  0.43119  1.0000
  C   C47       1.0  0.09092  0.96617  0.40518  1.0000
  C   C48       1.0  0.06057  0.99626  0.36666  1.0000
  C   C49       1.0  0.45950  0.92755  0.34971  1.0000
  H   H17       1.0  0.09762  0.90219  0.45452  1.0000
  C   C50       1.0  0.07226  0.54028  0.34974  1.0000
  H   H18       1.0  0.39932  0.94561  0.29763  1.0000
  H   H19       1.0  0.10279  0.55188  0.36472  1.0000
  H   H20       1.0  0.05422  0.60047  0.29768  1.0000
  C   C51       1.0  0.36512  0.52416  0.25015  1.0000
  C   C52       1.0  0.13696  0.97320  0.41075  1.0000
  O   O15       1.0  0.34343  0.54444  0.18270  1.0000
  O   O16       1.0  0.15899  0.95295  0.47775  1.0000
  N   N17       1.0  0.01428  0.76827  0.40396  1.0000
  C   C53       1.0  0.01097  0.72403  0.40232  1.0000
  C   C54       1.0  0.99731  0.70303  0.32323  1.0000
  H   H21       1.0  0.01793  0.70665  0.45877  1.0000
  N   N18       1.0  0.99275  0.65859  0.31905  1.0000
  H   H22       1.0  0.99962  0.64260  0.37358  1.0000
  N   N19       1.0  0.23151  0.48546  0.40388  1.0000
  C   C55       1.0  0.27575  0.48877  0.40222  1.0000
  C   C56       1.0  0.29675  0.50247  0.32317  1.0000
  H   H23       1.0  0.29313  0.48180  0.45868  1.0000
  N   N20       1.0  0.34119  0.50706  0.31897  1.0000
  H   H24       1.0  0.35717  0.50014  0.37349  1.0000
  C   C57       1.0  0.96842  0.08875  0.25749  1.0000
  C   C58       1.0  0.99843  0.05847  0.29651  1.0000
  C   C59       1.0  0.50352  0.43923  0.36666  1.0000
  C   C60       1.0  0.53358  0.40888  0.40526  1.0000
  H   H25       1.0  0.94789  0.39704  0.36472  1.0000
  C   C61       1.0  0.97574  0.13468  0.25011  1.0000
  C   C62       1.0  0.52656  0.36284  0.41074  1.0000
  O   O17       1.0  0.95550  0.15628  0.18251  1.0000
  O   O18       1.0  0.54688  0.34078  0.47762  1.0000
  C   C63       1.0  0.50571  0.29506  0.33347  1.0000
  N   N21       1.0  0.48888  0.22971  0.25269  1.0000
  C   C64       1.0  0.49228  0.27421  0.25338  1.0000
  N   N22       1.0  0.48308  0.29820  0.17528  1.0000
  O   O19       1.0  0.44439  0.29143  0.15039  1.0000
  O   O20       1.0  0.50834  0.28676  0.11342  1.0000
  N   N23       1.0  0.51011  0.33953  0.34038  1.0000
  H   H26       1.0  0.00331  0.35631  0.28697  1.0000
  C   C65       1.0  0.70471  0.99405  0.33342  1.0000
  N   N24       1.0  0.77005  0.01093  0.25265  1.0000
  C   C66       1.0  0.72556  0.00752  0.25335  1.0000
  N   N25       1.0  0.70155  0.01674  0.17528  1.0000
  O   O21       1.0  0.70832  0.05544  0.15046  1.0000
  O   O22       1.0  0.71300  0.99151  0.11336  1.0000
  N   N26       1.0  0.66025  0.98965  0.34034  1.0000
  H   H27       1.0  0.64346  0.49643  0.28693  1.0000
  C   C67       1.0  0.98548  0.01433  0.31397  1.0000
  C   C68       1.0  0.94134  0.00140  0.29651  1.0000
  C   C69       1.0  0.91106  0.03139  0.25742  1.0000
  C   C70       1.0  0.92675  0.07307  0.23153  1.0000
  C   C71       1.0  0.92973  0.45732  0.31313  1.0000
  C   C72       1.0  0.54250  0.07006  0.31317  1.0000
  H   H28       1.0  0.90453  0.09534  0.20761  1.0000
  C   C73       1.0  0.51639  0.48341  0.34951  1.0000
  C   C74       1.0  0.57528  0.42449  0.43119  1.0000
  C   C75       1.0  0.59092  0.46617  0.40518  1.0000
  C   C76       1.0  0.56057  0.49626  0.36666  1.0000
  C   C77       1.0  0.95949  0.42755  0.34971  1.0000
  H   H29       1.0  0.59762  0.40219  0.45452  1.0000
  C   C78       1.0  0.57226  0.04028  0.34974  1.0000
  H   H30       1.0  0.89932  0.44562  0.29763  1.0000
  H   H31       1.0  0.60279  0.05187  0.36472  1.0000
  H   H32       1.0  0.55422  0.10047  0.29768  1.0000
  C   C79       1.0  0.86512  0.02416  0.25015  1.0000
  C   C80       1.0  0.63696  0.47320  0.41075  1.0000
  O   O23       1.0  0.84343  0.04444  0.18270  1.0000
  O   O24       1.0  0.65899  0.45295  0.47775  1.0000
  N   N27       1.0  0.51428  0.26827  0.40396  1.0000
  C   C81       1.0  0.51096  0.22403  0.40232  1.0000
  C   C82       1.0  0.49731  0.20303  0.32323  1.0000
  H   H33       1.0  0.51793  0.20666  0.45877  1.0000
  N   N28       1.0  0.49275  0.15859  0.31905  1.0000
  H   H34       1.0  0.49962  0.14260  0.37358  1.0000
  N   N29       1.0  0.73151  0.98546  0.40388  1.0000
  C   C83       1.0  0.77575  0.98877  0.40222  1.0000
  C   C84       1.0  0.79675  0.00247  0.32317  1.0000
  H   H35       1.0  0.79314  0.98180  0.45868  1.0000
  N   N30       1.0  0.84119  0.00707  0.31897  1.0000
  H   H36       1.0  0.85717  0.00015  0.37349  1.0000
  C   C85       1.0  0.96842  0.58875  0.25749  1.0000
  C   C86       1.0  0.99843  0.55846  0.29651  1.0000
  C   C87       1.0  0.50352  0.93923  0.36666  1.0000
  C   C88       1.0  0.53358  0.90888  0.40526  1.0000
  H   H37       1.0  0.94789  0.89704  0.36472  1.0000
  C   C89       1.0  0.97574  0.63468  0.25011  1.0000
  C   C90       1.0  0.52656  0.86284  0.41074  1.0000
  O   O25       1.0  0.95550  0.65627  0.18251  1.0000
  O   O26       1.0  0.54688  0.84078  0.47762  1.0000
  C   C91       1.0  0.50571  0.79507  0.33347  1.0000
  N   N31       1.0  0.48888  0.72971  0.25269  1.0000
  C   C92       1.0  0.49228  0.77421  0.25338  1.0000
  N   N32       1.0  0.48308  0.79820  0.17528  1.0000
  O   O27       1.0  0.44439  0.79143  0.15039  1.0000
  O   O28       1.0  0.50834  0.78676  0.11342  1.0000
  N   N33       1.0  0.51011  0.83952  0.34038  1.0000
  H   H38       1.0  0.00331  0.85631  0.28697  1.0000
  C   C93       1.0  0.70471  0.49405  0.33342  1.0000
  N   N34       1.0  0.77005  0.51093  0.25265  1.0000
  C   C94       1.0  0.72556  0.50751  0.25335  1.0000
  N   N35       1.0  0.70155  0.51674  0.17528  1.0000
  O   O29       1.0  0.70832  0.55544  0.15046  1.0000
  O   O30       1.0  0.71300  0.49151  0.11336  1.0000
  N   N36       1.0  0.66025  0.48965  0.34034  1.0000
  H   H39       1.0  0.64346  0.99643  0.28693  1.0000
  C   C95       1.0  0.98548  0.51433  0.31397  1.0000
  C   C96       1.0  0.94134  0.50140  0.29651  1.0000
  C   C97       1.0  0.91106  0.53139  0.25742  1.0000
  C   C98       1.0  0.92675  0.57307  0.23153  1.0000
  C   C99       1.0  0.92973  0.95732  0.31313  1.0000
  C   C100      1.0  0.54250  0.57006  0.31317  1.0000
  H   H40       1.0  0.90453  0.59534  0.20761  1.0000
  C   C101      1.0  0.51639  0.98341  0.34951  1.0000
  C   C102      1.0  0.57528  0.92449  0.43119  1.0000
  C   C103      1.0  0.59092  0.96617  0.40518  1.0000
  C   C104      1.0  0.56057  0.99626  0.36666  1.0000
  C   C105      1.0  0.95949  0.92755  0.34971  1.0000
  H   H41       1.0  0.59762  0.90219  0.45452  1.0000
  C   C106      1.0  0.57226  0.54028  0.34974  1.0000
  H   H42       1.0  0.89932  0.94561  0.29763  1.0000
  H   H43       1.0  0.60279  0.55188  0.36472  1.0000
  H   H44       1.0  0.55422  0.60047  0.29768  1.0000
  C   C107      1.0  0.86512  0.52416  0.25015  1.0000
  C   C108      1.0  0.63696  0.97320  0.41075  1.0000
  O   O31       1.0  0.84343  0.54444  0.18270  1.0000
  O   O32       1.0  0.65899  0.95295  0.47775  1.0000
  N   N37       1.0  0.51428  0.76827  0.40396  1.0000
  C   C109      1.0  0.51096  0.72403  0.40232  1.0000
  C   C110      1.0  0.49731  0.70303  0.32323  1.0000
  H   H45       1.0  0.51793  0.70665  0.45877  1.0000
  N   N38       1.0  0.49275  0.65859  0.31905  1.0000
  H   H46       1.0  0.49962  0.64260  0.37358  1.0000
  N   N39       1.0  0.73151  0.48546  0.40388  1.0000
  C   C111      1.0  0.77575  0.48877  0.40222  1.0000
  C   C112      1.0  0.79675  0.50247  0.32317  1.0000
  H   H47       1.0  0.79314  0.48180  0.45868  1.0000
  N   N40       1.0  0.84119  0.50706  0.31897  1.0000
  H   H48       1.0  0.85717  0.50014  0.37349  1.0000
