data_image0
_chemical_formula_structural       C3H2C2HC2O2CNCOCH3NHCNCOCH3NHC3HC4H2C2O2NC2OCH3NHNC2OCH3NHC3H2C2HC2O2CNCOCH3NHCNCOCH3NHC3HC4H2C2O2NC2OCH3NHNC2OCH3NHC3H2C2HC2O2CNCOCH3NHCNCOCH3NHC3HC4H2C2O2NC2OCH3NHNC2OCH3NHC3H2C2HC2O2CNCOCH3NHCNCOCH3NHC3HC4H2C2O2NC2OCH3NHNC2OCH3NH
_chemical_formula_sum              "C112 H88 O32 N32"
_cell_length_a       30.176
_cell_length_b       30.176
_cell_length_c       14.9938
_cell_angle_alpha    90
_cell_angle_beta     90
_cell_angle_gamma    90

_space_group_name_H-M_alt    "P 1"
_space_group_IT_number       1

loop_
  _space_group_symop_operation_xyz
  'x, y, z'

loop_
  _atom_site_type_symbol
  _atom_site_label
  _atom_site_symmetry_multiplicity
  _atom_site_fract_x
  _atom_site_fract_y
  _atom_site_fract_z
  _atom_site_occupancy
  C   C1        1.0  0.49539  0.44323  0.28500  1.0000
  C   C2        1.0  0.46540  0.41365  0.24320  1.0000
  C   C3        1.0  0.42186  0.42934  0.22885  1.0000
  H   H1        1.0  0.02780  0.43409  0.28621  1.0000
  H   H2        1.0  0.39932  0.40804  0.20141  1.0000
  C   C4        1.0  0.03613  0.09424  0.39715  1.0000
  C   C5        1.0  0.00666  0.06329  0.35741  1.0000
  H   H3        1.0  0.47928  0.07529  0.32619  1.0000
  C   C6        1.0  0.03182  0.14131  0.39141  1.0000
  C   C7        1.0  0.47481  0.36833  0.22400  1.0000
  O   O1        1.0  0.06173  0.16608  0.43738  1.0000
  O   O2        1.0  0.44538  0.34577  0.17255  1.0000
  C   C8        1.0  0.00815  0.29947  0.27575  1.0000
  N   N1        1.0  0.03914  0.23379  0.33854  1.0000
  C   C9        1.0  0.04376  0.27734  0.31799  1.0000
  O   O3        1.0  0.08199  0.29841  0.34246  1.0000
  C   C10       1.0  0.11586  0.29591  0.27517  1.0000
  H   H4        1.0  0.14497  0.31350  0.29966  1.0000
  H   H5        1.0  0.10527  0.31172  0.21310  1.0000
  H   H6        1.0  0.62539  0.26160  0.26180  1.0000
  N   N2        1.0  0.00824  0.34437  0.26230  1.0000
  H   H7        1.0  0.03182  0.36075  0.29143  1.0000
  C   C11       1.0  0.20039  0.99040  0.38714  1.0000
  N   N3        1.0  0.26519  0.96878  0.30727  1.0000
  C   C12       1.0  0.22104  0.96396  0.32115  1.0000
  O   O4        1.0  0.19839  0.93343  0.27140  1.0000
  C   C13       1.0  0.18832  0.94852  0.18272  1.0000
  H   H8        1.0  0.21849  0.95488  0.14445  1.0000
  H   H9        1.0  0.16786  0.97841  0.18388  1.0000
  H   H10       1.0  0.16973  0.42250  0.14891  1.0000
  N   N4        1.0  0.15536  0.99040  0.39859  1.0000
  H   H11       1.0  0.13865  0.97203  0.35734  1.0000
  C   C14       1.0  0.48325  0.48622  0.31606  1.0000
  C   C15       1.0  0.40572  0.46870  0.26836  1.0000
  C   C16       1.0  0.43721  0.49644  0.31084  1.0000
  H   H12       1.0  0.42598  0.02498  0.33915  1.0000
  C   C17       1.0  0.01473  0.01673  0.35395  1.0000
  C   C18       1.0  0.05687  0.00285  0.38625  1.0000
  C   C19       1.0  0.08740  0.03182  0.42780  1.0000
  C   C20       1.0  0.07444  0.07646  0.43829  1.0000
  H   H13       1.0  0.06456  0.47000  0.38735  1.0000
  H   H14       1.0  0.09700  0.09786  0.46528  1.0000
  C   C21       1.0  0.13174  0.01981  0.44921  1.0000
  C   C22       1.0  0.35904  0.47564  0.27001  1.0000
  O   O5        1.0  0.33460  0.45303  0.20895  1.0000
  O   O6        1.0  0.15391  0.04607  0.50775  1.0000
  N   N5        1.0  0.97208  0.27393  0.25681  1.0000
  C   C23       1.0  0.96779  0.23015  0.27601  1.0000
  C   C24       1.0  0.00288  0.20834  0.32067  1.0000
  O   O7        1.0  0.92924  0.20918  0.25325  1.0000
  C   C25       1.0  0.89497  0.21434  0.31913  1.0000
  H   H15       1.0  0.88593  0.24915  0.32784  1.0000
  H   H16       1.0  0.90490  0.20037  0.38340  1.0000
  H   H17       1.0  0.36573  0.19649  0.29612  1.0000
  N   N6        1.0  0.00132  0.16418  0.34193  1.0000
  H   H18       1.0  0.97679  0.14754  0.31710  1.0000
  N   N7        1.0  0.22766  0.01865  0.43212  1.0000
  C   C26       1.0  0.27205  0.02271  0.41937  1.0000
  C   C27       1.0  0.29239  0.99741  0.35124  1.0000
  O   O8        1.0  0.29480  0.05343  0.46834  1.0000
  C   C28       1.0  0.30602  0.03800  0.55622  1.0000
  H   H19       1.0  0.32444  0.06417  0.58994  1.0000
  H   H20       1.0  0.32704  0.00852  0.55350  1.0000
  H   H21       1.0  0.27636  0.53084  0.59554  1.0000
  N   N8        1.0  0.33686  0.99967  0.33330  1.0000
  H   H22       1.0  0.35454  0.01713  0.37436  1.0000
  C   C29       1.0  0.49539  0.94323  0.28500  1.0000
  C   C30       1.0  0.46540  0.91365  0.24320  1.0000
  C   C31       1.0  0.42186  0.92933  0.22885  1.0000
  H   H23       1.0  0.02780  0.93409  0.28621  1.0000
  H   H24       1.0  0.39932  0.90804  0.20141  1.0000
  C   C32       1.0  0.03613  0.59424  0.39715  1.0000
  C   C33       1.0  0.00666  0.56329  0.35741  1.0000
  H   H25       1.0  0.47928  0.57529  0.32619  1.0000
  C   C34       1.0  0.03182  0.64131  0.39141  1.0000
  C   C35       1.0  0.47481  0.86833  0.22400  1.0000
  O   O9        1.0  0.06173  0.66607  0.43738  1.0000
  O   O10       1.0  0.44538  0.84577  0.17255  1.0000
  C   C36       1.0  0.00815  0.79947  0.27575  1.0000
  N   N9        1.0  0.03914  0.73379  0.33854  1.0000
  C   C37       1.0  0.04376  0.77734  0.31799  1.0000
  O   O11       1.0  0.08199  0.79841  0.34246  1.0000
  C   C38       1.0  0.11586  0.79591  0.27517  1.0000
  H   H26       1.0  0.14497  0.81350  0.29966  1.0000
  H   H27       1.0  0.10527  0.81172  0.21310  1.0000
  H   H28       1.0  0.62539  0.76160  0.26180  1.0000
  N   N10       1.0  0.00824  0.84437  0.26230  1.0000
  H   H29       1.0  0.03182  0.86075  0.29143  1.0000
  C   C39       1.0  0.20039  0.49039  0.38714  1.0000
  N   N11       1.0  0.26519  0.46878  0.30727  1.0000
  C   C40       1.0  0.22104  0.46396  0.32115  1.0000
  O   O12       1.0  0.19839  0.43343  0.27140  1.0000
  C   C41       1.0  0.18832  0.44852  0.18272  1.0000
  H   H30       1.0  0.21849  0.45488  0.14445  1.0000
  H   H31       1.0  0.16786  0.47841  0.18388  1.0000
  H   H32       1.0  0.16973  0.92250  0.14891  1.0000
  N   N12       1.0  0.15536  0.49039  0.39859  1.0000
  H   H33       1.0  0.13865  0.47203  0.35734  1.0000
  C   C42       1.0  0.48325  0.98621  0.31606  1.0000
  C   C43       1.0  0.40572  0.96870  0.26836  1.0000
  C   C44       1.0  0.43721  0.99644  0.31084  1.0000
  H   H34       1.0  0.42598  0.52498  0.33915  1.0000
  C   C45       1.0  0.01473  0.51673  0.35395  1.0000
  C   C46       1.0  0.05687  0.50285  0.38625  1.0000
  C   C47       1.0  0.08740  0.53182  0.42780  1.0000
  C   C48       1.0  0.07444  0.57646  0.43829  1.0000
  H   H35       1.0  0.06456  0.97000  0.38735  1.0000
  H   H36       1.0  0.09700  0.59786  0.46528  1.0000
  C   C49       1.0  0.13174  0.51981  0.44921  1.0000
  C   C50       1.0  0.35904  0.97564  0.27001  1.0000
  O   O13       1.0  0.33460  0.95303  0.20895  1.0000
  O   O14       1.0  0.15391  0.54607  0.50775  1.0000
  N   N13       1.0  0.97208  0.77392  0.25681  1.0000
  C   C51       1.0  0.96779  0.73015  0.27601  1.0000
  C   C52       1.0  0.00288  0.70834  0.32067  1.0000
  O   O15       1.0  0.92924  0.70918  0.25325  1.0000
  C   C53       1.0  0.89497  0.71434  0.31913  1.0000
  H   H37       1.0  0.88593  0.74915  0.32784  1.0000
  H   H38       1.0  0.90490  0.70037  0.38340  1.0000
  H   H39       1.0  0.36573  0.69649  0.29612  1.0000
  N   N14       1.0  0.00132  0.66418  0.34193  1.0000
  H   H40       1.0  0.97679  0.64753  0.31710  1.0000
  N   N15       1.0  0.22766  0.51865  0.43212  1.0000
  C   C54       1.0  0.27205  0.52271  0.41937  1.0000
  C   C55       1.0  0.29239  0.49742  0.35124  1.0000
  O   O16       1.0  0.29480  0.55343  0.46834  1.0000
  C   C56       1.0  0.30602  0.53800  0.55622  1.0000
  H   H41       1.0  0.32444  0.56417  0.58994  1.0000
  H   H42       1.0  0.32704  0.50852  0.55350  1.0000
  H   H43       1.0  0.27636  0.03084  0.59554  1.0000
  N   N16       1.0  0.33686  0.49967  0.33330  1.0000
  H   H44       1.0  0.35454  0.51713  0.37436  1.0000
  C   C57       1.0  0.99539  0.44323  0.28500  1.0000
  C   C58       1.0  0.96540  0.41365  0.24320  1.0000
  C   C59       1.0  0.92185  0.42934  0.22885  1.0000
  H   H45       1.0  0.52780  0.43409  0.28621  1.0000
  H   H46       1.0  0.89932  0.40804  0.20141  1.0000
  C   C60       1.0  0.53613  0.09424  0.39715  1.0000
  C   C61       1.0  0.50665  0.06329  0.35741  1.0000
  H   H47       1.0  0.97928  0.07529  0.32619  1.0000
  C   C62       1.0  0.53181  0.14131  0.39141  1.0000
  C   C63       1.0  0.97481  0.36833  0.22400  1.0000
  O   O17       1.0  0.56173  0.16608  0.43738  1.0000
  O   O18       1.0  0.94537  0.34577  0.17255  1.0000
  C   C64       1.0  0.50815  0.29947  0.27575  1.0000
  N   N17       1.0  0.53914  0.23379  0.33854  1.0000
  C   C65       1.0  0.54376  0.27734  0.31799  1.0000
  O   O19       1.0  0.58198  0.29841  0.34246  1.0000
  C   C66       1.0  0.61586  0.29591  0.27517  1.0000
  H   H48       1.0  0.64497  0.31350  0.29966  1.0000
  H   H49       1.0  0.60527  0.31172  0.21310  1.0000
  H   H50       1.0  0.12539  0.26160  0.26180  1.0000
  N   N18       1.0  0.50824  0.34437  0.26230  1.0000
  H   H51       1.0  0.53182  0.36075  0.29143  1.0000
  C   C67       1.0  0.70039  0.99040  0.38714  1.0000
  N   N19       1.0  0.76519  0.96878  0.30727  1.0000
  C   C68       1.0  0.72104  0.96396  0.32115  1.0000
  O   O20       1.0  0.69839  0.93343  0.27140  1.0000
  C   C69       1.0  0.68832  0.94852  0.18272  1.0000
  H   H52       1.0  0.71849  0.95488  0.14445  1.0000
  H   H53       1.0  0.66786  0.97841  0.18388  1.0000
  H   H54       1.0  0.66973  0.42250  0.14891  1.0000
  N   N20       1.0  0.65536  0.99040  0.39859  1.0000
  H   H55       1.0  0.63865  0.97203  0.35734  1.0000
  C   C70       1.0  0.98325  0.48622  0.31606  1.0000
  C   C71       1.0  0.90572  0.46870  0.26836  1.0000
  C   C72       1.0  0.93721  0.49644  0.31084  1.0000
  H   H56       1.0  0.92598  0.02498  0.33915  1.0000
  C   C73       1.0  0.51473  0.01673  0.35395  1.0000
  C   C74       1.0  0.55687  0.00285  0.38625  1.0000
  C   C75       1.0  0.58739  0.03182  0.42780  1.0000
  C   C76       1.0  0.57444  0.07646  0.43829  1.0000
  H   H57       1.0  0.56456  0.47000  0.38735  1.0000
  H   H58       1.0  0.59700  0.09786  0.46528  1.0000
  C   C77       1.0  0.63174  0.01981  0.44921  1.0000
  C   C78       1.0  0.85904  0.47564  0.27001  1.0000
  O   O21       1.0  0.83460  0.45303  0.20895  1.0000
  O   O22       1.0  0.65391  0.04607  0.50775  1.0000
  N   N21       1.0  0.47208  0.27393  0.25681  1.0000
  C   C79       1.0  0.46779  0.23015  0.27601  1.0000
  C   C80       1.0  0.50288  0.20834  0.32067  1.0000
  O   O23       1.0  0.42924  0.20918  0.25325  1.0000
  C   C81       1.0  0.39497  0.21434  0.31913  1.0000
  H   H59       1.0  0.38593  0.24915  0.32784  1.0000
  H   H60       1.0  0.40490  0.20037  0.38340  1.0000
  H   H61       1.0  0.86573  0.19649  0.29612  1.0000
  N   N22       1.0  0.50132  0.16418  0.34193  1.0000
  H   H62       1.0  0.47679  0.14754  0.31710  1.0000
  N   N23       1.0  0.72766  0.01865  0.43212  1.0000
  C   C82       1.0  0.77205  0.02271  0.41937  1.0000
  C   C83       1.0  0.79239  0.99741  0.35124  1.0000
  O   O24       1.0  0.79480  0.05343  0.46834  1.0000
  C   C84       1.0  0.80602  0.03800  0.55622  1.0000
  H   H63       1.0  0.82444  0.06417  0.58994  1.0000
  H   H64       1.0  0.82704  0.00852  0.55350  1.0000
  H   H65       1.0  0.77636  0.53084  0.59554  1.0000
  N   N24       1.0  0.83686  0.99967  0.33330  1.0000
  H   H66       1.0  0.85454  0.01713  0.37436  1.0000
  C   C85       1.0  0.99539  0.94323  0.28500  1.0000
  C   C86       1.0  0.96540  0.91365  0.24320  1.0000
  C   C87       1.0  0.92185  0.92933  0.22885  1.0000
  H   H67       1.0  0.52780  0.93409  0.28621  1.0000
  H   H68       1.0  0.89932  0.90804  0.20141  1.0000
  C   C88       1.0  0.53613  0.59424  0.39715  1.0000
  C   C89       1.0  0.50665  0.56329  0.35741  1.0000
  H   H69       1.0  0.97928  0.57529  0.32619  1.0000
  C   C90       1.0  0.53181  0.64131  0.39141  1.0000
  C   C91       1.0  0.97481  0.86833  0.22400  1.0000
  O   O25       1.0  0.56173  0.66607  0.43738  1.0000
  O   O26       1.0  0.94537  0.84577  0.17255  1.0000
  C   C92       1.0  0.50815  0.79947  0.27575  1.0000
  N   N25       1.0  0.53914  0.73379  0.33854  1.0000
  C   C93       1.0  0.54376  0.77734  0.31799  1.0000
  O   O27       1.0  0.58198  0.79841  0.34246  1.0000
  C   C94       1.0  0.61586  0.79591  0.27517  1.0000
  H   H70       1.0  0.64497  0.81350  0.29966  1.0000
  H   H71       1.0  0.60527  0.81172  0.21310  1.0000
  H   H72       1.0  0.12539  0.76160  0.26180  1.0000
  N   N26       1.0  0.50824  0.84437  0.26230  1.0000
  H   H73       1.0  0.53182  0.86075  0.29143  1.0000
  C   C95       1.0  0.70039  0.49039  0.38714  1.0000
  N   N27       1.0  0.76519  0.46878  0.30727  1.0000
  C   C96       1.0  0.72104  0.46396  0.32115  1.0000
  O   O28       1.0  0.69839  0.43343  0.27140  1.0000
  C   C97       1.0  0.68832  0.44852  0.18272  1.0000
  H   H74       1.0  0.71849  0.45488  0.14445  1.0000
  H   H75       1.0  0.66786  0.47841  0.18388  1.0000
  H   H76       1.0  0.66973  0.92250  0.14891  1.0000
  N   N28       1.0  0.65536  0.49039  0.39859  1.0000
  H   H77       1.0  0.63865  0.47203  0.35734  1.0000
  C   C98       1.0  0.98325  0.98621  0.31606  1.0000
  C   C99       1.0  0.90572  0.96870  0.26836  1.0000
  C   C100      1.0  0.93721  0.99644  0.31084  1.0000
  H   H78       1.0  0.92598  0.52498  0.33915  1.0000
  C   C101      1.0  0.51473  0.51673  0.35395  1.0000
  C   C102      1.0  0.55687  0.50285  0.38625  1.0000
  C   C103      1.0  0.58739  0.53182  0.42780  1.0000
  C   C104      1.0  0.57444  0.57646  0.43829  1.0000
  H   H79       1.0  0.56456  0.97000  0.38735  1.0000
  H   H80       1.0  0.59700  0.59786  0.46528  1.0000
  C   C105      1.0  0.63174  0.51981  0.44921  1.0000
  C   C106      1.0  0.85904  0.97564  0.27001  1.0000
  O   O29       1.0  0.83460  0.95303  0.20895  1.0000
  O   O30       1.0  0.65391  0.54607  0.50775  1.0000
  N   N29       1.0  0.47208  0.77392  0.25681  1.0000
  C   C107      1.0  0.46779  0.73015  0.27601  1.0000
  C   C108      1.0  0.50288  0.70834  0.32067  1.0000
  O   O31       1.0  0.42924  0.70918  0.25325  1.0000
  C   C109      1.0  0.39497  0.71434  0.31913  1.0000
  H   H81       1.0  0.38593  0.74915  0.32784  1.0000
  H   H82       1.0  0.40490  0.70037  0.38340  1.0000
  H   H83       1.0  0.86573  0.69649  0.29612  1.0000
  N   N30       1.0  0.50132  0.66418  0.34193  1.0000
  H   H84       1.0  0.47679  0.64753  0.31710  1.0000
  N   N31       1.0  0.72766  0.51865  0.43212  1.0000
  C   C110      1.0  0.77205  0.52271  0.41937  1.0000
  C   C111      1.0  0.79239  0.49742  0.35124  1.0000
  O   O32       1.0  0.79480  0.55343  0.46834  1.0000
  C   C112      1.0  0.80602  0.53800  0.55622  1.0000
  H   H85       1.0  0.82444  0.56417  0.58994  1.0000
  H   H86       1.0  0.82704  0.50852  0.55350  1.0000
  H   H87       1.0  0.77636  0.03084  0.59554  1.0000
  N   N32       1.0  0.83686  0.49967  0.33330  1.0000
  H   H88       1.0  0.85454  0.51713  0.37436  1.0000
