data_image0
_chemical_formula_structural       C2HC3H2C2O2C4N2O4NHC4N2O4NHC4H2C3HC2O2C2H2NHC2H2NHC2HC3H2C2O2C4N2O4NHC4N2O4NHC4H2C3HC2O2C2H2NHC2H2NHC2HC3H2C2O2C4N2O4NHC4N2O4NHC4H2C3HC2O2C2H2NHC2H2NHC2HC3H2C2O2C4N2O4NHC4N2O4NHC4H2C3HC2O2C2H2NHC2H2NH
_chemical_formula_sum              "C112 H56 O48 N32"
_cell_length_a       30.4498
_cell_length_b       30.4498
_cell_length_c       14.992
_cell_angle_alpha    90
_cell_angle_beta     90
_cell_angle_gamma    90

_space_group_name_H-M_alt    "P 1"
_space_group_IT_number       1

loop_
  _space_group_symop_operation_xyz
  'x, y, z'

loop_
  _atom_site_type_symbol
  _atom_site_label
  _atom_site_symmetry_multiplicity
  _atom_site_fract_x
  _atom_site_fract_y
  _atom_site_fract_z
  _atom_site_occupancy
  C   C1        1.0  0.09428  0.46265  0.25289  1.0000
  C   C2        1.0  0.06251  0.49308  0.28375  1.0000
  H   H1        1.0  0.07147  0.02523  0.28273  1.0000
  C   C3        1.0  0.44150  0.00324  0.34917  1.0000
  C   C4        1.0  0.41108  0.03104  0.39332  1.0000
  C   C5        1.0  0.42774  0.06970  0.43298  1.0000
  H   H2        1.0  0.42937  0.47505  0.32210  1.0000
  H   H3        1.0  0.40607  0.09127  0.46121  1.0000
  C   C6        1.0  0.36484  0.02389  0.39348  1.0000
  C   C7        1.0  0.13921  0.47342  0.23721  1.0000
  O   O1        1.0  0.16516  0.44173  0.20087  1.0000
  O   O2        1.0  0.34113  0.04707  0.45414  1.0000
  C   C8        1.0  0.99501  0.29258  0.32737  1.0000
  C   C9        1.0  0.99844  0.19894  0.34943  1.0000
  C   C10       1.0  0.99430  0.21794  0.26278  1.0000
  C   C11       1.0  0.99173  0.26438  0.25168  1.0000
  N   N1        1.0  0.99016  0.18909  0.18873  1.0000
  N   N2        1.0  0.97882  0.27995  0.16621  1.0000
  O   O3        1.0  0.95314  0.19114  0.15188  1.0000
  O   O4        1.0  0.00877  0.29591  0.11900  1.0000
  O   O5        1.0  0.01994  0.19466  0.13179  1.0000
  O   O6        1.0  0.94591  0.30486  0.16715  1.0000
  N   N3        1.0  0.99996  0.15411  0.35995  1.0000
  H   H4        1.0  0.00864  0.13743  0.30748  1.0000
  C   C12       1.0  0.20469  0.01037  0.28168  1.0000
  C   C13       1.0  0.29820  0.00619  0.30849  1.0000
  C   C14       1.0  0.28019  0.01019  0.22088  1.0000
  C   C15       1.0  0.23382  0.01291  0.20738  1.0000
  N   N4        1.0  0.30995  0.01387  0.14831  1.0000
  N   N5        1.0  0.21915  0.02442  0.12053  1.0000
  O   O7        1.0  0.30828  0.05067  0.11050  1.0000
  O   O8        1.0  0.20035  0.99433  0.07829  1.0000
  O   O9        1.0  0.30489  0.98382  0.09178  1.0000
  O   O10       1.0  0.19611  0.05865  0.11896  1.0000
  N   N6        1.0  0.34292  0.00582  0.32245  1.0000
  H   H5        1.0  0.36112  0.99897  0.27104  1.0000
  C   C16       1.0  0.01878  0.48135  0.30855  1.0000
  C   C17       1.0  0.00917  0.43552  0.30414  1.0000
  C   C18       1.0  0.03923  0.40343  0.27301  1.0000
  C   C19       1.0  0.08037  0.41873  0.24261  1.0000
  H   H6        1.0  0.47961  0.42451  0.32637  1.0000
  H   H7        1.0  0.10279  0.39621  0.22086  1.0000
  C   C20       1.0  0.48730  0.01274  0.34191  1.0000
  C   C21       1.0  0.47027  0.08514  0.41279  1.0000
  C   C22       1.0  0.49933  0.05598  0.36898  1.0000
  H   H8        1.0  0.03095  0.06646  0.36333  1.0000
  C   C23       1.0  0.48035  0.13024  0.42651  1.0000
  C   C24       1.0  0.03083  0.35738  0.27375  1.0000
  O   O11       1.0  0.45579  0.15192  0.48802  1.0000
  O   O12       1.0  0.06237  0.33065  0.23921  1.0000
  C   C25       1.0  0.99695  0.27339  0.41295  1.0000
  C   C26       1.0  0.99939  0.22774  0.42347  1.0000
  H   H9        1.0  0.00473  0.21591  0.48631  1.0000
  H   H10       1.0  0.00020  0.29277  0.46838  1.0000
  N   N7        1.0  0.99813  0.33729  0.32124  1.0000
  H   H11       1.0  0.98687  0.35423  0.37138  1.0000
  C   C27       1.0  0.22285  0.00681  0.36794  1.0000
  C   C28       1.0  0.26828  0.00378  0.38059  1.0000
  H   H12       1.0  0.27912  0.99757  0.44382  1.0000
  H   H13       1.0  0.20277  0.00336  0.42230  1.0000
  N   N8        1.0  0.15991  0.00889  0.27437  1.0000
  H   H14       1.0  0.14395  0.02323  0.32264  1.0000
  C   C29       1.0  0.09428  0.96265  0.25289  1.0000
  C   C30       1.0  0.06251  0.99308  0.28375  1.0000
  H   H15       1.0  0.07147  0.52523  0.28273  1.0000
  C   C31       1.0  0.44150  0.50324  0.34917  1.0000
  C   C32       1.0  0.41108  0.53103  0.39332  1.0000
  C   C33       1.0  0.42774  0.56970  0.43298  1.0000
  H   H16       1.0  0.42937  0.97505  0.32210  1.0000
  H   H17       1.0  0.40607  0.59127  0.46121  1.0000
  C   C34       1.0  0.36484  0.52389  0.39348  1.0000
  C   C35       1.0  0.13921  0.97343  0.23721  1.0000
  O   O13       1.0  0.16516  0.94173  0.20087  1.0000
  O   O14       1.0  0.34113  0.54707  0.45414  1.0000
  C   C36       1.0  0.99501  0.79258  0.32737  1.0000
  C   C37       1.0  0.99844  0.69893  0.34943  1.0000
  C   C38       1.0  0.99430  0.71794  0.26278  1.0000
  C   C39       1.0  0.99173  0.76438  0.25168  1.0000
  N   N9        1.0  0.99016  0.68908  0.18873  1.0000
  N   N10       1.0  0.97882  0.77995  0.16621  1.0000
  O   O15       1.0  0.95314  0.69114  0.15188  1.0000
  O   O16       1.0  0.00877  0.79591  0.11900  1.0000
  O   O17       1.0  0.01994  0.69466  0.13179  1.0000
  O   O18       1.0  0.94591  0.80486  0.16715  1.0000
  N   N11       1.0  0.99996  0.65411  0.35995  1.0000
  H   H18       1.0  0.00864  0.63743  0.30748  1.0000
  C   C40       1.0  0.20469  0.51036  0.28168  1.0000
  C   C41       1.0  0.29820  0.50619  0.30849  1.0000
  C   C42       1.0  0.28019  0.51019  0.22088  1.0000
  C   C43       1.0  0.23382  0.51291  0.20738  1.0000
  N   N12       1.0  0.30995  0.51387  0.14831  1.0000
  N   N13       1.0  0.21915  0.52442  0.12053  1.0000
  O   O19       1.0  0.30828  0.55067  0.11050  1.0000
  O   O20       1.0  0.20035  0.49433  0.07829  1.0000
  O   O21       1.0  0.30489  0.48382  0.09178  1.0000
  O   O22       1.0  0.19611  0.55865  0.11896  1.0000
  N   N14       1.0  0.34292  0.50582  0.32245  1.0000
  H   H19       1.0  0.36112  0.49897  0.27104  1.0000
  C   C44       1.0  0.01878  0.98135  0.30855  1.0000
  C   C45       1.0  0.00917  0.93552  0.30414  1.0000
  C   C46       1.0  0.03923  0.90343  0.27301  1.0000
  C   C47       1.0  0.08037  0.91874  0.24261  1.0000
  H   H20       1.0  0.47961  0.92452  0.32637  1.0000
  H   H21       1.0  0.10279  0.89621  0.22086  1.0000
  C   C48       1.0  0.48730  0.51274  0.34191  1.0000
  C   C49       1.0  0.47027  0.58514  0.41279  1.0000
  C   C50       1.0  0.49933  0.55598  0.36898  1.0000
  H   H22       1.0  0.03095  0.56645  0.36333  1.0000
  C   C51       1.0  0.48035  0.63024  0.42651  1.0000
  C   C52       1.0  0.03083  0.85738  0.27375  1.0000
  O   O23       1.0  0.45579  0.65192  0.48802  1.0000
  O   O24       1.0  0.06237  0.83065  0.23921  1.0000
  C   C53       1.0  0.99695  0.77340  0.41295  1.0000
  C   C54       1.0  0.99939  0.72774  0.42347  1.0000
  H   H23       1.0  0.00473  0.71591  0.48631  1.0000
  H   H24       1.0  0.00020  0.79277  0.46838  1.0000
  N   N15       1.0  0.99813  0.83729  0.32124  1.0000
  H   H25       1.0  0.98687  0.85423  0.37138  1.0000
  C   C55       1.0  0.22285  0.50681  0.36794  1.0000
  C   C56       1.0  0.26828  0.50378  0.38059  1.0000
  H   H26       1.0  0.27912  0.49757  0.44382  1.0000
  H   H27       1.0  0.20277  0.50336  0.42230  1.0000
  N   N16       1.0  0.15991  0.50889  0.27437  1.0000
  H   H28       1.0  0.14395  0.52323  0.32264  1.0000
  C   C57       1.0  0.59428  0.46265  0.25289  1.0000
  C   C58       1.0  0.56251  0.49308  0.28375  1.0000
  H   H29       1.0  0.57147  0.02523  0.28273  1.0000
  C   C59       1.0  0.94150  0.00324  0.34917  1.0000
  C   C60       1.0  0.91108  0.03104  0.39332  1.0000
  C   C61       1.0  0.92774  0.06970  0.43298  1.0000
  H   H30       1.0  0.92937  0.47505  0.32210  1.0000
  H   H31       1.0  0.90607  0.09127  0.46121  1.0000
  C   C62       1.0  0.86484  0.02389  0.39348  1.0000
  C   C63       1.0  0.63921  0.47342  0.23721  1.0000
  O   O25       1.0  0.66516  0.44173  0.20087  1.0000
  O   O26       1.0  0.84113  0.04707  0.45414  1.0000
  C   C64       1.0  0.49500  0.29258  0.32737  1.0000
  C   C65       1.0  0.49844  0.19894  0.34943  1.0000
  C   C66       1.0  0.49430  0.21794  0.26278  1.0000
  C   C67       1.0  0.49173  0.26438  0.25168  1.0000
  N   N17       1.0  0.49016  0.18909  0.18873  1.0000
  N   N18       1.0  0.47882  0.27995  0.16621  1.0000
  O   O27       1.0  0.45314  0.19114  0.15188  1.0000
  O   O28       1.0  0.50877  0.29591  0.11900  1.0000
  O   O29       1.0  0.51994  0.19466  0.13179  1.0000
  O   O30       1.0  0.44591  0.30486  0.16715  1.0000
  N   N19       1.0  0.49995  0.15411  0.35995  1.0000
  H   H32       1.0  0.50864  0.13743  0.30748  1.0000
  C   C68       1.0  0.70469  0.01037  0.28168  1.0000
  C   C69       1.0  0.79820  0.00619  0.30849  1.0000
  C   C70       1.0  0.78019  0.01019  0.22088  1.0000
  C   C71       1.0  0.73382  0.01291  0.20738  1.0000
  N   N20       1.0  0.80995  0.01387  0.14831  1.0000
  N   N21       1.0  0.71915  0.02442  0.12053  1.0000
  O   O31       1.0  0.80828  0.05067  0.11050  1.0000
  O   O32       1.0  0.70035  0.99433  0.07829  1.0000
  O   O33       1.0  0.80489  0.98382  0.09178  1.0000
  O   O34       1.0  0.69611  0.05865  0.11896  1.0000
  N   N22       1.0  0.84292  0.00582  0.32245  1.0000
  H   H33       1.0  0.86112  0.99897  0.27104  1.0000
  C   C72       1.0  0.51878  0.48135  0.30855  1.0000
  C   C73       1.0  0.50917  0.43552  0.30414  1.0000
  C   C74       1.0  0.53923  0.40343  0.27301  1.0000
  C   C75       1.0  0.58037  0.41873  0.24261  1.0000
  H   H34       1.0  0.97961  0.42451  0.32637  1.0000
  H   H35       1.0  0.60279  0.39621  0.22086  1.0000
  C   C76       1.0  0.98730  0.01274  0.34191  1.0000
  C   C77       1.0  0.97027  0.08514  0.41279  1.0000
  C   C78       1.0  0.99933  0.05598  0.36898  1.0000
  H   H36       1.0  0.53095  0.06646  0.36333  1.0000
  C   C79       1.0  0.98035  0.13024  0.42651  1.0000
  C   C80       1.0  0.53082  0.35738  0.27375  1.0000
  O   O35       1.0  0.95579  0.15192  0.48802  1.0000
  O   O36       1.0  0.56237  0.33065  0.23921  1.0000
  C   C81       1.0  0.49695  0.27339  0.41295  1.0000
  C   C82       1.0  0.49939  0.22774  0.42347  1.0000
  H   H37       1.0  0.50473  0.21591  0.48631  1.0000
  H   H38       1.0  0.50020  0.29277  0.46838  1.0000
  N   N23       1.0  0.49814  0.33729  0.32124  1.0000
  H   H39       1.0  0.48687  0.35423  0.37138  1.0000
  C   C83       1.0  0.72285  0.00681  0.36794  1.0000
  C   C84       1.0  0.76828  0.00378  0.38059  1.0000
  H   H40       1.0  0.77912  0.99757  0.44382  1.0000
  H   H41       1.0  0.70277  0.00336  0.42230  1.0000
  N   N24       1.0  0.65991  0.00889  0.27437  1.0000
  H   H42       1.0  0.64395  0.02323  0.32264  1.0000
  C   C85       1.0  0.59428  0.96265  0.25289  1.0000
  C   C86       1.0  0.56251  0.99308  0.28375  1.0000
  H   H43       1.0  0.57147  0.52523  0.28273  1.0000
  C   C87       1.0  0.94150  0.50324  0.34917  1.0000
  C   C88       1.0  0.91108  0.53103  0.39332  1.0000
  C   C89       1.0  0.92774  0.56970  0.43298  1.0000
  H   H44       1.0  0.92937  0.97505  0.32210  1.0000
  H   H45       1.0  0.90607  0.59127  0.46121  1.0000
  C   C90       1.0  0.86484  0.52389  0.39348  1.0000
  C   C91       1.0  0.63921  0.97343  0.23721  1.0000
  O   O37       1.0  0.66516  0.94173  0.20087  1.0000
  O   O38       1.0  0.84113  0.54707  0.45414  1.0000
  C   C92       1.0  0.49500  0.79258  0.32737  1.0000
  C   C93       1.0  0.49844  0.69893  0.34943  1.0000
  C   C94       1.0  0.49430  0.71794  0.26278  1.0000
  C   C95       1.0  0.49173  0.76438  0.25168  1.0000
  N   N25       1.0  0.49016  0.68908  0.18873  1.0000
  N   N26       1.0  0.47882  0.77995  0.16621  1.0000
  O   O39       1.0  0.45314  0.69114  0.15188  1.0000
  O   O40       1.0  0.50877  0.79591  0.11900  1.0000
  O   O41       1.0  0.51994  0.69466  0.13179  1.0000
  O   O42       1.0  0.44591  0.80486  0.16715  1.0000
  N   N27       1.0  0.49995  0.65411  0.35995  1.0000
  H   H46       1.0  0.50864  0.63743  0.30748  1.0000
  C   C96       1.0  0.70469  0.51036  0.28168  1.0000
  C   C97       1.0  0.79820  0.50619  0.30849  1.0000
  C   C98       1.0  0.78019  0.51019  0.22088  1.0000
  C   C99       1.0  0.73382  0.51291  0.20738  1.0000
  N   N28       1.0  0.80995  0.51387  0.14831  1.0000
  N   N29       1.0  0.71915  0.52442  0.12053  1.0000
  O   O43       1.0  0.80828  0.55067  0.11050  1.0000
  O   O44       1.0  0.70035  0.49433  0.07829  1.0000
  O   O45       1.0  0.80489  0.48382  0.09178  1.0000
  O   O46       1.0  0.69611  0.55865  0.11896  1.0000
  N   N30       1.0  0.84292  0.50582  0.32245  1.0000
  H   H47       1.0  0.86112  0.49897  0.27104  1.0000
  C   C100      1.0  0.51878  0.98135  0.30855  1.0000
  C   C101      1.0  0.50917  0.93552  0.30414  1.0000
  C   C102      1.0  0.53923  0.90343  0.27301  1.0000
  C   C103      1.0  0.58037  0.91874  0.24261  1.0000
  H   H48       1.0  0.97961  0.92452  0.32637  1.0000
  H   H49       1.0  0.60279  0.89621  0.22086  1.0000
  C   C104      1.0  0.98730  0.51274  0.34191  1.0000
  C   C105      1.0  0.97027  0.58514  0.41279  1.0000
  C   C106      1.0  0.99933  0.55598  0.36898  1.0000
  H   H50       1.0  0.53095  0.56645  0.36333  1.0000
  C   C107      1.0  0.98035  0.63024  0.42651  1.0000
  C   C108      1.0  0.53082  0.85738  0.27375  1.0000
  O   O47       1.0  0.95579  0.65192  0.48802  1.0000
  O   O48       1.0  0.56237  0.83065  0.23921  1.0000
  C   C109      1.0  0.49695  0.77340  0.41295  1.0000
  C   C110      1.0  0.49939  0.72774  0.42347  1.0000
  H   H51       1.0  0.50473  0.71591  0.48631  1.0000
  H   H52       1.0  0.50020  0.79277  0.46838  1.0000
  N   N31       1.0  0.49814  0.83729  0.32124  1.0000
  H   H53       1.0  0.48687  0.85423  0.37138  1.0000
  C   C111      1.0  0.72285  0.50681  0.36794  1.0000
  C   C112      1.0  0.76828  0.50378  0.38059  1.0000
  H   H54       1.0  0.77912  0.49757  0.44382  1.0000
  H   H55       1.0  0.70277  0.50336  0.42230  1.0000
  N   N32       1.0  0.65991  0.50889  0.27437  1.0000
  H   H56       1.0  0.64395  0.52323  0.32264  1.0000
