data_image0
_chemical_formula_structural       C10H6C6H2C2H4CHCH3C2H3C8H7CHC3H3NCH2NC3H3NC10H6C6H2C2H2C4H3CHNC3H2NC3H3NC8H7CHC2H3C3H3CHC2H3
_chemical_formula_sum              "C84 H72 N6"
_cell_length_a       37.5378
_cell_length_b       37.5077
_cell_length_c       14.5444
_cell_angle_alpha    90
_cell_angle_beta     90
_cell_angle_gamma    120.018

_space_group_name_H-M_alt    "P 1"
_space_group_IT_number       1

loop_
  _space_group_symop_operation_xyz
  'x, y, z'

loop_
  _atom_site_type_symbol
  _atom_site_label
  _atom_site_symmetry_multiplicity
  _atom_site_fract_x
  _atom_site_fract_y
  _atom_site_fract_z
  _atom_site_occupancy
  C   C1        1.0  0.26792  0.64368  0.36562  1.0000
  C   C2        1.0  0.39537  0.63204  0.35782  1.0000
  C   C3        1.0  0.17882  0.60602  0.35776  1.0000
  C   C4        1.0  0.20526  0.64342  0.31169  1.0000
  C   C5        1.0  0.24847  0.66159  0.31526  1.0000
  C   C6        1.0  0.39526  0.79724  0.32761  1.0000
  C   C7        1.0  0.42048  0.84063  0.32812  1.0000
  C   C8        1.0  0.43312  0.58066  0.34940  1.0000
  C   C9        1.0  0.39664  0.57059  0.30033  1.0000
  C   C10       1.0  0.37841  0.59558  0.30420  1.0000
  H   H1        1.0  0.19322  0.65799  0.27412  1.0000
  H   H2        1.0  0.26570  0.68812  0.27875  1.0000
  H   H3        1.0  0.36847  0.78483  0.29085  1.0000
  H   H4        1.0  0.41092  0.85785  0.29241  1.0000
  H   H5        1.0  0.38274  0.54458  0.26057  1.0000
  H   H6        1.0  0.35251  0.58690  0.26585  1.0000
  C   C11       1.0  0.37594  0.65711  0.36300  1.0000
  C   C12       1.0  0.39957  0.70079  0.36530  1.0000
  C   C13       1.0  0.38178  0.72647  0.37041  1.0000
  C   C14       1.0  0.33813  0.70635  0.37220  1.0000
  C   C15       1.0  0.31243  0.66285  0.36824  1.0000
  C   C16       1.0  0.33242  0.63921  0.36459  1.0000
  H   H7        1.0  0.43083  0.71439  0.35952  1.0000
  H   H8        1.0  0.31462  0.60785  0.36216  1.0000
  C   C17       1.0  0.44943  0.55410  0.34573  1.0000
  C   C18       1.0  0.13597  0.58973  0.35415  1.0000
  H   H9        1.0  0.43127  0.52562  0.32234  1.0000
  H   H10       1.0  0.12571  0.60826  0.33302  1.0000
  H   H11       1.0  0.50997  0.58026  0.20811  1.0000
  H   H12       1.0  0.50232  0.53732  0.14429  1.0000
  C   C19       1.0  0.50340  0.99322  0.28259  1.0000
  H   H13       1.0  0.50351  0.05415  0.16680  1.0000
  C   C20       1.0  0.48244  0.97005  0.19660  1.0000
  H   H14       1.0  0.46396  0.93679  0.20524  1.0000
  H   H15       1.0  0.50532  0.97552  0.14396  1.0000
  H   H16       1.0  0.46173  0.98029  0.17098  1.0000
  C   C21       1.0  0.04580  0.51741  0.28763  1.0000
  C   C22       1.0  0.06882  0.51781  0.20289  1.0000
  H   H17       1.0  0.10159  0.52972  0.21350  1.0000
  H   H18       1.0  0.06593  0.53682  0.14999  1.0000
  H   H19       1.0  0.05635  0.48655  0.17672  1.0000
  C   C23       1.0  0.40701  0.77106  0.37268  1.0000
  C   C24       1.0  0.24134  0.60605  0.41124  1.0000
  C   C25       1.0  0.19797  0.58769  0.40756  1.0000
  C   C26       1.0  0.45898  0.86017  0.37361  1.0000
  C   C27       1.0  0.47072  0.83430  0.41936  1.0000
  C   C28       1.0  0.44533  0.79105  0.41938  1.0000
  C   C29       1.0  0.43214  0.64224  0.40627  1.0000
  C   C30       1.0  0.45055  0.61729  0.40229  1.0000
  H   H20       1.0  0.18041  0.56091  0.44300  1.0000
  H   H21       1.0  0.45532  0.77417  0.45492  1.0000
  H   H22       1.0  0.49827  0.84683  0.45341  1.0000
  H   H23       1.0  0.44549  0.66769  0.44765  1.0000
  H   H24       1.0  0.47661  0.62583  0.44004  1.0000
  H   H25       1.0  0.32453  0.72398  0.37911  1.0000
  H   H26       1.0  0.25342  0.59188  0.44992  1.0000
  C   C31       1.0  0.48618  0.90282  0.37052  1.0000
  H   H27       1.0  0.51623  0.91266  0.37253  1.0000
  C   C32       1.0  0.50433  0.54041  0.36560  1.0000
  C   C33       1.0  0.50675  0.52048  0.44699  1.0000
  C   C34       1.0  0.48963  0.52584  0.53569  1.0000
  H   H28       1.0  0.47650  0.54595  0.53154  1.0000
  H   H29       1.0  0.51397  0.53923  0.58729  1.0000
  H   H30       1.0  0.46518  0.49600  0.55981  1.0000
  N   N1        1.0  0.48655  0.56408  0.36870  1.0000
  C   C35       1.0  0.49873  0.97163  0.36654  1.0000
  H   H31       1.0  0.48709  0.93928  0.53578  1.0000
  H   H32       1.0  0.49935  0.98566  0.58898  1.0000
  N   N2        1.0  0.47486  0.93016  0.36804  1.0000
  C   C36       1.0  0.06733  0.53463  0.37150  1.0000
  C   C37       1.0  0.04501  0.53225  0.45291  1.0000
  C   C38       1.0  0.06750  0.54922  0.54168  1.0000
  H   H33       1.0  0.10068  0.56204  0.53768  1.0000
  H   H34       1.0  0.05627  0.52482  0.59325  1.0000
  H   H35       1.0  0.06241  0.57386  0.56575  1.0000
  N   N3        1.0  0.10875  0.55226  0.37459  1.0000
  C   C39       1.0  0.77911  0.38780  0.36172  1.0000
  C   C40       1.0  0.65131  0.39911  0.35405  1.0000
  C   C41       1.0  0.86814  0.42503  0.36085  1.0000
  C   C42       1.0  0.84237  0.38754  0.31457  1.0000
  C   C43       1.0  0.79915  0.36964  0.31451  1.0000
  C   C44       1.0  0.65111  0.23367  0.32365  1.0000
  C   C45       1.0  0.62603  0.19028  0.32729  1.0000
  C   C46       1.0  0.61404  0.45090  0.35254  1.0000
  C   C47       1.0  0.65067  0.46182  0.30340  1.0000
  C   C48       1.0  0.66859  0.43650  0.30367  1.0000
  H   H36       1.0  0.85493  0.37266  0.28006  1.0000
  H   H37       1.0  0.78236  0.34294  0.27833  1.0000
  H   H38       1.0  0.67729  0.24573  0.28476  1.0000
  H   H39       1.0  0.63519  0.17270  0.29175  1.0000
  H   H40       1.0  0.66495  0.48872  0.26673  1.0000
  H   H41       1.0  0.69470  0.44585  0.26566  1.0000
  C   C49       1.0  0.67087  0.37408  0.35735  1.0000
  C   C50       1.0  0.64736  0.33039  0.35961  1.0000
  C   C51       1.0  0.66526  0.30483  0.36478  1.0000
  C   C52       1.0  0.70890  0.32498  0.36629  1.0000
  C   C53       1.0  0.73453  0.36850  0.36246  1.0000
  C   C54       1.0  0.71440  0.39202  0.35880  1.0000
  H   H42       1.0  0.61606  0.31664  0.35439  1.0000
  H   H43       1.0  0.73214  0.42338  0.35692  1.0000
  C   C55       1.0  0.59872  0.47818  0.35554  1.0000
  C   C56       1.0  0.91074  0.44045  0.36391  1.0000
  H   H44       1.0  0.61899  0.50822  0.35268  1.0000
  H   H45       1.0  0.92049  0.42015  0.36335  1.0000
  C   C57       1.0  0.54262  0.49094  0.35982  1.0000
  C   C58       1.0  0.53951  0.51026  0.27814  1.0000
  C   C59       1.0  0.52167  0.53623  0.28180  1.0000
  C   C60       1.0  0.55446  0.50318  0.18804  1.0000
  H   H46       1.0  0.56444  0.48048  0.19066  1.0000
  H   H47       1.0  0.58044  0.53191  0.16348  1.0000
  H   H48       1.0  0.52982  0.49188  0.13716  1.0000
  C   C61       1.0  0.52149  0.55908  0.19723  1.0000
  H   H49       1.0  0.55275  0.57764  0.17099  1.0000
  N   N4        1.0  0.56010  0.46692  0.35859  1.0000
  C   C62       1.0  0.54783  0.05948  0.36150  1.0000
  C   C63       1.0  0.52814  0.03723  0.27997  1.0000
  C   C64       1.0  0.53334  0.05977  0.19125  1.0000
  H   H50       1.0  0.55318  0.09305  0.19583  1.0000
  H   H51       1.0  0.54692  0.04914  0.13944  1.0000
  N   N5        1.0  0.57183  0.10098  0.35897  1.0000
  C   C65       1.0  0.97961  0.49652  0.36573  1.0000
  C   C66       1.0  0.00198  0.49950  0.28406  1.0000
  C   C67       1.0  0.97988  0.48430  0.19412  1.0000
  H   H52       1.0  0.94712  0.47391  0.19700  1.0000
  H   H53       1.0  0.98291  0.45849  0.16950  1.0000
  H   H54       1.0  0.99293  0.50894  0.14317  1.0000
  N   N6        1.0  0.93813  0.47913  0.36443  1.0000
  C   C68       1.0  0.64009  0.26030  0.36908  1.0000
  C   C69       1.0  0.80519  0.42561  0.40734  1.0000
  C   C70       1.0  0.84857  0.44382  0.40694  1.0000
  C   C71       1.0  0.58850  0.17116  0.37684  1.0000
  C   C72       1.0  0.57762  0.19764  0.42298  1.0000
  C   C73       1.0  0.60272  0.24088  0.41940  1.0000
  C   C74       1.0  0.61433  0.38818  0.40246  1.0000
  C   C75       1.0  0.59606  0.41329  0.40166  1.0000
  H   H55       1.0  0.86576  0.47052  0.44299  1.0000
  H   H56       1.0  0.59340  0.25818  0.45554  1.0000
  H   H57       1.0  0.55094  0.18561  0.46028  1.0000
  H   H58       1.0  0.60080  0.36215  0.44198  1.0000
  H   H59       1.0  0.57008  0.40445  0.43997  1.0000
  H   H60       1.0  0.72245  0.30733  0.37372  1.0000
  H   H61       1.0  0.79272  0.43989  0.44428  1.0000
  C   C76       1.0  0.56179  0.12829  0.37996  1.0000
  H   H62       1.0  0.53301  0.11809  0.40096  1.0000
  C   C77       1.0  0.52577  0.49554  0.44391  1.0000
  C   C78       1.0  0.52904  0.47339  0.52665  1.0000
  H   H63       1.0  0.51539  0.47708  0.58926  1.0000
  H   H64       1.0  0.56139  0.48439  0.54166  1.0000
  H   H65       1.0  0.51375  0.44040  0.51255  1.0000
  C   C79       1.0  0.51797  0.99400  0.44846  1.0000
  C   C80       1.0  0.54378  0.03788  0.44510  1.0000
  C   C81       1.0  0.56722  0.06289  0.52718  1.0000
  H   H66       1.0  0.56582  0.04505  0.58739  1.0000
  H   H67       1.0  0.55545  0.08307  0.54759  1.0000
  H   H68       1.0  0.59976  0.08181  0.50976  1.0000
  C   C82       1.0  0.51028  0.97183  0.53839  1.0000
  H   H69       1.0  0.53871  0.97391  0.56301  1.0000
  C   C83       1.0  0.00108  0.51341  0.44977  1.0000
  C   C84       1.0  0.97573  0.51033  0.53244  1.0000
  H   H70       1.0  0.99310  0.52414  0.59493  1.0000
  H   H71       1.0  0.95434  0.47799  0.54779  1.0000
  H   H72       1.0  0.95807  0.52562  0.51806  1.0000
