data_image0
_chemical_formula_structural       C5H2C3HC4HC4H2C6H4C3H2C2N2C7H6NC7H6NC7H6NC4H3CH3CHC4H3CH3C5H3CH3CHC3H2CHC3H2CHC3H2CHC3H4NC11H6C6H3C6N2C11H6C6H3C6N2C11H6C6H3C6N2C3H2CHC3H2CHC3H2CHC4H3CH3CHC4H3CH3CHC4H3CH3CH
_chemical_formula_sum              "C180 H120 N12"
_cell_length_a       70.2021
_cell_length_b       70.2077
_cell_length_c       14.9058
_cell_angle_alpha    90
_cell_angle_beta     90
_cell_angle_gamma    119.995

_space_group_name_H-M_alt    "P 1"
_space_group_IT_number       1

loop_
  _space_group_symop_operation_xyz
  'x, y, z'

loop_
  _atom_site_type_symbol
  _atom_site_label
  _atom_site_symmetry_multiplicity
  _atom_site_fract_x
  _atom_site_fract_y
  _atom_site_fract_z
  _atom_site_occupancy
  C   C1        1.0  0.08289  0.03971  0.34026  1.0000
  C   C2        1.0  0.95637  0.04479  0.33777  1.0000
  C   C3        1.0  0.96734  0.06730  0.31439  1.0000
  C   C4        1.0  0.11775  0.03966  0.33526  1.0000
  C   C5        1.0  0.09455  0.02818  0.33494  1.0000
  H   H1        1.0  0.08635  0.01137  0.33068  1.0000
  H   H2        1.0  0.12579  0.03090  0.33095  1.0000
  C   C6        1.0  0.02010  0.00990  0.33863  1.0000
  C   C7        1.0  0.00923  0.02227  0.33826  1.0000
  C   C8        1.0  0.98599  0.01163  0.33769  1.0000
  H   H3        1.0  0.01829  0.03916  0.33844  1.0000
  C   C9        1.0  0.96676  0.03363  0.33746  1.0000
  C   C10       1.0  0.97601  0.02320  0.33747  1.0000
  C   C11       1.0  0.04165  0.01989  0.33922  1.0000
  C   C12       1.0  0.06134  0.02919  0.33975  1.0000
  H   H4        1.0  0.89200  0.05992  0.32203  1.0000
  C   C13       1.0  0.93394  0.03445  0.36201  1.0000
  C   C14       1.0  0.92270  0.04638  0.36223  1.0000
  C   C15       1.0  0.09485  0.06288  0.34641  1.0000
  C   C16       1.0  0.12987  0.06285  0.34012  1.0000
  H   H5        1.0  0.90655  0.03845  0.38111  1.0000
  H   H6        1.0  0.92555  0.01818  0.37990  1.0000
  C   C17       1.0  0.95113  0.91302  0.33823  1.0000
  C   C18       1.0  0.93351  0.06891  0.33784  1.0000
  C   C19       1.0  0.95602  0.07918  0.31487  1.0000
  C   C20       1.0  0.92704  0.86605  0.33840  1.0000
  C   C21       1.0  0.91664  0.87827  0.31720  1.0000
  C   C22       1.0  0.92851  0.90146  0.31668  1.0000
  H   H7        1.0  0.96435  0.09545  0.29738  1.0000
  H   H8        1.0  0.98363  0.07530  0.29679  1.0000
  H   H9        1.0  0.90029  0.87031  0.30107  1.0000
  H   H10       1.0  0.92042  0.90974  0.30039  1.0000
  C   C23       1.0  0.98427  0.97579  0.33785  1.0000
  C   C24       1.0  0.00752  0.98667  0.33842  1.0000
  C   C25       1.0  0.97362  0.98838  0.33750  1.0000
  H   H11       1.0  0.01534  0.97760  0.33871  1.0000
  H   H12       1.0  0.95674  0.98057  0.33714  1.0000
  C   C26       1.0  0.96228  0.93457  0.33786  1.0000
  C   C27       1.0  0.97271  0.95425  0.33777  1.0000
  N   N1        1.0  0.92383  0.08119  0.33650  1.0000
  N   N2        1.0  0.91478  0.84409  0.33722  1.0000
  C   C28       1.0  0.49976  0.30282  0.31071  1.0000
  C   C29       1.0  0.51694  0.32484  0.31337  1.0000
  C   C30       1.0  0.32993  0.17945  0.35372  1.0000
  C   C31       1.0  0.30676  0.16782  0.35143  1.0000
  C   C32       1.0  0.29485  0.14467  0.34030  1.0000
  C   C33       1.0  0.47635  0.15937  0.32864  1.0000
  C   C34       1.0  0.49366  0.15471  0.32947  1.0000
  H   H13       1.0  0.53246  0.32838  0.29580  1.0000
  H   H14       1.0  0.33796  0.19619  0.36124  1.0000
  H   H15       1.0  0.29873  0.17653  0.35609  1.0000
  H   H16       1.0  0.46083  0.14709  0.31246  1.0000
  H   H17       1.0  0.49016  0.13911  0.31411  1.0000
  H   H18       1.0  0.50329  0.29091  0.29144  1.0000
  N   N3        1.0  0.27295  0.13288  0.33269  1.0000
  C   C35       1.0  0.69314  0.19850  0.31039  1.0000
  C   C36       1.0  0.67112  0.19365  0.31315  1.0000
  C   C37       1.0  0.81652  0.15204  0.34973  1.0000
  C   C38       1.0  0.82817  0.14052  0.34752  1.0000
  C   C39       1.0  0.85137  0.15179  0.33814  1.0000
  C   C40       1.0  0.83663  0.31853  0.32827  1.0000
  C   C41       1.0  0.84131  0.34052  0.32915  1.0000
  H   H19       1.0  0.66756  0.20563  0.29562  1.0000
  H   H20       1.0  0.79975  0.14329  0.35610  1.0000
  H   H21       1.0  0.81944  0.12375  0.35114  1.0000
  H   H22       1.0  0.84891  0.31529  0.31202  1.0000
  H   H23       1.0  0.85690  0.35260  0.31373  1.0000
  H   H24       1.0  0.70504  0.21394  0.29109  1.0000
  N   N4        1.0  0.86324  0.14175  0.33152  1.0000
  C   C42       1.0  0.79751  0.49617  0.31033  1.0000
  C   C43       1.0  0.80237  0.47900  0.31309  1.0000
  C   C44       1.0  0.84393  0.66599  0.35027  1.0000
  C   C45       1.0  0.85545  0.68915  0.34804  1.0000
  C   C46       1.0  0.84418  0.70107  0.33835  1.0000
  C   C47       1.0  0.67744  0.51958  0.32833  1.0000
  C   C48       1.0  0.65545  0.50227  0.32925  1.0000
  H   H25       1.0  0.79039  0.46348  0.29549  1.0000
  H   H26       1.0  0.85267  0.65796  0.35685  1.0000
  H   H27       1.0  0.87222  0.69720  0.35184  1.0000
  H   H28       1.0  0.68067  0.53510  0.31210  1.0000
  H   H29       1.0  0.64336  0.50577  0.31390  1.0000
  H   H30       1.0  0.78208  0.49264  0.29095  1.0000
  N   N5        1.0  0.85424  0.72298  0.33154  1.0000
  C   C49       1.0  0.18901  0.09966  0.32175  1.0000
  C   C50       1.0  0.20258  0.10860  0.24410  1.0000
  C   C51       1.0  0.22610  0.12060  0.25360  1.0000
  C   C52       1.0  0.19235  0.10586  0.15314  1.0000
  H   H31       1.0  0.17453  0.09532  0.15241  1.0000
  H   H32       1.0  0.19879  0.09834  0.10723  1.0000
  H   H33       1.0  0.19608  0.12185  0.12671  1.0000
  C   C53       1.0  0.24020  0.13146  0.17297  1.0000
  H   H34       1.0  0.25774  0.14098  0.18683  1.0000
  H   H35       1.0  0.23567  0.14282  0.14297  1.0000
  H   H36       1.0  0.23790  0.11904  0.12349  1.0000
  C   C54       1.0  0.16665  0.09251  0.32085  1.0000
  H   H37       1.0  0.16223  0.10330  0.30140  1.0000
  C   C55       1.0  0.89645  0.09095  0.32722  1.0000
  C   C56       1.0  0.88740  0.09493  0.24836  1.0000
  C   C57       1.0  0.87554  0.10666  0.25521  1.0000
  C   C58       1.0  0.88980  0.08648  0.15908  1.0000
  H   H38       1.0  0.89997  0.07880  0.16051  1.0000
  H   H39       1.0  0.89752  0.10001  0.11122  1.0000
  H   H40       1.0  0.87366  0.07426  0.13373  1.0000
  C   C59       1.0  0.86481  0.10953  0.17334  1.0000
  H   H41       1.0  0.85570  0.11807  0.18519  1.0000
  H   H42       1.0  0.85314  0.09349  0.14538  1.0000
  H   H43       1.0  0.87726  0.11902  0.12297  1.0000
  C   C60       1.0  0.90342  0.07563  0.32980  1.0000
  C   C61       1.0  0.90508  0.80697  0.32633  1.0000
  C   C62       1.0  0.90103  0.79385  0.24768  1.0000
  C   C63       1.0  0.88933  0.77028  0.25499  1.0000
  C   C64       1.0  0.90938  0.80459  0.15814  1.0000
  H   H44       1.0  0.91701  0.82244  0.15917  1.0000
  H   H45       1.0  0.89581  0.79868  0.11047  1.0000
  H   H46       1.0  0.92162  0.80070  0.13280  1.0000
  C   C65       1.0  0.88644  0.75659  0.17339  1.0000
  H   H47       1.0  0.87796  0.73895  0.18558  1.0000
  H   H48       1.0  0.90247  0.76097  0.14530  1.0000
  H   H49       1.0  0.87688  0.75945  0.12298  1.0000
  C   C66       1.0  0.92035  0.82928  0.32827  1.0000
  H   H50       1.0  0.93601  0.83364  0.31816  1.0000
  C   C67       1.0  0.59583  0.15323  0.35196  1.0000
  C   C68       1.0  0.59053  0.16289  0.28034  1.0000
  C   C69       1.0  0.57053  0.16273  0.27904  1.0000
  H   H51       1.0  0.56699  0.16928  0.22441  1.0000
  H   H52       1.0  0.60089  0.16952  0.22651  1.0000
  C   C70       1.0  0.61492  0.15214  0.34385  1.0000
  H   H53       1.0  0.61358  0.13739  0.33933  1.0000
  C   C71       1.0  0.84281  0.44416  0.35202  1.0000
  C   C72       1.0  0.83318  0.42923  0.28031  1.0000
  C   C73       1.0  0.83334  0.40938  0.27894  1.0000
  H   H54       1.0  0.82676  0.39929  0.22433  1.0000
  H   H55       1.0  0.82651  0.43294  0.22657  1.0000
  C   C74       1.0  0.84388  0.46433  0.34401  1.0000
  H   H56       1.0  0.85863  0.47774  0.33952  1.0000
  C   C75       1.0  0.55182  0.40012  0.35200  1.0000
  C   C76       1.0  0.56676  0.40541  0.28037  1.0000
  C   C77       1.0  0.58661  0.42542  0.27902  1.0000
  H   H57       1.0  0.59670  0.42895  0.22438  1.0000
  H   H58       1.0  0.56304  0.39506  0.22655  1.0000
  C   C78       1.0  0.53164  0.38104  0.34393  1.0000
  H   H59       1.0  0.51824  0.38239  0.33941  1.0000
  C   C79       1.0  0.11803  0.07427  0.34657  1.0000
  C   C80       1.0  0.96160  0.90094  0.36070  1.0000
  C   C81       1.0  0.94968  0.87777  0.36098  1.0000
  H   H60       1.0  0.08689  0.07173  0.35095  1.0000
  H   H61       1.0  0.12614  0.09101  0.35207  1.0000
  H   H62       1.0  0.97795  0.90882  0.37727  1.0000
  H   H63       1.0  0.95771  0.86956  0.37859  1.0000
  N   N6        1.0  0.15185  0.07261  0.33944  1.0000
  C   C82       1.0  0.34179  0.16821  0.34423  1.0000
  C   C83       1.0  0.47820  0.29732  0.33582  1.0000
  C   C84       1.0  0.48044  0.18069  0.34969  1.0000
  C   C85       1.0  0.51296  0.34180  0.34038  1.0000
  C   C86       1.0  0.49133  0.33617  0.36583  1.0000
  C   C87       1.0  0.47409  0.31415  0.36356  1.0000
  C   C88       1.0  0.30686  0.13361  0.32989  1.0000
  C   C89       1.0  0.33005  0.14516  0.33231  1.0000
  C   C90       1.0  0.51541  0.17122  0.35110  1.0000
  C   C91       1.0  0.51932  0.19248  0.37201  1.0000
  C   C92       1.0  0.50207  0.19724  0.37128  1.0000
  H   H64       1.0  0.48800  0.34796  0.38818  1.0000
  H   H65       1.0  0.45869  0.31058  0.38360  1.0000
  H   H66       1.0  0.33819  0.13657  0.32436  1.0000
  H   H67       1.0  0.29876  0.11695  0.32006  1.0000
  H   H68       1.0  0.53484  0.20475  0.38797  1.0000
  H   H69       1.0  0.50555  0.21289  0.38654  1.0000
  C   C93       1.0  0.43993  0.20139  0.34497  1.0000
  C   C94       1.0  0.41670  0.18938  0.34573  1.0000
  C   C95       1.0  0.40455  0.20050  0.34411  1.0000
  C   C96       1.0  0.41584  0.22378  0.34167  1.0000
  C   C97       1.0  0.43908  0.23587  0.34085  1.0000
  C   C98       1.0  0.45100  0.22458  0.34255  1.0000
  H   H70       1.0  0.40715  0.23197  0.34043  1.0000
  H   H71       1.0  0.40864  0.17251  0.34746  1.0000
  H   H72       1.0  0.46792  0.23334  0.34201  1.0000
  C   C99       1.0  0.46465  0.18538  0.34803  1.0000
  C   C100      1.0  0.45167  0.19168  0.34656  1.0000
  C   C101      1.0  0.46264  0.27672  0.33689  1.0000
  C   C102      1.0  0.45008  0.25734  0.33861  1.0000
  C   C103      1.0  0.38301  0.18931  0.34461  1.0000
  C   C104      1.0  0.36333  0.17911  0.34471  1.0000
  N   N7        1.0  0.53021  0.36207  0.34448  1.0000
  N   N8        1.0  0.53268  0.16819  0.35402  1.0000
  C   C105      1.0  0.82780  0.17518  0.34192  1.0000
  C   C106      1.0  0.69866  0.18244  0.33543  1.0000
  C   C107      1.0  0.81531  0.30131  0.34932  1.0000
  C   C108      1.0  0.65417  0.17272  0.34019  1.0000
  C   C109      1.0  0.65981  0.15672  0.36557  1.0000
  C   C110      1.0  0.68183  0.16150  0.36320  1.0000
  C   C111      1.0  0.86247  0.17492  0.32935  1.0000
  C   C112      1.0  0.85090  0.18654  0.33168  1.0000
  C   C113      1.0  0.82481  0.34576  0.35082  1.0000
  C   C114      1.0  0.80354  0.32841  0.37175  1.0000
  C   C115      1.0  0.79877  0.30640  0.37097  1.0000
  H   H73       1.0  0.64803  0.14160  0.38794  1.0000
  H   H74       1.0  0.68542  0.14969  0.38319  1.0000
  H   H75       1.0  0.85952  0.20330  0.32505  1.0000
  H   H76       1.0  0.87917  0.18352  0.32099  1.0000
  H   H77       1.0  0.79127  0.33167  0.38772  1.0000
  H   H78       1.0  0.78312  0.29424  0.38622  1.0000
  C   C116      1.0  0.79459  0.24012  0.34420  1.0000
  C   C117      1.0  0.80660  0.22889  0.34455  1.0000
  C   C118      1.0  0.79548  0.20562  0.34271  1.0000
  C   C119      1.0  0.77221  0.19364  0.34047  1.0000
  C   C120      1.0  0.76011  0.20478  0.34007  1.0000
  C   C121      1.0  0.77140  0.22799  0.34198  1.0000
  H   H79       1.0  0.76402  0.17675  0.33906  1.0000
  H   H80       1.0  0.82349  0.23771  0.34613  1.0000
  H   H81       1.0  0.76263  0.23614  0.34172  1.0000
  C   C122      1.0  0.81061  0.28083  0.34755  1.0000
  C   C123      1.0  0.80430  0.26155  0.34595  1.0000
  C   C124      1.0  0.71925  0.18748  0.33638  1.0000
  C   C125      1.0  0.73864  0.19431  0.33797  1.0000
  C   C126      1.0  0.80669  0.19528  0.34283  1.0000
  C   C127      1.0  0.81689  0.18580  0.34262  1.0000
  N   N9        1.0  0.63389  0.16969  0.34435  1.0000
  N   N10       1.0  0.82785  0.36606  0.35371  1.0000
  C   C128      1.0  0.82080  0.65413  0.34217  1.0000
  C   C129      1.0  0.81356  0.51774  0.33547  1.0000
  C   C130      1.0  0.69466  0.51549  0.34935  1.0000
  C   C131      1.0  0.82330  0.48299  0.34024  1.0000
  C   C132      1.0  0.83929  0.50462  0.36572  1.0000
  C   C133      1.0  0.83449  0.52185  0.36334  1.0000
  C   C134      1.0  0.82107  0.68905  0.32927  1.0000
  C   C135      1.0  0.80944  0.66586  0.33162  1.0000
  C   C136      1.0  0.65023  0.48053  0.35094  1.0000
  C   C137      1.0  0.66759  0.47663  0.37184  1.0000
  C   C138      1.0  0.68959  0.49387  0.37101  1.0000
  H   H82       1.0  0.85440  0.50796  0.38817  1.0000
  H   H83       1.0  0.84630  0.53725  0.38341  1.0000
  H   H84       1.0  0.79268  0.65772  0.32476  1.0000
  H   H85       1.0  0.81246  0.69715  0.32063  1.0000
  H   H86       1.0  0.66434  0.46111  0.38783  1.0000
  H   H87       1.0  0.70176  0.49039  0.38624  1.0000
  C   C139      1.0  0.75587  0.55599  0.34424  1.0000
  C   C140      1.0  0.76709  0.57922  0.34464  1.0000
  C   C141      1.0  0.79036  0.59137  0.34284  1.0000
  C   C142      1.0  0.80235  0.58008  0.34058  1.0000
  C   C143      1.0  0.79120  0.55685  0.34012  1.0000
  C   C144      1.0  0.76800  0.54493  0.34200  1.0000
  H   H88       1.0  0.81923  0.58878  0.33920  1.0000
  H   H89       1.0  0.75827  0.58728  0.34625  1.0000
  H   H90       1.0  0.75984  0.52801  0.34171  1.0000
  C   C145      1.0  0.71515  0.53128  0.34757  1.0000
  C   C146      1.0  0.73442  0.54425  0.34598  1.0000
  C   C147      1.0  0.80852  0.53330  0.33641  1.0000
  C   C148      1.0  0.80168  0.54584  0.33801  1.0000
  C   C149      1.0  0.80069  0.61291  0.34301  1.0000
  C   C150      1.0  0.81018  0.63259  0.34285  1.0000
  N   N11       1.0  0.82633  0.46574  0.34442  1.0000
  N   N12       1.0  0.62993  0.46327  0.35392  1.0000
  C   C151      1.0  0.23568  0.12279  0.34036  1.0000
  C   C152      1.0  0.22186  0.11283  0.41507  1.0000
  C   C153      1.0  0.19892  0.10155  0.40606  1.0000
  H   H91       1.0  0.18954  0.09581  0.46295  1.0000
  H   H92       1.0  0.22832  0.11472  0.47828  1.0000
  C   C154      1.0  0.25780  0.13685  0.35890  1.0000
  H   H93       1.0  0.26174  0.15056  0.39258  1.0000
  C   C155      1.0  0.87337  0.11462  0.34070  1.0000
  C   C156      1.0  0.88337  0.11130  0.41664  1.0000
  C   C157      1.0  0.89465  0.09959  0.41013  1.0000
  H   H94       1.0  0.90036  0.09630  0.46798  1.0000
  H   H95       1.0  0.88141  0.11621  0.47906  1.0000
  C   C158      1.0  0.85912  0.12255  0.35719  1.0000
  H   H96       1.0  0.84521  0.11266  0.38941  1.0000
  C   C159      1.0  0.88138  0.76024  0.34065  1.0000
  C   C160      1.0  0.88476  0.77365  0.41633  1.0000
  C   C161      1.0  0.89647  0.79663  0.40941  1.0000
  H   H97       1.0  0.89973  0.80570  0.46704  1.0000
  H   H98       1.0  0.87979  0.76684  0.47884  1.0000
  C   C162      1.0  0.87340  0.73807  0.35754  1.0000
  H   H99       1.0  0.88324  0.73405  0.39024  1.0000
  C   C163      1.0  0.55522  0.15288  0.34929  1.0000
  C   C164      1.0  0.56029  0.14337  0.42369  1.0000
  C   C165      1.0  0.58086  0.14361  0.42518  1.0000
  C   C166      1.0  0.54432  0.13310  0.49968  1.0000
  H   H100      1.0  0.52929  0.13389  0.49261  1.0000
  H   H101      1.0  0.55195  0.14143  0.56239  1.0000
  H   H102      1.0  0.53941  0.11575  0.50548  1.0000
  C   C167      1.0  0.58640  0.13380  0.50334  1.0000
  H   H103      1.0  0.60259  0.13530  0.49956  1.0000
  H   H104      1.0  0.57440  0.11630  0.50842  1.0000
  H   H105      1.0  0.58618  0.14196  0.56528  1.0000
  C   C168      1.0  0.53501  0.15148  0.33821  1.0000
  H   H106      1.0  0.52231  0.13706  0.32058  1.0000
  C   C169      1.0  0.84319  0.40391  0.34915  1.0000
  C   C170      1.0  0.85268  0.41847  0.42363  1.0000
  C   C171      1.0  0.85242  0.43879  0.42520  1.0000
  C   C172      1.0  0.86294  0.41275  0.49962  1.0000
  H   H107      1.0  0.86215  0.39694  0.49248  1.0000
  H   H108      1.0  0.85459  0.41203  0.56231  1.0000
  H   H109      1.0  0.88029  0.42520  0.50550  1.0000
  C   C173      1.0  0.86222  0.45412  0.50343  1.0000
  H   H110      1.0  0.86071  0.46881  0.49972  1.0000
  H   H111      1.0  0.87972  0.45962  0.50856  1.0000
  H   H112      1.0  0.85405  0.44571  0.56533  1.0000
  C   C174      1.0  0.84458  0.38510  0.33806  1.0000
  H   H113      1.0  0.85901  0.38681  0.32075  1.0000
  C   C175      1.0  0.59208  0.44073  0.34925  1.0000
  C   C176      1.0  0.57751  0.43567  0.42367  1.0000
  C   C177      1.0  0.55718  0.41511  0.42520  1.0000
  C   C178      1.0  0.58322  0.45165  0.49964  1.0000
  H   H114      1.0  0.59904  0.46667  0.49253  1.0000
  H   H115      1.0  0.58391  0.44402  0.56236  1.0000
  H   H116      1.0  0.57077  0.45656  0.50544  1.0000
  C   C179      1.0  0.54183  0.40957  0.50337  1.0000
  H   H117      1.0  0.52714  0.39339  0.49962  1.0000
  H   H118      1.0  0.53634  0.42158  0.50845  1.0000
  H   H119      1.0  0.55022  0.40980  0.56530  1.0000
  C   C180      1.0  0.61089  0.46094  0.33814  1.0000
  H   H120      1.0  0.60917  0.47363  0.32048  1.0000
