data_image0
_chemical_formula_structural       C7H4CNCH2CHC7H4CNCH2CHNC5H3N2C5H3N2C5H3NC11H6NCNC2H2C11H6NCNC2H2C5NH3NC5NH3NC5NH3N
_chemical_formula_sum              "C78 H48 N18"
_cell_length_a       44.0616
_cell_length_b       44.0615
_cell_length_c       15.0035
_cell_angle_alpha    90
_cell_angle_beta     90
_cell_angle_gamma    120

_space_group_name_H-M_alt    "P 1"
_space_group_IT_number       1

loop_
  _space_group_symop_operation_xyz
  'x, y, z'

loop_
  _atom_site_type_symbol
  _atom_site_label
  _atom_site_symmetry_multiplicity
  _atom_site_fract_x
  _atom_site_fract_y
  _atom_site_fract_z
  _atom_site_occupancy
  C   C1        1.0  0.37733  0.63774  0.33865  1.0000
  C   C2        1.0  0.36197  0.73954  0.33869  1.0000
  C   C3        1.0  0.42212  0.60819  0.32154  1.0000
  C   C4        1.0  0.43603  0.64486  0.31928  1.0000
  C   C5        1.0  0.41406  0.65934  0.32817  1.0000
  C   C6        1.0  0.39871  0.76256  0.34177  1.0000
  C   C7        1.0  0.41326  0.79904  0.33339  1.0000
  H   H1        1.0  0.42535  0.68602  0.32495  1.0000
  H   H2        1.0  0.46235  0.66146  0.31037  1.0000
  H   H3        1.0  0.41553  0.75304  0.34887  1.0000
  H   H4        1.0  0.43998  0.81458  0.33397  1.0000
  C   C8        1.0  0.34732  0.70246  0.34289  1.0000
  N   N1        1.0  0.36798  0.68764  0.34252  1.0000
  C   C9        1.0  0.35490  0.65239  0.34287  1.0000
  H   H5        1.0  0.24667  0.66243  0.34887  1.0000
  H   H6        1.0  0.18513  0.62533  0.33399  1.0000
  C   C10       1.0  0.44400  0.59441  0.30830  1.0000
  H   H7        1.0  0.46499  0.60743  0.26962  1.0000
  C   C11       1.0  0.62231  0.36202  0.32753  1.0000
  C   C12       1.0  0.63768  0.26023  0.32768  1.0000
  C   C13       1.0  0.57753  0.39157  0.34454  1.0000
  C   C14       1.0  0.56362  0.35490  0.34682  1.0000
  C   C15       1.0  0.58559  0.34042  0.33798  1.0000
  C   C16       1.0  0.60094  0.23720  0.32458  1.0000
  C   C17       1.0  0.58640  0.20073  0.33292  1.0000
  H   H8        1.0  0.57430  0.31374  0.34122  1.0000
  H   H9        1.0  0.53729  0.33830  0.35573  1.0000
  H   H10       1.0  0.58413  0.24672  0.31743  1.0000
  H   H11       1.0  0.55969  0.18518  0.33225  1.0000
  C   C18       1.0  0.65233  0.29731  0.32347  1.0000
  N   N2        1.0  0.63167  0.31213  0.32379  1.0000
  C   C19       1.0  0.64475  0.34738  0.32341  1.0000
  H   H12       1.0  0.75299  0.33735  0.31753  1.0000
  H   H13       1.0  0.81453  0.37446  0.33230  1.0000
  C   C20       1.0  0.55565  0.40536  0.35781  1.0000
  H   H14       1.0  0.53466  0.39234  0.39652  1.0000
  N   N3        1.0  0.48996  0.52830  0.26543  1.0000
  C   C21       1.0  0.47359  0.54741  0.26511  1.0000
  C   C22       1.0  0.50888  0.49031  0.32960  1.0000
  C   C23       1.0  0.52669  0.48996  0.25133  1.0000
  C   C24       1.0  0.54421  0.47063  0.24919  1.0000
  C   C25       1.0  0.54376  0.45103  0.32390  1.0000
  H   H15       1.0  0.52729  0.50372  0.19580  1.0000
  H   H16       1.0  0.55708  0.47073  0.19227  1.0000
  H   H17       1.0  0.47400  0.56029  0.20812  1.0000
  N   N4        1.0  0.56130  0.43380  0.31937  1.0000
  N   N5        1.0  0.47149  0.96161  0.26541  1.0000
  C   C26       1.0  0.45237  0.92611  0.26509  1.0000
  C   C27       1.0  0.50941  0.01851  0.32964  1.0000
  C   C28       1.0  0.50982  0.03667  0.25130  1.0000
  C   C29       1.0  0.52916  0.07352  0.24916  1.0000
  C   C30       1.0  0.54866  0.09268  0.32397  1.0000
  H   H18       1.0  0.49613  0.02351  0.19570  1.0000
  H   H19       1.0  0.52911  0.08629  0.19219  1.0000
  H   H20       1.0  0.43956  0.91364  0.20804  1.0000
  N   N6        1.0  0.56591  0.12744  0.31943  1.0000
  N   N7        1.0  0.03811  0.50981  0.26540  1.0000
  C   C31       1.0  0.07360  0.52619  0.26509  1.0000
  C   C32       1.0  0.98120  0.49083  0.32961  1.0000
  C   C33       1.0  0.96305  0.47309  0.25126  1.0000
  C   C34       1.0  0.92619  0.45557  0.24910  1.0000
  C   C35       1.0  0.90703  0.45595  0.32387  1.0000
  H   H21       1.0  0.97621  0.47254  0.19568  1.0000
  H   H22       1.0  0.91342  0.44275  0.19213  1.0000
  H   H23       1.0  0.08608  0.52584  0.20805  1.0000
  N   N8        1.0  0.87227  0.43842  0.31933  1.0000
  C   C36       1.0  0.26017  0.62238  0.33870  1.0000
  C   C37       1.0  0.23715  0.63610  0.34176  1.0000
  C   C38       1.0  0.20067  0.61416  0.33340  1.0000
  C   C39       1.0  0.18584  0.57761  0.32158  1.0000
  C   C40       1.0  0.20860  0.56370  0.31924  1.0000
  C   C41       1.0  0.24504  0.58565  0.32818  1.0000
  C   C42       1.0  0.36362  0.60100  0.34164  1.0000
  C   C43       1.0  0.38556  0.58647  0.33327  1.0000
  C   C44       1.0  0.39153  0.81387  0.32153  1.0000
  C   C45       1.0  0.35487  0.79111  0.31919  1.0000
  C   C46       1.0  0.34038  0.75467  0.32816  1.0000
  H   H24       1.0  0.19887  0.53738  0.31027  1.0000
  H   H25       1.0  0.26044  0.57437  0.32486  1.0000
  H   H26       1.0  0.33729  0.58418  0.34875  1.0000
  H   H27       1.0  0.37439  0.55975  0.33388  1.0000
  H   H28       1.0  0.33827  0.80084  0.31021  1.0000
  H   H29       1.0  0.31370  0.73927  0.32481  1.0000
  N   N9        1.0  0.31942  0.63173  0.34252  1.0000
  C   C47       1.0  0.29725  0.64481  0.34290  1.0000
  N   N10       1.0  0.31207  0.68029  0.34254  1.0000
  C   C48       1.0  0.40533  0.84953  0.30826  1.0000
  C   C49       1.0  0.15018  0.55574  0.30828  1.0000
  H   H30       1.0  0.14221  0.53478  0.26948  1.0000
  H   H31       1.0  0.39235  0.85750  0.26940  1.0000
  C   C50       1.0  0.73948  0.37739  0.32763  1.0000
  C   C51       1.0  0.76251  0.36368  0.32459  1.0000
  C   C52       1.0  0.79898  0.38562  0.33291  1.0000
  C   C53       1.0  0.81382  0.42219  0.34461  1.0000
  C   C54       1.0  0.79105  0.43609  0.34694  1.0000
  C   C55       1.0  0.75460  0.41412  0.33810  1.0000
  C   C56       1.0  0.63603  0.39876  0.32453  1.0000
  C   C57       1.0  0.61409  0.41330  0.33283  1.0000
  C   C58       1.0  0.60813  0.18589  0.34473  1.0000
  C   C59       1.0  0.64480  0.20866  0.34708  1.0000
  C   C60       1.0  0.65928  0.24510  0.33824  1.0000
  H   H32       1.0  0.80077  0.46242  0.35581  1.0000
  H   H33       1.0  0.73921  0.42540  0.34134  1.0000
  H   H34       1.0  0.66237  0.41558  0.31755  1.0000
  H   H35       1.0  0.62526  0.44002  0.33235  1.0000
  H   H36       1.0  0.66139  0.19893  0.35605  1.0000
  H   H37       1.0  0.68596  0.26050  0.34152  1.0000
  N   N11       1.0  0.68022  0.36803  0.32377  1.0000
  C   C61       1.0  0.70240  0.35496  0.32345  1.0000
  N   N12       1.0  0.68758  0.31948  0.32384  1.0000
  C   C62       1.0  0.59434  0.15023  0.35792  1.0000
  C   C63       1.0  0.84948  0.44407  0.35780  1.0000
  H   H38       1.0  0.85746  0.46503  0.39658  1.0000
  H   H39       1.0  0.60732  0.14225  0.39674  1.0000
  C   C64       1.0  0.45588  0.54873  0.34220  1.0000
  C   C65       1.0  0.45544  0.52914  0.41692  1.0000
  C   C66       1.0  0.47297  0.50981  0.41478  1.0000
  C   C67       1.0  0.49078  0.50947  0.33652  1.0000
  C   C68       1.0  0.52606  0.45235  0.40099  1.0000
  N   N13       1.0  0.50969  0.47148  0.40068  1.0000
  H   H40       1.0  0.52565  0.43948  0.45798  1.0000
  H   H41       1.0  0.44257  0.52905  0.47384  1.0000
  H   H42       1.0  0.47237  0.49606  0.47033  1.0000
  N   N14       1.0  0.43834  0.56596  0.34672  1.0000
  C   C69       1.0  0.45099  0.90709  0.34225  1.0000
  C   C70       1.0  0.47050  0.92625  0.41706  1.0000
  C   C71       1.0  0.48983  0.96310  0.41490  1.0000
  C   C72       1.0  0.49025  0.98125  0.33656  1.0000
  C   C73       1.0  0.54728  0.07365  0.40112  1.0000
  N   N15       1.0  0.52817  0.03816  0.40079  1.0000
  H   H43       1.0  0.56012  0.08612  0.45815  1.0000
  H   H44       1.0  0.47055  0.91348  0.47402  1.0000
  H   H45       1.0  0.50353  0.97626  0.47051  1.0000
  N   N16       1.0  0.43375  0.87233  0.34679  1.0000
  C   C74       1.0  0.09262  0.54383  0.34226  1.0000
  C   C75       1.0  0.07346  0.54419  0.41704  1.0000
  C   C76       1.0  0.03660  0.52666  0.41489  1.0000
  C   C77       1.0  0.01846  0.50893  0.33654  1.0000
  C   C78       1.0  0.92605  0.47358  0.40104  1.0000
  N   N17       1.0  0.96154  0.48995  0.40074  1.0000
  H   H46       1.0  0.91357  0.47394  0.45807  1.0000
  H   H47       1.0  0.08623  0.55701  0.47402  1.0000
  H   H48       1.0  0.02344  0.52720  0.47049  1.0000
  N   N18       1.0  0.12738  0.56136  0.34680  1.0000
