data_image0
_chemical_formula_structural       C2HC3HNH2NO2C2HC3HNH2NO2C2HC3HNH2NO2C7H2NH2NO2C7H2NH2NO2C7H2NH2NO2CNCNCNC18H12CNCNCNC18H12CNCNCNC18H12CNCNCNC18H12C7H2NH2NO2C7H2NH2NO2C7H2NH2NO2C2HC3HNH2NO2C2HC3HNH2NO2C2HC3HNH2NO2
_chemical_formula_sum              "C156 H96 N36 O24"
_cell_length_a       56.7898
_cell_length_b       56.7898
_cell_length_c       14.9788
_cell_angle_alpha    90
_cell_angle_beta     90
_cell_angle_gamma    120

_space_group_name_H-M_alt    "P 1"
_space_group_IT_number       1

loop_
  _space_group_symop_operation_xyz
  'x, y, z'

loop_
  _atom_site_type_symbol
  _atom_site_label
  _atom_site_symmetry_multiplicity
  _atom_site_fract_x
  _atom_site_fract_y
  _atom_site_fract_z
  _atom_site_occupancy
  C   C1        1.0  0.18217  0.11010  0.28699  1.0000
  C   C2        1.0  0.15343  0.09428  0.28760  1.0000
  H   H1        1.0  0.14255  0.10063  0.25012  1.0000
  C   C3        1.0  0.28411  0.14303  0.33653  1.0000
  C   C4        1.0  0.26899  0.12806  0.26099  1.0000
  C   C5        1.0  0.24026  0.11435  0.26429  1.0000
  H   H2        1.0  0.22950  0.10364  0.20929  1.0000
  N   N1        1.0  0.19419  0.13355  0.23866  1.0000
  H   H3        1.0  0.18345  0.13949  0.20491  1.0000
  H   H4        1.0  0.21377  0.14555  0.23814  1.0000
  N   N2        1.0  0.28278  0.12777  0.18253  1.0000
  O   O1        1.0  0.27729  0.13827  0.11775  1.0000
  O   O2        1.0  0.27687  0.10401  0.16168  1.0000
  C   C6        1.0  0.88217  0.07243  0.28703  1.0000
  C   C7        1.0  0.89798  0.05950  0.28765  1.0000
  H   H5        1.0  0.89163  0.04227  0.25017  1.0000
  C   C8        1.0  0.84924  0.14144  0.33657  1.0000
  C   C9        1.0  0.86421  0.14129  0.26103  1.0000
  C   C10       1.0  0.87792  0.12626  0.26433  1.0000
  H   H6        1.0  0.88862  0.12622  0.20933  1.0000
  N   N3        1.0  0.85872  0.06100  0.23869  1.0000
  H   H7        1.0  0.85278  0.04432  0.20494  1.0000
  H   H8        1.0  0.84672  0.06858  0.23816  1.0000
  N   N4        1.0  0.86449  0.15536  0.18257  1.0000
  O   O3        1.0  0.85400  0.13938  0.11779  1.0000
  O   O4        1.0  0.88825  0.17322  0.16172  1.0000
  C   C11       1.0  0.91983  0.81010  0.28699  1.0000
  C   C12       1.0  0.93276  0.83883  0.28760  1.0000
  H   H9        1.0  0.94999  0.84971  0.25012  1.0000
  C   C13       1.0  0.85082  0.70815  0.33654  1.0000
  C   C14       1.0  0.85097  0.72327  0.26100  1.0000
  C   C15       1.0  0.86599  0.75201  0.26429  1.0000
  H   H10       1.0  0.86604  0.76276  0.20930  1.0000
  N   N5        1.0  0.93126  0.79807  0.23866  1.0000
  H   H11       1.0  0.94795  0.80881  0.20492  1.0000
  H   H12       1.0  0.92368  0.77849  0.23814  1.0000
  N   N6        1.0  0.83690  0.70949  0.18254  1.0000
  O   O5        1.0  0.85288  0.71498  0.11775  1.0000
  O   O6        1.0  0.81904  0.71539  0.16168  1.0000
  C   C16       1.0  0.63492  0.15627  0.34060  1.0000
  C   C17       1.0  0.61380  0.13290  0.29838  1.0000
  C   C18       1.0  0.58687  0.12824  0.30197  1.0000
  C   C19       1.0  0.58072  0.14672  0.34472  1.0000
  C   C20       1.0  0.55465  0.14400  0.33135  1.0000
  C   C21       1.0  0.54882  0.15418  0.25259  1.0000
  C   C22       1.0  0.52558  0.15723  0.25188  1.0000
  H   H13       1.0  0.52219  0.16607  0.19741  1.0000
  H   H14       1.0  0.57193  0.11207  0.26759  1.0000
  N   N7        1.0  0.56534  0.16262  0.17957  1.0000
  H   H15       1.0  0.58182  0.16150  0.17657  1.0000
  H   H16       1.0  0.56099  0.16982  0.12705  1.0000
  N   N8        1.0  0.62028  0.11571  0.24863  1.0000
  O   O7        1.0  0.61456  0.11536  0.16740  1.0000
  O   O8        1.0  0.60784  0.09180  0.27805  1.0000
  C   C23       1.0  0.83601  0.47904  0.34087  1.0000
  C   C24       1.0  0.85935  0.48128  0.29850  1.0000
  C   C25       1.0  0.86403  0.45902  0.30201  1.0000
  C   C26       1.0  0.84556  0.43438  0.34468  1.0000
  C   C27       1.0  0.84825  0.41102  0.33117  1.0000
  C   C28       1.0  0.83800  0.39498  0.25248  1.0000
  C   C29       1.0  0.83486  0.36867  0.25188  1.0000
  H   H17       1.0  0.82605  0.35645  0.19737  1.0000
  H   H18       1.0  0.88018  0.46024  0.26747  1.0000
  N   N9        1.0  0.82959  0.40310  0.17947  1.0000
  H   H19       1.0  0.83079  0.42074  0.17642  1.0000
  H   H20       1.0  0.82234  0.39154  0.12699  1.0000
  N   N10       1.0  0.87653  0.50495  0.24872  1.0000
  O   O9        1.0  0.87685  0.49959  0.16747  1.0000
  O   O10       1.0  0.90046  0.51643  0.27805  1.0000
  C   C30       1.0  0.51327  0.35732  0.34070  1.0000
  C   C31       1.0  0.51102  0.37842  0.29843  1.0000
  C   C32       1.0  0.53329  0.40537  0.30197  1.0000
  C   C33       1.0  0.55792  0.41153  0.34473  1.0000
  C   C34       1.0  0.58126  0.43760  0.33133  1.0000
  C   C35       1.0  0.59728  0.44343  0.25256  1.0000
  C   C36       1.0  0.62355  0.46666  0.25183  1.0000
  H   H21       1.0  0.63579  0.47005  0.19736  1.0000
  H   H22       1.0  0.53205  0.42030  0.26756  1.0000
  N   N11       1.0  0.58919  0.42689  0.17956  1.0000
  H   H23       1.0  0.57159  0.41041  0.17657  1.0000
  H   H24       1.0  0.60073  0.43124  0.12703  1.0000
  N   N12       1.0  0.48735  0.37194  0.24865  1.0000
  O   O11       1.0  0.49272  0.37765  0.16742  1.0000
  O   O12       1.0  0.47587  0.38438  0.27803  1.0000
  C   C37       1.0  0.98075  0.96949  0.33268  1.0000
  N   N13       1.0  0.00840  0.98397  0.33275  1.0000
  C   C38       1.0  0.02278  0.01162  0.33270  1.0000
  N   N14       1.0  0.00830  0.02479  0.33277  1.0000
  C   C39       1.0  0.98064  0.01151  0.33270  1.0000
  N   N15       1.0  0.96747  0.98386  0.33276  1.0000
  C   C40       1.0  0.05178  0.02617  0.33341  1.0000
  C   C41       1.0  0.06684  0.01311  0.31311  1.0000
  C   C42       1.0  0.09546  0.02747  0.31390  1.0000
  C   C43       1.0  0.11017  0.05537  0.33644  1.0000
  C   C44       1.0  0.09523  0.06853  0.35640  1.0000
  C   C45       1.0  0.06662  0.05423  0.35460  1.0000
  C   C46       1.0  0.96630  0.94048  0.33339  1.0000
  C   C47       1.0  0.97952  0.92564  0.35458  1.0000
  C   C48       1.0  0.96520  0.89703  0.35638  1.0000
  C   C49       1.0  0.93711  0.88210  0.33643  1.0000
  C   C50       1.0  0.92392  0.89680  0.31390  1.0000
  C   C51       1.0  0.93818  0.92543  0.31310  1.0000
  C   C52       1.0  0.96609  0.02597  0.33344  1.0000
  C   C53       1.0  0.93803  0.01275  0.35467  1.0000
  C   C54       1.0  0.92374  0.02706  0.35644  1.0000
  C   C55       1.0  0.93689  0.05515  0.33650  1.0000
  C   C56       1.0  0.96479  0.06835  0.31397  1.0000
  C   C57       1.0  0.97915  0.05409  0.31318  1.0000
  H   H25       1.0  0.97547  0.88716  0.37362  1.0000
  H   H26       1.0  0.99974  0.93550  0.37055  1.0000
  H   H27       1.0  0.90376  0.88676  0.29693  1.0000
  H   H28       1.0  0.92774  0.93513  0.29608  1.0000
  H   H29       1.0  0.92767  0.99252  0.37056  1.0000
  H   H30       1.0  0.90359  0.01679  0.37366  1.0000
  H   H31       1.0  0.99929  0.06453  0.29610  1.0000
  H   H32       1.0  0.97490  0.08850  0.29699  1.0000
  H   H33       1.0  0.05676  0.06460  0.37056  1.0000
  H   H34       1.0  0.10511  0.08867  0.37362  1.0000
  H   H35       1.0  0.10551  0.01736  0.29694  1.0000
  H   H36       1.0  0.05714  0.99297  0.29609  1.0000
  C   C58       1.0  0.44251  0.20094  0.33188  1.0000
  N   N16       1.0  0.41486  0.18765  0.33528  1.0000
  C   C59       1.0  0.40042  0.20099  0.33436  1.0000
  N   N17       1.0  0.41471  0.22872  0.32952  1.0000
  C   C60       1.0  0.44229  0.24295  0.32446  1.0000
  N   N18       1.0  0.45525  0.22841  0.32623  1.0000
  C   C61       1.0  0.37138  0.18644  0.33656  1.0000
  C   C62       1.0  0.35635  0.15776  0.32726  1.0000
  C   C63       1.0  0.32772  0.14349  0.32711  1.0000
  C   C64       1.0  0.31307  0.15739  0.33697  1.0000
  C   C65       1.0  0.32783  0.18592  0.34753  1.0000
  C   C66       1.0  0.35645  0.20017  0.34676  1.0000
  C   C67       1.0  0.45838  0.18781  0.33323  1.0000
  C   C68       1.0  0.44648  0.15912  0.33449  1.0000
  C   C69       1.0  0.46269  0.14671  0.33375  1.0000
  C   C70       1.0  0.49134  0.16271  0.33108  1.0000
  C   C71       1.0  0.50334  0.19128  0.33179  1.0000
  C   C72       1.0  0.48719  0.20353  0.33280  1.0000
  C   C73       1.0  0.45818  0.27178  0.31956  1.0000
  C   C74       1.0  0.48465  0.28415  0.28244  1.0000
  C   C75       1.0  0.50210  0.31236  0.28639  1.0000
  C   C76       1.0  0.49380  0.32931  0.32819  1.0000
  C   C77       1.0  0.46692  0.31736  0.36118  1.0000
  C   C78       1.0  0.44928  0.28896  0.35648  1.0000
  H   H37       1.0  0.45348  0.12594  0.33342  1.0000
  H   H38       1.0  0.42579  0.14690  0.33498  1.0000
  H   H39       1.0  0.52406  0.20350  0.33110  1.0000
  H   H40       1.0  0.49706  0.22432  0.33259  1.0000
  H   H41       1.0  0.49193  0.27267  0.25388  1.0000
  H   H42       1.0  0.52136  0.32032  0.26108  1.0000
  H   H43       1.0  0.43049  0.28081  0.38541  1.0000
  H   H44       1.0  0.46049  0.32907  0.39314  1.0000
  H   H45       1.0  0.36623  0.22084  0.35399  1.0000
  H   H46       1.0  0.31783  0.19663  0.35438  1.0000
  H   H47       1.0  0.31764  0.12278  0.32024  1.0000
  H   H48       1.0  0.36605  0.14682  0.31929  1.0000
  C   C79       1.0  0.79128  0.24189  0.33191  1.0000
  N   N19       1.0  0.80458  0.22754  0.33533  1.0000
  C   C80       1.0  0.79125  0.19976  0.33439  1.0000
  N   N20       1.0  0.76352  0.18630  0.32950  1.0000
  C   C81       1.0  0.74928  0.19965  0.32441  1.0000
  N   N21       1.0  0.76382  0.22715  0.32622  1.0000
  C   C82       1.0  0.80580  0.18527  0.33658  1.0000
  C   C83       1.0  0.83449  0.19893  0.32728  1.0000
  C   C84       1.0  0.84877  0.18459  0.32715  1.0000
  C   C85       1.0  0.83488  0.15604  0.33700  1.0000
  C   C86       1.0  0.80634  0.14226  0.34753  1.0000
  C   C87       1.0  0.79208  0.15662  0.34676  1.0000
  C   C88       1.0  0.80439  0.27089  0.33328  1.0000
  C   C89       1.0  0.83308  0.28769  0.33460  1.0000
  C   C90       1.0  0.84547  0.31633  0.33384  1.0000
  C   C91       1.0  0.82944  0.32894  0.33109  1.0000
  C   C92       1.0  0.80088  0.31236  0.33174  1.0000
  C   C93       1.0  0.78865  0.28396  0.33277  1.0000
  C   C94       1.0  0.72045  0.18669  0.31949  1.0000
  C   C95       1.0  0.70808  0.20080  0.28230  1.0000
  C   C96       1.0  0.67987  0.19003  0.28617  1.0000
  C   C97       1.0  0.66292  0.16479  0.32806  1.0000
  C   C98       1.0  0.67487  0.14988  0.36124  1.0000
  C   C99       1.0  0.70327  0.16063  0.35647  1.0000
  H   H49       1.0  0.86623  0.32789  0.33347  1.0000
  H   H50       1.0  0.84531  0.27924  0.33507  1.0000
  H   H51       1.0  0.78864  0.32084  0.33100  1.0000
  H   H52       1.0  0.76786  0.27303  0.33254  1.0000
  H   H53       1.0  0.71956  0.21955  0.25369  1.0000
  H   H54       1.0  0.67191  0.20132  0.26084  1.0000
  H   H55       1.0  0.71142  0.15000  0.38549  1.0000
  H   H56       1.0  0.66315  0.13174  0.39316  1.0000
  H   H57       1.0  0.77141  0.14572  0.35400  1.0000
  H   H58       1.0  0.79564  0.12155  0.35439  1.0000
  H   H59       1.0  0.86948  0.19522  0.32031  1.0000
  H   H60       1.0  0.84542  0.21958  0.31935  1.0000
  C   C100      1.0  0.75035  0.54975  0.33185  1.0000
  N   N22       1.0  0.76470  0.57739  0.33525  1.0000
  C   C101      1.0  0.79248  0.59185  0.33437  1.0000
  N   N23       1.0  0.80593  0.57756  0.32957  1.0000
  C   C102      1.0  0.79258  0.54998  0.32451  1.0000
  N   N24       1.0  0.76508  0.53702  0.32624  1.0000
  C   C103      1.0  0.80697  0.62089  0.33656  1.0000
  C   C104      1.0  0.79332  0.63592  0.32725  1.0000
  C   C105      1.0  0.80766  0.66454  0.32710  1.0000
  C   C106      1.0  0.83622  0.67920  0.33698  1.0000
  C   C107      1.0  0.84998  0.66444  0.34755  1.0000
  C   C108      1.0  0.83562  0.63582  0.34678  1.0000
  C   C109      1.0  0.72135  0.53388  0.33317  1.0000
  C   C110      1.0  0.70455  0.54578  0.33446  1.0000
  C   C111      1.0  0.67592  0.52956  0.33371  1.0000
  C   C112      1.0  0.66329  0.50092  0.33100  1.0000
  C   C113      1.0  0.67985  0.48891  0.33168  1.0000
  C   C114      1.0  0.70825  0.50507  0.33269  1.0000
  C   C115      1.0  0.80553  0.53410  0.31965  1.0000
  C   C116      1.0  0.79143  0.50762  0.28254  1.0000
  C   C117      1.0  0.80220  0.49018  0.28655  1.0000
  C   C118      1.0  0.82746  0.49850  0.32834  1.0000
  C   C119      1.0  0.84239  0.52538  0.36130  1.0000
  C   C120      1.0  0.83160  0.54300  0.35663  1.0000
  H   H61       1.0  0.66437  0.53877  0.33342  1.0000
  H   H62       1.0  0.71302  0.56646  0.33499  1.0000
  H   H63       1.0  0.67136  0.46819  0.33096  1.0000
  H   H64       1.0  0.71918  0.49520  0.33246  1.0000
  H   H65       1.0  0.77267  0.50033  0.25402  1.0000
  H   H66       1.0  0.79092  0.47092  0.26126  1.0000
  H   H67       1.0  0.84225  0.56181  0.38543  1.0000
  H   H68       1.0  0.86053  0.53183  0.39321  1.0000
  H   H69       1.0  0.84652  0.62604  0.35402  1.0000
  H   H70       1.0  0.87069  0.67444  0.35441  1.0000
  H   H71       1.0  0.79703  0.67462  0.32023  1.0000
  H   H72       1.0  0.77267  0.62621  0.31928  1.0000
  C   C121      1.0  0.13923  0.07002  0.33782  1.0000
  C   C122      1.0  0.15446  0.06129  0.38922  1.0000
  C   C123      1.0  0.18320  0.07678  0.38806  1.0000
  C   C124      1.0  0.19724  0.10105  0.33817  1.0000
  C   C125      1.0  0.22621  0.11540  0.34069  1.0000
  C   C126      1.0  0.24127  0.13044  0.41669  1.0000
  C   C127      1.0  0.27002  0.14399  0.41298  1.0000
  H   H73       1.0  0.28097  0.15480  0.46758  1.0000
  H   H74       1.0  0.19398  0.07028  0.42545  1.0000
  N   N25       1.0  0.22921  0.13270  0.49226  1.0000
  H   H75       1.0  0.20961  0.12442  0.49742  1.0000
  H   H76       1.0  0.23994  0.14327  0.54319  1.0000
  N   N26       1.0  0.14087  0.03782  0.44359  1.0000
  O   O13       1.0  0.14699  0.02014  0.42229  1.0000
  O   O14       1.0  0.14627  0.04349  0.52482  1.0000
  C   C128      1.0  0.92224  0.06957  0.33788  1.0000
  C   C129      1.0  0.93097  0.09353  0.38926  1.0000
  C   C130      1.0  0.91548  0.10678  0.38811  1.0000
  C   C131      1.0  0.89121  0.09655  0.33821  1.0000
  C   C132      1.0  0.87687  0.11117  0.34073  1.0000
  C   C133      1.0  0.86183  0.11118  0.41672  1.0000
  C   C134      1.0  0.84827  0.12638  0.41302  1.0000
  H   H77       1.0  0.83746  0.12653  0.46762  1.0000
  H   H78       1.0  0.92199  0.12406  0.42548  1.0000
  N   N27       1.0  0.85956  0.09687  0.49229  1.0000
  H   H79       1.0  0.86784  0.08554  0.49745  1.0000
  H   H80       1.0  0.84899  0.09703  0.54322  1.0000
  N   N28       1.0  0.95445  0.10341  0.44364  1.0000
  O   O15       1.0  0.97213  0.12721  0.42234  1.0000
  O   O16       1.0  0.94877  0.10314  0.52487  1.0000
  C   C135      1.0  0.92269  0.85303  0.33782  1.0000
  C   C136      1.0  0.89873  0.83780  0.38921  1.0000
  C   C137      1.0  0.88548  0.80906  0.38806  1.0000
  C   C138      1.0  0.89571  0.79502  0.33817  1.0000
  C   C139      1.0  0.88109  0.76606  0.34070  1.0000
  C   C140      1.0  0.88107  0.75100  0.41670  1.0000
  C   C141      1.0  0.86587  0.72225  0.41300  1.0000
  H   H81       1.0  0.86572  0.71129  0.46759  1.0000
  H   H82       1.0  0.86821  0.79829  0.42545  1.0000
  N   N29       1.0  0.89538  0.76305  0.49226  1.0000
  H   H83       1.0  0.90671  0.78265  0.49742  1.0000
  H   H84       1.0  0.89522  0.75232  0.54320  1.0000
  N   N30       1.0  0.88885  0.85140  0.44359  1.0000
  O   O17       1.0  0.86505  0.84528  0.42229  1.0000
  O   O18       1.0  0.88913  0.84600  0.52482  1.0000
  C   C142      1.0  0.60172  0.16981  0.38946  1.0000
  C   C143      1.0  0.62835  0.17379  0.38781  1.0000
  H   H85       1.0  0.64369  0.19081  0.41770  1.0000
  C   C144      1.0  0.50871  0.15142  0.32763  1.0000
  C   C145      1.0  0.51398  0.14030  0.40456  1.0000
  C   C146      1.0  0.53662  0.13621  0.40476  1.0000
  H   H86       1.0  0.54137  0.12988  0.46260  1.0000
  N   N31       1.0  0.59778  0.18898  0.43060  1.0000
  H   H87       1.0  0.61267  0.20474  0.45958  1.0000
  H   H88       1.0  0.58017  0.18785  0.43198  1.0000
  N   N32       1.0  0.49790  0.13554  0.48198  1.0000
  O   O19       1.0  0.51179  0.15014  0.54615  1.0000
  O   O20       1.0  0.48668  0.11104  0.50536  1.0000
  C   C147      1.0  0.82248  0.43228  0.38952  1.0000
  C   C148      1.0  0.81850  0.45493  0.38797  1.0000
  H   H89       1.0  0.80149  0.45325  0.41799  1.0000
  C   C149      1.0  0.84070  0.35760  0.32754  1.0000
  C   C150      1.0  0.85192  0.37403  0.40439  1.0000
  C   C151      1.0  0.85602  0.40076  0.40459  1.0000
  H   H90       1.0  0.86244  0.41186  0.46238  1.0000
  N   N33       1.0  0.80331  0.40916  0.43060  1.0000
  H   H91       1.0  0.78755  0.40829  0.45963  1.0000
  H   H92       1.0  0.80442  0.39267  0.43190  1.0000
  N   N34       1.0  0.85674  0.36273  0.48176  1.0000
  O   O21       1.0  0.84220  0.36206  0.54608  1.0000
  O   O22       1.0  0.88126  0.37600  0.50489  1.0000
  C   C152      1.0  0.56001  0.39053  0.38952  1.0000
  C   C153      1.0  0.53736  0.36391  0.38790  1.0000
  H   H93       1.0  0.53905  0.34858  0.41782  1.0000
  C   C154      1.0  0.63462  0.48354  0.32757  1.0000
  C   C155      1.0  0.61822  0.47827  0.40451  1.0000
  C   C156      1.0  0.59150  0.45563  0.40472  1.0000
  H   H94       1.0  0.58042  0.45089  0.46257  1.0000
  N   N35       1.0  0.58312  0.39449  0.43065  1.0000
  H   H95       1.0  0.58399  0.37960  0.45966  1.0000
  H   H96       1.0  0.59961  0.41210  0.43200  1.0000
  N   N36       1.0  0.62955  0.49436  0.48191  1.0000
  O   O23       1.0  0.63026  0.48047  0.54609  1.0000
  O   O24       1.0  0.61628  0.50558  0.50528  1.0000
