data_image0
_chemical_formula_structural       C3HNC3HNO2NCHC6H3C3H3C2HC2HC3HNO2NC3HNO2NC2NO2NC3HNC3HNO2NCHC6H3C3H3C2HC2HC3HNO2NC3HNO2NC2NO2N2O2C2NO2NC4H2CH2CHNO2C2NO2NC4H2CH2CHC2HNOCHC6H2C2H2NO2NCNO2NHNOCHC6H2C2H2NO2NCNO2NC3HNO2NC3ONC2NO2NHCHC6H3C3H3C3HC3HNO2NCHC3HNO2NC3ONC2NO2NHCHC6H3C3H3C3HC3HNO2NCH
_chemical_formula_sum              "C144 H72 N48 O48"
_cell_length_a       45.6713
_cell_length_b       45.6713
_cell_length_c       14.5467
_cell_angle_alpha    90
_cell_angle_beta     90
_cell_angle_gamma    120

_space_group_name_H-M_alt    "P 1"
_space_group_IT_number       1

loop_
  _space_group_symop_operation_xyz
  'x, y, z'

loop_
  _atom_site_type_symbol
  _atom_site_label
  _atom_site_symmetry_multiplicity
  _atom_site_fract_x
  _atom_site_fract_y
  _atom_site_fract_z
  _atom_site_occupancy
  C   C1        1.0  0.29328  0.24916  0.36409  1.0000
  C   C2        1.0  0.30901  0.28495  0.35797  1.0000
  C   C3        1.0  0.28913  0.30075  0.35956  1.0000
  H   H1        1.0  0.30112  0.32649  0.35456  1.0000
  N   N1        1.0  0.31311  0.23460  0.36285  1.0000
  C   C4        1.0  0.28980  0.05191  0.36409  1.0000
  C   C5        1.0  0.25400  0.03185  0.35797  1.0000
  C   C6        1.0  0.23820  0.49617  0.35956  1.0000
  H   H2        1.0  0.21247  0.48242  0.35456  1.0000
  N   N2        1.0  0.23219  0.04535  0.34908  1.0000
  O   O1        1.0  0.23444  0.06340  0.41687  1.0000
  O   O2        1.0  0.23811  0.06247  0.27679  1.0000
  N   N3        1.0  0.30436  0.08631  0.36284  1.0000
  C   C7        1.0  0.04279  0.24982  0.35956  1.0000
  H   H3        1.0  0.05654  0.23784  0.35456  1.0000
  C   C8        1.0  0.21493  0.33851  0.36653  1.0000
  C   C9        1.0  0.22452  0.37326  0.36657  1.0000
  C   C10       1.0  0.20045  0.38422  0.36653  1.0000
  C   C11       1.0  0.16570  0.35906  0.36657  1.0000
  C   C12       1.0  0.15474  0.32403  0.36653  1.0000
  C   C13       1.0  0.17990  0.31443  0.36657  1.0000
  H   H4        1.0  0.14790  0.36645  0.36630  1.0000
  H   H5        1.0  0.17251  0.28925  0.36630  1.0000
  H   H6        1.0  0.24971  0.39105  0.36630  1.0000
  C   C14       1.0  0.20992  0.41891  0.36586  1.0000
  C   C15       1.0  0.12005  0.29880  0.36586  1.0000
  C   C16       1.0  0.24015  0.32904  0.36586  1.0000
  H   H7        1.0  0.26489  0.34785  0.36426  1.0000
  H   H8        1.0  0.11412  0.27406  0.36427  1.0000
  H   H9        1.0  0.19110  0.42483  0.36426  1.0000
  C   C17       1.0  0.33182  0.19266  0.36455  1.0000
  C   C18       1.0  0.32222  0.15791  0.36451  1.0000
  H   H10       1.0  0.29704  0.14011  0.36478  1.0000
  C   C19       1.0  0.33683  0.11226  0.36522  1.0000
  C   C20       1.0  0.30659  0.20213  0.36523  1.0000
  H   H11       1.0  0.28186  0.18331  0.36681  1.0000
  C   C21       1.0  0.25347  0.28201  0.36699  1.0000
  C   C22       1.0  0.23774  0.24621  0.37312  1.0000
  C   C23       1.0  0.25762  0.23041  0.37153  1.0000
  H   H12       1.0  0.24563  0.20467  0.37652  1.0000
  N   N4        1.0  0.20243  0.22440  0.38198  1.0000
  O   O3        1.0  0.18662  0.22665  0.31419  1.0000
  O   O4        1.0  0.19122  0.23032  0.45426  1.0000
  N   N5        1.0  0.23363  0.29657  0.36824  1.0000
  C   C24       1.0  0.25694  0.47925  0.36699  1.0000
  C   C25       1.0  0.29274  0.49932  0.37313  1.0000
  C   C26       1.0  0.30855  0.03500  0.37153  1.0000
  H   H13       1.0  0.33428  0.04874  0.37652  1.0000
  N   N6        1.0  0.31455  0.48582  0.38199  1.0000
  O   O5        1.0  0.31231  0.46776  0.31420  1.0000
  O   O6        1.0  0.30864  0.46869  0.45427  1.0000
  N   N7        1.0  0.24239  0.44486  0.36824  1.0000
  C   C27       1.0  0.05971  0.28549  0.36699  1.0000
  C   C28       1.0  0.03964  0.30122  0.37312  1.0000
  N   N8        1.0  0.05314  0.33653  0.38198  1.0000
  O   O7        1.0  0.07119  0.35233  0.31419  1.0000
  O   O8        1.0  0.07026  0.34774  0.45426  1.0000
  N   N9        1.0  0.09410  0.30532  0.36824  1.0000
  C   C29       1.0  0.29328  0.74916  0.36409  1.0000
  C   C30       1.0  0.30901  0.78495  0.35797  1.0000
  C   C31       1.0  0.28913  0.80076  0.35956  1.0000
  H   H14       1.0  0.30112  0.82649  0.35456  1.0000
  N   N10       1.0  0.31311  0.73460  0.36285  1.0000
  C   C32       1.0  0.28980  0.55192  0.36409  1.0000
  C   C33       1.0  0.25400  0.53185  0.35797  1.0000
  C   C34       1.0  0.23820  0.99617  0.35956  1.0000
  H   H15       1.0  0.21246  0.98242  0.35456  1.0000
  N   N11       1.0  0.23219  0.54535  0.34908  1.0000
  O   O9        1.0  0.23444  0.56340  0.41687  1.0000
  O   O10       1.0  0.23811  0.56247  0.27679  1.0000
  N   N12       1.0  0.30435  0.58630  0.36284  1.0000
  C   C35       1.0  0.04279  0.74982  0.35956  1.0000
  H   H16       1.0  0.05654  0.73784  0.35456  1.0000
  C   C36       1.0  0.21493  0.83850  0.36653  1.0000
  C   C37       1.0  0.22452  0.87326  0.36657  1.0000
  C   C38       1.0  0.20045  0.88422  0.36653  1.0000
  C   C39       1.0  0.16570  0.85906  0.36657  1.0000
  C   C40       1.0  0.15474  0.82402  0.36653  1.0000
  C   C41       1.0  0.17990  0.81443  0.36657  1.0000
  H   H17       1.0  0.14790  0.86645  0.36630  1.0000
  H   H18       1.0  0.17251  0.78925  0.36630  1.0000
  H   H19       1.0  0.24971  0.89105  0.36630  1.0000
  C   C42       1.0  0.20992  0.91891  0.36586  1.0000
  C   C43       1.0  0.12004  0.79880  0.36586  1.0000
  C   C44       1.0  0.24016  0.82904  0.36586  1.0000
  H   H20       1.0  0.26489  0.84785  0.36426  1.0000
  H   H21       1.0  0.11412  0.77407  0.36427  1.0000
  H   H22       1.0  0.19110  0.92483  0.36426  1.0000
  C   C45       1.0  0.33181  0.69266  0.36455  1.0000
  C   C46       1.0  0.32222  0.65791  0.36451  1.0000
  H   H23       1.0  0.29704  0.64011  0.36478  1.0000
  C   C47       1.0  0.33683  0.61225  0.36522  1.0000
  C   C48       1.0  0.30659  0.70213  0.36523  1.0000
  H   H24       1.0  0.28185  0.68331  0.36681  1.0000
  C   C49       1.0  0.25347  0.78201  0.36699  1.0000
  C   C50       1.0  0.23774  0.74621  0.37312  1.0000
  C   C51       1.0  0.25762  0.73041  0.37153  1.0000
  H   H25       1.0  0.24563  0.70468  0.37652  1.0000
  N   N13       1.0  0.20243  0.72440  0.38198  1.0000
  O   O11       1.0  0.18662  0.72665  0.31419  1.0000
  O   O12       1.0  0.19121  0.73032  0.45426  1.0000
  N   N14       1.0  0.23363  0.79656  0.36824  1.0000
  C   C52       1.0  0.25695  0.97925  0.36699  1.0000
  C   C53       1.0  0.29274  0.99931  0.37313  1.0000
  C   C54       1.0  0.30855  0.53500  0.37153  1.0000
  H   H26       1.0  0.33428  0.54875  0.37652  1.0000
  N   N15       1.0  0.31455  0.98581  0.38199  1.0000
  O   O13       1.0  0.31231  0.96777  0.31420  1.0000
  O   O14       1.0  0.30864  0.96869  0.45427  1.0000
  N   N16       1.0  0.24239  0.94486  0.36824  1.0000
  C   C55       1.0  0.05970  0.78549  0.36699  1.0000
  C   C56       1.0  0.03964  0.80122  0.37312  1.0000
  N   N17       1.0  0.05314  0.83653  0.38198  1.0000
  O   O15       1.0  0.07119  0.85233  0.31419  1.0000
  O   O16       1.0  0.07026  0.84774  0.45426  1.0000
  N   N18       1.0  0.09409  0.80532  0.36824  1.0000
  N   N19       1.0  0.34432  0.30676  0.34909  1.0000
  O   O17       1.0  0.36013  0.30452  0.41687  1.0000
  O   O18       1.0  0.35552  0.30085  0.27680  1.0000
  C   C57       1.0  0.48704  0.24568  0.36409  1.0000
  C   C58       1.0  0.50711  0.22995  0.35797  1.0000
  N   N20       1.0  0.49361  0.19464  0.34909  1.0000
  O   O19       1.0  0.47555  0.17883  0.41687  1.0000
  O   O20       1.0  0.47649  0.18343  0.27680  1.0000
  N   N21       1.0  0.45265  0.22584  0.36284  1.0000
  C   C59       1.0  0.34629  0.14695  0.36455  1.0000
  C   C60       1.0  0.38105  0.17211  0.36452  1.0000
  C   C61       1.0  0.39201  0.20714  0.36454  1.0000
  C   C62       1.0  0.36685  0.21673  0.36452  1.0000
  H   H27       1.0  0.39884  0.16472  0.36478  1.0000
  H   H28       1.0  0.37424  0.24192  0.36477  1.0000
  C   C63       1.0  0.42670  0.23236  0.36522  1.0000
  H   H29       1.0  0.43262  0.25710  0.36681  1.0000
  H   H30       1.0  0.35564  0.10633  0.36682  1.0000
  C   C64       1.0  0.50396  0.28134  0.37153  1.0000
  H   H31       1.0  0.49021  0.29333  0.37652  1.0000
  N   N22       1.0  0.34432  0.80676  0.34909  1.0000
  O   O21       1.0  0.36013  0.80452  0.41687  1.0000
  O   O22       1.0  0.35552  0.80085  0.27680  1.0000
  C   C65       1.0  0.48704  0.74568  0.36409  1.0000
  C   C66       1.0  0.50711  0.72994  0.35797  1.0000
  N   N23       1.0  0.49361  0.69464  0.34909  1.0000
  O   O23       1.0  0.47555  0.67883  0.41687  1.0000
  O   O24       1.0  0.47649  0.68343  0.27680  1.0000
  N   N24       1.0  0.45265  0.72584  0.36284  1.0000
  C   C67       1.0  0.34629  0.64695  0.36455  1.0000
  C   C68       1.0  0.38105  0.67211  0.36452  1.0000
  C   C69       1.0  0.39201  0.70714  0.36454  1.0000
  C   C70       1.0  0.36685  0.71673  0.36452  1.0000
  H   H32       1.0  0.39885  0.66472  0.36478  1.0000
  H   H33       1.0  0.37424  0.74192  0.36477  1.0000
  C   C71       1.0  0.42670  0.73236  0.36522  1.0000
  H   H34       1.0  0.43262  0.75710  0.36681  1.0000
  H   H35       1.0  0.35564  0.60633  0.36682  1.0000
  C   C72       1.0  0.50396  0.78134  0.37153  1.0000
  H   H36       1.0  0.49021  0.79332  0.37652  1.0000
  C   C73       1.0  0.53964  0.30122  0.37312  1.0000
  C   C74       1.0  0.53964  0.80122  0.37312  1.0000
  H   H37       1.0  0.71247  0.48242  0.35456  1.0000
  N   N25       1.0  0.73219  0.04535  0.34908  1.0000
  O   O25       1.0  0.73444  0.06340  0.41687  1.0000
  C   C75       1.0  0.54279  0.24982  0.35956  1.0000
  H   H38       1.0  0.55654  0.23784  0.35456  1.0000
  C   C76       1.0  0.71493  0.33851  0.36653  1.0000
  C   C77       1.0  0.72452  0.37326  0.36657  1.0000
  C   C78       1.0  0.70045  0.38422  0.36653  1.0000
  C   C79       1.0  0.66570  0.35906  0.36657  1.0000
  C   C80       1.0  0.65474  0.32403  0.36653  1.0000
  C   C81       1.0  0.67990  0.31443  0.36657  1.0000
  H   H39       1.0  0.64790  0.36645  0.36630  1.0000
  H   H40       1.0  0.67251  0.28925  0.36630  1.0000
  C   C82       1.0  0.70992  0.41891  0.36586  1.0000
  C   C83       1.0  0.62005  0.29880  0.36586  1.0000
  H   H41       1.0  0.61412  0.27406  0.36427  1.0000
  H   H42       1.0  0.69110  0.42483  0.36426  1.0000
  N   N26       1.0  0.70243  0.22440  0.38198  1.0000
  O   O26       1.0  0.68662  0.22665  0.31419  1.0000
  O   O27       1.0  0.69122  0.23032  0.45426  1.0000
  N   N27       1.0  0.73363  0.29657  0.36824  1.0000
  C   C84       1.0  0.55971  0.28549  0.36699  1.0000
  N   N28       1.0  0.55314  0.33653  0.38198  1.0000
  O   O28       1.0  0.57119  0.35233  0.31419  1.0000
  O   O29       1.0  0.57026  0.34774  0.45426  1.0000
  N   N29       1.0  0.59410  0.30532  0.36824  1.0000
  H   H43       1.0  0.71247  0.98242  0.35456  1.0000
  N   N30       1.0  0.73219  0.54535  0.34908  1.0000
  O   O30       1.0  0.73444  0.56340  0.41687  1.0000
  C   C85       1.0  0.54279  0.74982  0.35956  1.0000
  H   H44       1.0  0.55654  0.73784  0.35456  1.0000
  C   C86       1.0  0.71493  0.83850  0.36653  1.0000
  C   C87       1.0  0.72452  0.87326  0.36657  1.0000
  C   C88       1.0  0.70045  0.88422  0.36653  1.0000
  C   C89       1.0  0.66570  0.85906  0.36657  1.0000
  C   C90       1.0  0.65474  0.82402  0.36653  1.0000
  C   C91       1.0  0.67990  0.81443  0.36657  1.0000
  H   H45       1.0  0.64790  0.86645  0.36630  1.0000
  H   H46       1.0  0.67251  0.78925  0.36630  1.0000
  C   C92       1.0  0.70992  0.91891  0.36586  1.0000
  C   C93       1.0  0.62005  0.79880  0.36586  1.0000
  H   H47       1.0  0.61412  0.77407  0.36427  1.0000
  H   H48       1.0  0.69110  0.92483  0.36426  1.0000
  N   N31       1.0  0.70243  0.72440  0.38198  1.0000
  O   O31       1.0  0.68662  0.72665  0.31419  1.0000
  O   O32       1.0  0.69122  0.73032  0.45426  1.0000
  N   N32       1.0  0.73363  0.79656  0.36824  1.0000
  C   C94       1.0  0.55971  0.78549  0.36699  1.0000
  N   N33       1.0  0.55314  0.83653  0.38198  1.0000
  O   O33       1.0  0.57119  0.85233  0.31419  1.0000
  O   O34       1.0  0.57026  0.84774  0.45426  1.0000
  N   N34       1.0  0.59410  0.80532  0.36824  1.0000
  C   C95       1.0  0.79328  0.24916  0.36409  1.0000
  C   C96       1.0  0.80901  0.28495  0.35797  1.0000
  C   C97       1.0  0.78913  0.30075  0.35956  1.0000
  H   H49       1.0  0.80112  0.32649  0.35456  1.0000
  N   N35       1.0  0.84432  0.30676  0.34909  1.0000
  O   O35       1.0  0.86013  0.30452  0.41687  1.0000
  O   O36       1.0  0.85552  0.30085  0.27680  1.0000
  N   N36       1.0  0.81311  0.23460  0.36285  1.0000
  C   C98       1.0  0.78980  0.05191  0.36409  1.0000
  C   C99       1.0  0.75400  0.03185  0.35797  1.0000
  C   C100      1.0  0.73820  0.49617  0.35956  1.0000
  O   O37       1.0  0.73811  0.06247  0.27679  1.0000
  N   N37       1.0  0.80436  0.08631  0.36284  1.0000
  C   C101      1.0  0.98704  0.24568  0.36409  1.0000
  C   C102      1.0  0.00711  0.22995  0.35797  1.0000
  N   N38       1.0  0.99360  0.19464  0.34909  1.0000
  O   O38       1.0  0.97555  0.17883  0.41687  1.0000
  O   O39       1.0  0.97649  0.18343  0.27680  1.0000
  N   N39       1.0  0.95265  0.22584  0.36284  1.0000
  H   H50       1.0  0.74971  0.39105  0.36630  1.0000
  C   C103      1.0  0.74016  0.32904  0.36586  1.0000
  H   H51       1.0  0.76489  0.34785  0.36426  1.0000
  C   C104      1.0  0.83182  0.19266  0.36455  1.0000
  C   C105      1.0  0.82223  0.15791  0.36451  1.0000
  C   C106      1.0  0.84630  0.14695  0.36455  1.0000
  C   C107      1.0  0.88105  0.17211  0.36452  1.0000
  C   C108      1.0  0.89201  0.20714  0.36454  1.0000
  C   C109      1.0  0.86685  0.21673  0.36452  1.0000
  H   H52       1.0  0.89885  0.16472  0.36478  1.0000
  H   H53       1.0  0.87424  0.24192  0.36477  1.0000
  H   H54       1.0  0.79704  0.14011  0.36478  1.0000
  C   C110      1.0  0.83683  0.11226  0.36522  1.0000
  C   C111      1.0  0.92670  0.23236  0.36522  1.0000
  C   C112      1.0  0.80659  0.20213  0.36523  1.0000
  H   H55       1.0  0.78186  0.18331  0.36681  1.0000
  H   H56       1.0  0.93262  0.25710  0.36681  1.0000
  H   H57       1.0  0.85564  0.10633  0.36682  1.0000
  C   C113      1.0  0.75347  0.28201  0.36699  1.0000
  C   C114      1.0  0.73774  0.24621  0.37312  1.0000
  C   C115      1.0  0.75762  0.23041  0.37153  1.0000
  H   H58       1.0  0.74563  0.20467  0.37652  1.0000
  C   C116      1.0  0.75695  0.47925  0.36699  1.0000
  C   C117      1.0  0.79274  0.49932  0.37313  1.0000
  C   C118      1.0  0.80855  0.03500  0.37153  1.0000
  H   H59       1.0  0.83428  0.04874  0.37652  1.0000
  N   N40       1.0  0.81455  0.48582  0.38199  1.0000
  O   O40       1.0  0.81231  0.46776  0.31420  1.0000
  O   O41       1.0  0.80864  0.46869  0.45427  1.0000
  N   N41       1.0  0.74239  0.44486  0.36824  1.0000
  C   C119      1.0  0.00396  0.28134  0.37153  1.0000
  H   H60       1.0  0.99021  0.29333  0.37652  1.0000
  C   C120      1.0  0.79328  0.74916  0.36409  1.0000
  C   C121      1.0  0.80901  0.78495  0.35797  1.0000
  C   C122      1.0  0.78913  0.80076  0.35956  1.0000
  H   H61       1.0  0.80112  0.82649  0.35456  1.0000
  N   N42       1.0  0.84432  0.80676  0.34909  1.0000
  O   O42       1.0  0.86013  0.80452  0.41687  1.0000
  O   O43       1.0  0.85552  0.80085  0.27680  1.0000
  N   N43       1.0  0.81311  0.73460  0.36285  1.0000
  C   C123      1.0  0.78980  0.55192  0.36409  1.0000
  C   C124      1.0  0.75400  0.53185  0.35797  1.0000
  C   C125      1.0  0.73820  0.99617  0.35956  1.0000
  O   O44       1.0  0.73811  0.56247  0.27679  1.0000
  N   N44       1.0  0.80435  0.58630  0.36284  1.0000
  C   C126      1.0  0.98704  0.74568  0.36409  1.0000
  C   C127      1.0  0.00711  0.72994  0.35797  1.0000
  N   N45       1.0  0.99360  0.69464  0.34909  1.0000
  O   O45       1.0  0.97555  0.67883  0.41687  1.0000
  O   O46       1.0  0.97649  0.68343  0.27680  1.0000
  N   N46       1.0  0.95265  0.72584  0.36284  1.0000
  H   H62       1.0  0.74971  0.89105  0.36630  1.0000
  C   C128      1.0  0.74016  0.82904  0.36586  1.0000
  H   H63       1.0  0.76489  0.84785  0.36426  1.0000
  C   C129      1.0  0.83181  0.69266  0.36455  1.0000
  C   C130      1.0  0.82222  0.65791  0.36451  1.0000
  C   C131      1.0  0.84630  0.64695  0.36455  1.0000
  C   C132      1.0  0.88105  0.67211  0.36452  1.0000
  C   C133      1.0  0.89201  0.70714  0.36454  1.0000
  C   C134      1.0  0.86685  0.71673  0.36452  1.0000
  H   H64       1.0  0.89884  0.66472  0.36478  1.0000
  H   H65       1.0  0.87424  0.74192  0.36477  1.0000
  H   H66       1.0  0.79704  0.64011  0.36478  1.0000
  C   C135      1.0  0.83683  0.61225  0.36522  1.0000
  C   C136      1.0  0.92670  0.73236  0.36522  1.0000
  C   C137      1.0  0.80659  0.70213  0.36523  1.0000
  H   H67       1.0  0.78185  0.68331  0.36681  1.0000
  H   H68       1.0  0.93262  0.75710  0.36681  1.0000
  H   H69       1.0  0.85564  0.60633  0.36682  1.0000
  C   C138      1.0  0.75347  0.78201  0.36699  1.0000
  C   C139      1.0  0.73773  0.74621  0.37312  1.0000
  C   C140      1.0  0.75761  0.73041  0.37153  1.0000
  H   H70       1.0  0.74563  0.70468  0.37652  1.0000
  C   C141      1.0  0.75695  0.97925  0.36699  1.0000
  C   C142      1.0  0.79274  0.99931  0.37313  1.0000
  C   C143      1.0  0.80855  0.53500  0.37153  1.0000
  H   H71       1.0  0.83428  0.54875  0.37652  1.0000
  N   N47       1.0  0.81455  0.98581  0.38199  1.0000
  O   O47       1.0  0.81231  0.96777  0.31420  1.0000
  O   O48       1.0  0.80864  0.96869  0.45427  1.0000
  N   N48       1.0  0.74239  0.94486  0.36824  1.0000
  C   C144      1.0  0.00396  0.78134  0.37153  1.0000
  H   H72       1.0  0.99021  0.79332  0.37652  1.0000
