data_image0
_chemical_formula_structural       C5H6C6H6C4H2NC3H2NC2HNC12H6C6H3C9H3C12H6C6H3C8H2C3N2O4NC3N2O4NCNO2CHCHC2NO2N
_chemical_formula_sum              "C84 H42 N12 O12"
_cell_length_a       45.2149
_cell_length_b       45.2206
_cell_length_c       14.3434
_cell_angle_alpha    90
_cell_angle_beta     90
_cell_angle_gamma    119.994

_space_group_name_H-M_alt    "P 1"
_space_group_IT_number       1

loop_
  _space_group_symop_operation_xyz
  'x, y, z'

loop_
  _atom_site_type_symbol
  _atom_site_label
  _atom_site_symmetry_multiplicity
  _atom_site_fract_x
  _atom_site_fract_y
  _atom_site_fract_z
  _atom_site_occupancy
  C   C1        1.0  0.42635  0.59296  0.36267  1.0000
  C   C2        1.0  0.46406  0.84489  0.36085  1.0000
  C   C3        1.0  0.47817  0.88059  0.36548  1.0000
  C   C4        1.0  0.21231  0.63064  0.36081  1.0000
  C   C5        1.0  0.17661  0.60904  0.36543  1.0000
  H   H1        1.0  0.43827  0.55395  0.34745  1.0000
  H   H2        1.0  0.47888  0.83529  0.33645  1.0000
  H   H3        1.0  0.50287  0.89582  0.34410  1.0000
  H   H4        1.0  0.22190  0.65504  0.33636  1.0000
  H   H5        1.0  0.16137  0.61849  0.34399  1.0000
  H   H6        1.0  0.40173  0.57795  0.34001  1.0000
  C   C6        1.0  0.44795  0.57885  0.36718  1.0000
  C   C7        1.0  0.64292  0.45353  0.40342  1.0000
  C   C8        1.0  0.60320  0.20085  0.39967  1.0000
  C   C9        1.0  0.58875  0.16521  0.39050  1.0000
  C   C10       1.0  0.85633  0.41375  0.39977  1.0000
  C   C11       1.0  0.89197  0.43495  0.39057  1.0000
  H   H7        1.0  0.63177  0.49337  0.40883  1.0000
  H   H8        1.0  0.58772  0.21044  0.41791  1.0000
  H   H9        1.0  0.56310  0.14994  0.40185  1.0000
  H   H10       1.0  0.84675  0.38870  0.41814  1.0000
  H   H11       1.0  0.90726  0.42461  0.40211  1.0000
  H   H12       1.0  0.66763  0.46873  0.42517  1.0000
  C   C12       1.0  0.62174  0.46799  0.39402  1.0000
  C   C13       1.0  0.51401  0.53899  0.39277  1.0000
  C   C14       1.0  0.51625  0.52269  0.31167  1.0000
  C   C15       1.0  0.53525  0.50588  0.31142  1.0000
  H   H13       1.0  0.53684  0.49486  0.25078  1.0000
  H   H14       1.0  0.50432  0.52329  0.25159  1.0000
  N   N1        1.0  0.49509  0.55400  0.38829  1.0000
  C   C16       1.0  0.51821  0.98649  0.39306  1.0000
  C   C17       1.0  0.53425  0.00507  0.31179  1.0000
  C   C18       1.0  0.55101  0.04089  0.31170  1.0000
  H   H15       1.0  0.56185  0.05354  0.25097  1.0000
  H   H16       1.0  0.53350  0.99259  0.25150  1.0000
  N   N2        1.0  0.50323  0.95257  0.38843  1.0000
  C   C19       1.0  0.07070  0.54316  0.39304  1.0000
  C   C20       1.0  0.05212  0.54061  0.31178  1.0000
  H   H17       1.0  0.06460  0.55236  0.25150  1.0000
  N   N3        1.0  0.10463  0.56210  0.38842  1.0000
  C   C21       1.0  0.43003  0.82282  0.38912  1.0000
  C   C22       1.0  0.43857  0.62725  0.38876  1.0000
  C   C23       1.0  0.23441  0.61871  0.38913  1.0000
  C   C24       1.0  0.48228  0.59856  0.39773  1.0000
  C   C25       1.0  0.49410  0.63292  0.42379  1.0000
  C   C26       1.0  0.47264  0.64712  0.41945  1.0000
  C   C27       1.0  0.45872  0.89519  0.39834  1.0000
  C   C28       1.0  0.42462  0.87265  0.42658  1.0000
  C   C29       1.0  0.41042  0.83700  0.42214  1.0000
  C   C30       1.0  0.16202  0.57500  0.39833  1.0000
  C   C31       1.0  0.18458  0.56346  0.42665  1.0000
  C   C32       1.0  0.22023  0.58493  0.42220  1.0000
  H   H18       1.0  0.51867  0.64816  0.44643  1.0000
  H   H19       1.0  0.48228  0.67209  0.43883  1.0000
  H   H20       1.0  0.38563  0.82166  0.44312  1.0000
  H   H21       1.0  0.40958  0.88198  0.45092  1.0000
  H   H22       1.0  0.17527  0.53910  0.45102  1.0000
  H   H23       1.0  0.23559  0.57550  0.44323  1.0000
  C   C33       1.0  0.33147  0.67152  0.38061  1.0000
  C   C34       1.0  0.34966  0.70760  0.38066  1.0000
  C   C35       1.0  0.38576  0.72576  0.38061  1.0000
  C   C36       1.0  0.40366  0.70757  0.38065  1.0000
  C   C37       1.0  0.38572  0.67147  0.38060  1.0000
  C   C38       1.0  0.34964  0.65358  0.38065  1.0000
  H   H24       1.0  0.42991  0.72070  0.38120  1.0000
  H   H25       1.0  0.33653  0.72071  0.38124  1.0000
  H   H26       1.0  0.33653  0.62734  0.38121  1.0000
  C   C39       1.0  0.26757  0.63826  0.38470  1.0000
  C   C40       1.0  0.29807  0.65472  0.38208  1.0000
  C   C41       1.0  0.41900  0.64085  0.38452  1.0000
  C   C42       1.0  0.40253  0.65488  0.38201  1.0000
  C   C43       1.0  0.40236  0.75915  0.38208  1.0000
  C   C44       1.0  0.41641  0.78965  0.38469  1.0000
  C   C45       1.0  0.12684  0.55277  0.40361  1.0000
  C   C46       1.0  0.47169  0.93037  0.40363  1.0000
  C   C47       1.0  0.50449  0.58558  0.40294  1.0000
  H   H27       1.0  0.52888  0.60150  0.41908  1.0000
  H   H28       1.0  0.45580  0.93882  0.42040  1.0000
  H   H29       1.0  0.11841  0.52844  0.42039  1.0000
  C   C48       1.0  0.63836  0.22291  0.38294  1.0000
  C   C49       1.0  0.63031  0.41876  0.38220  1.0000
  C   C50       1.0  0.83425  0.42682  0.38285  1.0000
  C   C51       1.0  0.58750  0.44812  0.36305  1.0000
  C   C52       1.0  0.57521  0.41327  0.34220  1.0000
  C   C53       1.0  0.59622  0.39872  0.35175  1.0000
  C   C54       1.0  0.60902  0.15075  0.36415  1.0000
  C   C55       1.0  0.64425  0.17317  0.34774  1.0000
  C   C56       1.0  0.65879  0.20874  0.35719  1.0000
  C   C57       1.0  0.90642  0.46966  0.36410  1.0000
  C   C58       1.0  0.88397  0.48243  0.34751  1.0000
  C   C59       1.0  0.84840  0.46139  0.35693  1.0000
  H   H30       1.0  0.55065  0.39798  0.31948  1.0000
  H   H31       1.0  0.58634  0.37343  0.33554  1.0000
  H   H32       1.0  0.68437  0.22407  0.34419  1.0000
  H   H33       1.0  0.65981  0.16381  0.32838  1.0000
  H   H34       1.0  0.89332  0.50734  0.32807  1.0000
  H   H35       1.0  0.83305  0.47161  0.34384  1.0000
  C   C60       1.0  0.73718  0.37423  0.39458  1.0000
  C   C61       1.0  0.71897  0.33814  0.39451  1.0000
  C   C62       1.0  0.68286  0.31997  0.39458  1.0000
  C   C63       1.0  0.66497  0.33818  0.39447  1.0000
  C   C64       1.0  0.68291  0.37428  0.39453  1.0000
  C   C65       1.0  0.71900  0.39217  0.39446  1.0000
  H   H36       1.0  0.63873  0.32505  0.39375  1.0000
  H   H37       1.0  0.73210  0.32503  0.39383  1.0000
  H   H38       1.0  0.73211  0.41840  0.39372  1.0000
  C   C66       1.0  0.80109  0.40742  0.38925  1.0000
  C   C67       1.0  0.77059  0.39103  0.39274  1.0000
  C   C68       1.0  0.64971  0.40500  0.38894  1.0000
  C   C69       1.0  0.66610  0.39089  0.39262  1.0000
  C   C70       1.0  0.66624  0.28656  0.39278  1.0000
  C   C71       1.0  0.65212  0.25606  0.38931  1.0000
  C   C72       1.0  0.59544  0.11580  0.35140  1.0000
  C   C73       1.0  0.56613  0.46173  0.35033  1.0000
  H   H39       1.0  0.54608  0.44951  0.30824  1.0000
  H   H40       1.0  0.60781  0.10798  0.30983  1.0000
  C   C74       1.0  0.55201  0.50431  0.39289  1.0000
  C   C75       1.0  0.54998  0.52074  0.47531  1.0000
  C   C76       1.0  0.53060  0.53775  0.47553  1.0000
  N   N4        1.0  0.56625  0.52053  0.55961  1.0000
  N   N5        1.0  0.52639  0.55332  0.55638  1.0000
  O   O1        1.0  0.59814  0.53512  0.55084  1.0000
  O   O2        1.0  0.55434  0.57724  0.58585  1.0000
  O   O3        1.0  0.55533  0.49080  0.59014  1.0000
  O   O4        1.0  0.51156  0.53214  0.62081  1.0000
  N   N6        1.0  0.57010  0.48828  0.39437  1.0000
  C   C77       1.0  0.55277  0.05915  0.39346  1.0000
  C   C78       1.0  0.53661  0.04064  0.47605  1.0000
  C   C79       1.0  0.51967  0.00426  0.47611  1.0000
  N   N7        1.0  0.53706  0.05708  0.56067  1.0000
  N   N8        1.0  0.50438  0.98445  0.55710  1.0000
  O   O5        1.0  0.52239  0.07433  0.55269  1.0000
  O   O6        1.0  0.48052  0.98840  0.58745  1.0000
  O   O7        1.0  0.56688  0.07591  0.59056  1.0000
  O   O8        1.0  0.52578  0.99081  0.62093  1.0000
  N   N9        1.0  0.56875  0.09326  0.39502  1.0000
  C   C80       1.0  0.05293  0.52683  0.47608  1.0000
  N   N10       1.0  0.07274  0.53135  0.55707  1.0000
  O   O9        1.0  0.06880  0.50354  0.58740  1.0000
  O   O10       1.0  0.06638  0.54638  0.62092  1.0000
  C   C81       1.0  0.01630  0.52156  0.31168  1.0000
  H   H41       1.0  0.00365  0.51975  0.25096  1.0000
  C   C82       1.0  0.94137  0.49105  0.35139  1.0000
  H   H42       1.0  0.94919  0.51124  0.30984  1.0000
  C   C83       1.0  0.99804  0.50504  0.39344  1.0000
  C   C84       1.0  0.01655  0.50738  0.47602  1.0000
  N   N11       1.0  0.00011  0.49139  0.56063  1.0000
  O   O11       1.0  0.98287  0.45947  0.55264  1.0000
  O   O12       1.0  0.98127  0.50236  0.59054  1.0000
  N   N12       1.0  0.96393  0.48691  0.39500  1.0000
