data_image0
_chemical_formula_structural       C13H9C13H9C13H9C13H9C3HNO2C3HNO2C3HNO2C3HNO2C3HNO2C3HNO2C17H12C17H12C17H12C17H12C3HNO2C3HNO2C3HNO2C3HNO2C3HNO2C3HNO2
_chemical_formula_sum              "C156 H96 N12 O24"
_cell_length_a       57.1667
_cell_length_b       57.1498
_cell_length_c       14.9812
_cell_angle_alpha    90
_cell_angle_beta     90
_cell_angle_gamma    120.005

_space_group_name_H-M_alt    "P 1"
_space_group_IT_number       1

loop_
  _space_group_symop_operation_xyz
  'x, y, z'

loop_
  _atom_site_type_symbol
  _atom_site_label
  _atom_site_symmetry_multiplicity
  _atom_site_fract_x
  _atom_site_fract_y
  _atom_site_fract_z
  _atom_site_occupancy
  C   C1        1.0  0.91099  0.83720  0.33346  1.0000
  C   C2        1.0  0.93828  0.89482  0.32863  1.0000
  C   C3        1.0  0.91135  0.87924  0.29802  1.0000
  C   C4        1.0  0.89790  0.85082  0.30021  1.0000
  C   C5        1.0  0.95125  0.92290  0.32368  1.0000
  C   C6        1.0  0.06549  0.02799  0.32948  1.0000
  C   C7        1.0  0.10919  0.03165  0.30613  1.0000
  C   C8        1.0  0.15115  0.07374  0.33793  1.0000
  C   C9        1.0  0.13760  0.04673  0.30755  1.0000
  C   C10       1.0  0.96444  0.04219  0.33115  1.0000
  C   C11       1.0  0.92056  0.03913  0.31283  1.0000
  C   C12       1.0  0.91605  0.07909  0.33840  1.0000
  C   C13       1.0  0.90466  0.05158  0.31441  1.0000
  H   H1        1.0  0.87838  0.84014  0.27791  1.0000
  H   H2        1.0  0.90121  0.88845  0.27389  1.0000
  H   H3        1.0  0.91175  0.01921  0.29481  1.0000
  H   H4        1.0  0.10001  0.01209  0.28387  1.0000
  H   H5        1.0  0.14832  0.03778  0.28662  1.0000
  H   H6        1.0  0.88461  0.04034  0.29834  1.0000
  H   H7        1.0  0.05760  0.01615  0.27622  1.0000
  H   H8        1.0  0.94792  0.93091  0.26945  1.0000
  H   H9        1.0  0.98022  0.05047  0.29002  1.0000
  C   C14       1.0  0.52320  0.36616  0.30826  1.0000
  C   C15       1.0  0.48193  0.31063  0.30437  1.0000
  C   C16       1.0  0.50701  0.31942  0.26151  1.0000
  C   C17       1.0  0.52737  0.34673  0.26374  1.0000
  C   C18       1.0  0.46312  0.28313  0.30568  1.0000
  C   C19       1.0  0.35164  0.18052  0.32828  1.0000
  C   C20       1.0  0.30815  0.17654  0.29683  1.0000
  C   C21       1.0  0.26593  0.13503  0.33198  1.0000
  C   C22       1.0  0.27974  0.16156  0.29713  1.0000
  C   C23       1.0  0.46079  0.17547  0.34645  1.0000
  C   C24       1.0  0.50783  0.18875  0.37169  1.0000
  C   C25       1.0  0.52351  0.15646  0.34811  1.0000
  C   C26       1.0  0.52877  0.18265  0.37066  1.0000
  H   H10       1.0  0.54568  0.35211  0.23545  1.0000
  H   H11       1.0  0.51111  0.30584  0.23089  1.0000
  H   H12       1.0  0.51253  0.20816  0.38569  1.0000
  H   H13       1.0  0.31750  0.19573  0.27124  1.0000
  H   H14       1.0  0.26919  0.17023  0.27217  1.0000
  H   H15       1.0  0.54806  0.19776  0.38393  1.0000
  H   H16       1.0  0.35999  0.19121  0.27310  1.0000
  H   H17       1.0  0.46110  0.27266  0.25016  1.0000
  H   H18       1.0  0.45111  0.17235  0.28854  1.0000
  C   C27       1.0  0.62229  0.15754  0.30872  1.0000
  C   C28       1.0  0.67780  0.17176  0.30523  1.0000
  C   C29       1.0  0.66904  0.18804  0.26212  1.0000
  C   C30       1.0  0.64174  0.18112  0.26423  1.0000
  C   C31       1.0  0.70529  0.18044  0.30660  1.0000
  C   C32       1.0  0.80682  0.17050  0.32764  1.0000
  C   C33       1.0  0.81024  0.13022  0.30676  1.0000
  C   C34       1.0  0.85317  0.13118  0.33030  1.0000
  C   C35       1.0  0.82548  0.11706  0.30715  1.0000
  C   C36       1.0  0.81321  0.28585  0.34682  1.0000
  C   C37       1.0  0.79989  0.31964  0.37072  1.0000
  C   C38       1.0  0.83233  0.36762  0.34816  1.0000
  C   C39       1.0  0.80604  0.34670  0.36959  1.0000
  H   H19       1.0  0.63639  0.19406  0.23577  1.0000
  H   H20       1.0  0.68264  0.20573  0.23152  1.0000
  H   H21       1.0  0.78041  0.30494  0.38381  1.0000
  H   H22       1.0  0.79022  0.11936  0.28981  1.0000
  H   H23       1.0  0.81612  0.09697  0.29108  1.0000
  H   H24       1.0  0.79090  0.35091  0.38194  1.0000
  H   H25       1.0  0.79487  0.16685  0.27489  1.0000
  H   H26       1.0  0.71577  0.18888  0.25109  1.0000
  H   H27       1.0  0.81651  0.27931  0.28915  1.0000
  C   C40       1.0  0.83116  0.46523  0.30819  1.0000
  C   C41       1.0  0.81661  0.50630  0.30473  1.0000
  C   C42       1.0  0.80040  0.48119  0.26185  1.0000
  C   C43       1.0  0.80749  0.46093  0.26391  1.0000
  C   C44       1.0  0.80775  0.52496  0.30633  1.0000
  C   C45       1.0  0.81708  0.63666  0.32842  1.0000
  C   C46       1.0  0.85660  0.68012  0.29681  1.0000
  C   C47       1.0  0.85723  0.72235  0.33082  1.0000
  C   C48       1.0  0.87001  0.70855  0.29660  1.0000
  C   C49       1.0  0.70274  0.52746  0.34664  1.0000
  C   C50       1.0  0.66881  0.48059  0.37401  1.0000
  C   C51       1.0  0.62091  0.46491  0.34878  1.0000
  C   C52       1.0  0.64176  0.45969  0.37301  1.0000
  H   H28       1.0  0.79460  0.44259  0.23569  1.0000
  H   H29       1.0  0.78265  0.47697  0.23150  1.0000
  H   H30       1.0  0.68345  0.47589  0.38913  1.0000
  H   H31       1.0  0.86647  0.67075  0.27168  1.0000
  H   H32       1.0  0.88923  0.71909  0.27167  1.0000
  H   H33       1.0  0.63750  0.44044  0.38738  1.0000
  H   H34       1.0  0.81941  0.62824  0.27340  1.0000
  H   H35       1.0  0.79917  0.52688  0.25095  1.0000
  H   H36       1.0  0.70934  0.53690  0.28837  1.0000
  C   C53       1.0  0.23724  0.11980  0.33199  1.0000
  C   C54       1.0  0.22219  0.11160  0.25146  1.0000
  C   C55       1.0  0.19367  0.09619  0.25562  1.0000
  H   H37       1.0  0.18293  0.09029  0.19719  1.0000
  N   N1        1.0  0.23588  0.11836  0.16840  1.0000
  O   O1        1.0  0.23107  0.09761  0.12497  1.0000
  O   O2        1.0  0.22937  0.13245  0.12152  1.0000
  C   C56       1.0  0.86863  0.11789  0.33091  1.0000
  C   C57       1.0  0.87208  0.10578  0.25311  1.0000
  C   C58       1.0  0.88767  0.09286  0.25803  1.0000
  H   H38       1.0  0.89041  0.08459  0.20108  1.0000
  N   N2        1.0  0.86071  0.10755  0.17109  1.0000
  O   O3        1.0  0.87863  0.12030  0.11345  1.0000
  O   O4        1.0  0.84443  0.08454  0.14065  1.0000
  C   C59       1.0  0.87065  0.75103  0.33010  1.0000
  C   C60       1.0  0.87672  0.76582  0.24920  1.0000
  C   C61       1.0  0.88992  0.79436  0.25257  1.0000
  H   H39       1.0  0.89426  0.80491  0.19383  1.0000
  N   N3        1.0  0.86897  0.75185  0.16671  1.0000
  O   O5        1.0  0.85263  0.75654  0.12534  1.0000
  O   O6        1.0  0.88909  0.75819  0.11755  1.0000
  C   C62       1.0  0.59535  0.15247  0.31774  1.0000
  C   C63       1.0  0.57914  0.14989  0.24248  1.0000
  C   C64       1.0  0.55428  0.14922  0.25527  1.0000
  H   H40       1.0  0.54333  0.14861  0.20030  1.0000
  N   N4        1.0  0.58821  0.14842  0.15573  1.0000
  O   O7        1.0  0.57212  0.12654  0.11805  1.0000
  O   O8        1.0  0.59099  0.16759  0.10719  1.0000
  C   C65       1.0  0.83637  0.44345  0.31733  1.0000
  C   C66       1.0  0.83896  0.42980  0.24216  1.0000
  C   C67       1.0  0.83966  0.40562  0.25508  1.0000
  H   H41       1.0  0.84026  0.39525  0.20018  1.0000
  N   N5        1.0  0.84040  0.44031  0.15537  1.0000
  O   O9        1.0  0.86227  0.44609  0.11765  1.0000
  O   O10       1.0  0.82123  0.42387  0.10690  1.0000
  C   C68       1.0  0.54505  0.39310  0.31755  1.0000
  C   C69       1.0  0.55874  0.40938  0.24247  1.0000
  C   C70       1.0  0.58293  0.43424  0.25554  1.0000
  H   H42       1.0  0.59333  0.44520  0.20065  1.0000
  N   N6        1.0  0.54825  0.40037  0.15563  1.0000
  O   O11       1.0  0.54250  0.41651  0.11805  1.0000
  O   O12       1.0  0.56467  0.39764  0.10711  1.0000
  C   C71       1.0  0.93795  0.85266  0.36337  1.0000
  C   C72       1.0  0.95147  0.88107  0.36044  1.0000
  C   C73       1.0  0.96700  0.93966  0.38854  1.0000
  C   C74       1.0  0.97930  0.96755  0.38305  1.0000
  C   C75       1.0  0.96376  0.98052  0.38054  1.0000
  C   C76       1.0  0.97620  0.00903  0.38034  1.0000
  C   C77       1.0  0.00475  0.02452  0.38429  1.0000
  C   C78       1.0  0.02069  0.01199  0.38608  1.0000
  C   C79       1.0  0.00775  0.98347  0.38640  1.0000
  C   C80       1.0  0.04856  0.02761  0.39262  1.0000
  C   C81       1.0  0.09356  0.04317  0.33460  1.0000
  C   C82       1.0  0.10727  0.07040  0.36371  1.0000
  C   C83       1.0  0.13568  0.08542  0.36604  1.0000
  C   C84       1.0  0.96018  0.02104  0.38215  1.0000
  C   C85       1.0  0.94832  0.05394  0.33473  1.0000
  C   C86       1.0  0.95984  0.08153  0.35739  1.0000
  C   C87       1.0  0.94387  0.09390  0.35963  1.0000
  H   H43       1.0  0.94813  0.84333  0.38606  1.0000
  H   H44       1.0  0.97117  0.89160  0.38098  1.0000
  H   H45       1.0  0.01915  0.97423  0.39019  1.0000
  H   H46       1.0  0.94308  0.96901  0.38011  1.0000
  H   H47       1.0  0.01406  0.04519  0.38690  1.0000
  H   H48       1.0  0.14500  0.10513  0.38672  1.0000
  H   H49       1.0  0.09671  0.07970  0.38254  1.0000
  H   H50       1.0  0.95285  0.11399  0.37538  1.0000
  H   H51       1.0  0.97996  0.09287  0.37256  1.0000
  H   H52       1.0  0.05600  0.03912  0.44666  1.0000
  H   H53       1.0  0.97035  0.93205  0.44361  1.0000
  H   H54       1.0  0.94430  0.01299  0.42300  1.0000
  C   C88       1.0  0.49802  0.35751  0.35017  1.0000
  C   C89       1.0  0.47755  0.33015  0.34757  1.0000
  C   C90       1.0  0.45097  0.26946  0.38058  1.0000
  C   C91       1.0  0.43760  0.24154  0.38415  1.0000
  C   C92       1.0  0.45281  0.22839  0.39353  1.0000
  C   C93       1.0  0.43996  0.20001  0.40111  1.0000
  C   C94       1.0  0.41147  0.18468  0.40063  1.0000
  C   C95       1.0  0.39587  0.19749  0.39157  1.0000
  C   C96       1.0  0.40913  0.22599  0.38405  1.0000
  C   C97       1.0  0.36795  0.18221  0.39574  1.0000
  C   C98       1.0  0.32355  0.16546  0.33146  1.0000
  C   C99       1.0  0.30962  0.13876  0.36540  1.0000
  C   C100      1.0  0.28121  0.12385  0.36643  1.0000
  C   C101      1.0  0.45575  0.18818  0.41280  1.0000
  C   C102      1.0  0.48097  0.16873  0.35129  1.0000
  C   C103      1.0  0.47576  0.14259  0.32770  1.0000
  C   C104      1.0  0.49682  0.13653  0.32593  1.0000
  H   H55       1.0  0.49454  0.37104  0.38399  1.0000
  H   H56       1.0  0.45967  0.32450  0.37945  1.0000
  H   H57       1.0  0.39799  0.23551  0.37963  1.0000
  H   H58       1.0  0.47352  0.23967  0.39529  1.0000
  H   H59       1.0  0.40206  0.16410  0.40782  1.0000
  H   H60       1.0  0.27175  0.10454  0.39098  1.0000
  H   H61       1.0  0.32004  0.12980  0.38907  1.0000
  H   H62       1.0  0.49261  0.11755  0.30762  1.0000
  H   H63       1.0  0.45666  0.12787  0.31038  1.0000
  H   H64       1.0  0.35995  0.17183  0.45161  1.0000
  H   H65       1.0  0.45441  0.27922  0.43837  1.0000
  H   H66       1.0  0.46637  0.19251  0.46914  1.0000
  C   C105      1.0  0.63091  0.14102  0.35094  1.0000
  C   C106      1.0  0.65826  0.14791  0.34858  1.0000
  C   C107      1.0  0.71898  0.18185  0.38134  1.0000
  C   C108      1.0  0.74690  0.19646  0.38477  1.0000
  C   C109      1.0  0.75998  0.22481  0.39439  1.0000
  C   C110      1.0  0.78836  0.24043  0.40118  1.0000
  C   C111      1.0  0.80377  0.22734  0.39957  1.0000
  C   C112      1.0  0.79105  0.19893  0.39029  1.0000
  C   C113      1.0  0.76253  0.18362  0.38360  1.0000
  C   C114      1.0  0.80653  0.18645  0.39314  1.0000
  C   C115      1.0  0.82219  0.15783  0.33015  1.0000
  C   C116      1.0  0.84996  0.17199  0.35271  1.0000
  C   C117      1.0  0.86517  0.15879  0.35341  1.0000
  C   C118      1.0  0.80012  0.26804  0.41271  1.0000
  C   C119      1.0  0.81996  0.31278  0.35148  1.0000
  C   C120      1.0  0.84621  0.33371  0.32902  1.0000
  C   C121      1.0  0.85233  0.36086  0.32717  1.0000
  H   H67       1.0  0.61736  0.12402  0.38475  1.0000
  H   H68       1.0  0.66389  0.13566  0.38055  1.0000
  H   H69       1.0  0.75305  0.16297  0.37900  1.0000
  H   H70       1.0  0.74865  0.23419  0.39673  1.0000
  H   H71       1.0  0.82436  0.23859  0.40599  1.0000
  H   H72       1.0  0.88524  0.16966  0.36957  1.0000
  H   H73       1.0  0.85944  0.19212  0.36822  1.0000
  H   H74       1.0  0.87138  0.37562  0.30967  1.0000
  H   H75       1.0  0.86098  0.32932  0.31263  1.0000
  H   H76       1.0  0.81831  0.19011  0.44630  1.0000
  H   H77       1.0  0.70925  0.17553  0.43916  1.0000
  H   H78       1.0  0.79568  0.27437  0.46875  1.0000
  C   C122      1.0  0.84760  0.49043  0.35016  1.0000
  C   C123      1.0  0.84057  0.51079  0.34779  1.0000
  C   C124      1.0  0.80637  0.53725  0.38108  1.0000
  C   C125      1.0  0.79189  0.55068  0.38479  1.0000
  C   C126      1.0  0.76353  0.53553  0.39413  1.0000
  C   C127      1.0  0.74807  0.54844  0.40165  1.0000
  C   C128      1.0  0.76130  0.57695  0.40112  1.0000
  C   C129      1.0  0.78971  0.59249  0.39206  1.0000
  C   C130      1.0  0.80489  0.57917  0.38462  1.0000
  C   C131      1.0  0.80242  0.62043  0.39597  1.0000
  C   C132      1.0  0.83010  0.66475  0.33122  1.0000
  C   C133      1.0  0.81726  0.67870  0.36445  1.0000
  C   C134      1.0  0.83075  0.70712  0.36506  1.0000
  C   C135      1.0  0.72045  0.53271  0.41326  1.0000
  C   C136      1.0  0.67578  0.50737  0.35177  1.0000
  C   C137      1.0  0.65496  0.51254  0.32643  1.0000
  C   C138      1.0  0.62781  0.49152  0.32478  1.0000
  H   H79       1.0  0.86465  0.49399  0.38389  1.0000
  H   H80       1.0  0.85274  0.52869  0.37969  1.0000
  H   H81       1.0  0.82554  0.59026  0.38015  1.0000
  H   H82       1.0  0.75404  0.51481  0.39590  1.0000
  H   H83       1.0  0.75017  0.58640  0.40819  1.0000
  H   H84       1.0  0.82087  0.71661  0.38906  1.0000
  H   H85       1.0  0.79786  0.66830  0.38789  1.0000
  H   H86       1.0  0.61314  0.49570  0.30512  1.0000
  H   H87       1.0  0.65943  0.53157  0.30776  1.0000
  H   H88       1.0  0.80000  0.62849  0.45162  1.0000
  H   H89       1.0  0.81301  0.53410  0.43869  1.0000
  H   H90       1.0  0.71411  0.52239  0.47013  1.0000
  C   C139      1.0  0.17981  0.08908  0.33805  1.0000
  C   C140      1.0  0.19482  0.09736  0.41859  1.0000
  C   C141      1.0  0.22337  0.11244  0.41444  1.0000
  H   H91       1.0  0.23410  0.11831  0.47289  1.0000
  N   N7        1.0  0.18110  0.08991  0.50154  1.0000
  O   O13       1.0  0.18599  0.11033  0.54709  1.0000
  O   O14       1.0  0.18754  0.07541  0.54638  1.0000
  C   C142      1.0  0.90009  0.09183  0.33838  1.0000
  C   C143      1.0  0.89662  0.10392  0.41620  1.0000
  C   C144      1.0  0.88100  0.11681  0.41131  1.0000
  H   H92       1.0  0.87836  0.12519  0.46816  1.0000
  N   N8        1.0  0.90813  0.10227  0.49807  1.0000
  O   O15       1.0  0.89029  0.08955  0.55599  1.0000
  O   O16       1.0  0.92440  0.12533  0.52820  1.0000
  C   C145      1.0  0.89751  0.80850  0.33451  1.0000
  C   C146      1.0  0.89150  0.79369  0.41542  1.0000
  C   C147      1.0  0.87794  0.76512  0.41211  1.0000
  H   H93       1.0  0.87361  0.75455  0.47079  1.0000
  N   N9        1.0  0.89852  0.80762  0.49805  1.0000
  O   O17       1.0  0.91443  0.80282  0.54171  1.0000
  O   O18       1.0  0.87800  0.80131  0.54504  1.0000
  C   C148      1.0  0.54548  0.15159  0.34116  1.0000
  C   C149      1.0  0.56122  0.15331  0.41663  1.0000
  C   C150      1.0  0.58579  0.15340  0.40398  1.0000
  H   H94       1.0  0.59757  0.15584  0.45865  1.0000
  N   N10       1.0  0.55237  0.15545  0.50303  1.0000
  O   O19       1.0  0.54867  0.13599  0.55177  1.0000
  O   O20       1.0  0.56904  0.17710  0.54078  1.0000
  C   C151      1.0  0.83725  0.39448  0.34103  1.0000
  C   C152      1.0  0.83551  0.40852  0.41643  1.0000
  C   C153      1.0  0.83544  0.43301  0.40364  1.0000
  H   H95       1.0  0.83292  0.44232  0.45824  1.0000
  N   N11       1.0  0.83330  0.39751  0.50285  1.0000
  O   O21       1.0  0.85271  0.41326  0.55174  1.0000
  O   O22       1.0  0.81162  0.39253  0.54038  1.0000
  C   C154      1.0  0.59407  0.44292  0.34152  1.0000
  C   C155      1.0  0.57996  0.42713  0.41684  1.0000
  C   C156      1.0  0.55545  0.40260  0.40391  1.0000
  H   H96       1.0  0.54610  0.39075  0.45844  1.0000
  N   N12       1.0  0.59088  0.43590  0.50338  1.0000
  O   O23       1.0  0.57512  0.43962  0.55199  1.0000
  O   O24       1.0  0.59576  0.41916  0.54113  1.0000
