data_image0
_chemical_formula_structural       C11H6C6H3C6N2C11H6C6H3C6N2C5H4CHC5H4CHC5H4CHC7H6NC7H6NC4HC3H2NO2CHC4HC3H2NO2CHC4HC3H2NO2CH
_chemical_formula_sum              "C102 H57 N9 O6"
_cell_length_a       52.6084
_cell_length_b       52.6197
_cell_length_c       14.9359
_cell_angle_alpha    90
_cell_angle_beta     90
_cell_angle_gamma    119.985

_space_group_name_H-M_alt    "P 1"
_space_group_IT_number       1

loop_
  _space_group_symop_operation_xyz
  'x, y, z'

loop_
  _atom_site_type_symbol
  _atom_site_label
  _atom_site_symmetry_multiplicity
  _atom_site_fract_x
  _atom_site_fract_y
  _atom_site_fract_z
  _atom_site_occupancy
  C   C1        1.0  0.22189  0.61220  0.34075  1.0000
  C   C2        1.0  0.39282  0.61045  0.33937  1.0000
  C   C3        1.0  0.39488  0.78349  0.33951  1.0000
  C   C4        1.0  0.42311  0.57827  0.33930  1.0000
  C   C5        1.0  0.39453  0.56604  0.30267  1.0000
  C   C6        1.0  0.37955  0.58196  0.30246  1.0000
  C   C7        1.0  0.17554  0.61199  0.32404  1.0000
  C   C8        1.0  0.20644  0.62721  0.32347  1.0000
  C   C9        1.0  0.42699  0.84595  0.33944  1.0000
  C   C10       1.0  0.43946  0.82963  0.30426  1.0000
  C   C11       1.0  0.42357  0.79874  0.30402  1.0000
  H   H1        1.0  0.38420  0.54531  0.27661  1.0000
  H   H2        1.0  0.35890  0.57244  0.27543  1.0000
  H   H3        1.0  0.21741  0.64931  0.31065  1.0000
  H   H4        1.0  0.16495  0.62350  0.31264  1.0000
  H   H5        1.0  0.46034  0.84005  0.27926  1.0000
  H   H6        1.0  0.43326  0.78763  0.27802  1.0000
  C   C12       1.0  0.35227  0.69992  0.33875  1.0000
  C   C13       1.0  0.32126  0.68452  0.33895  1.0000
  C   C14       1.0  0.30547  0.65351  0.33903  1.0000
  C   C15       1.0  0.32088  0.63791  0.33890  1.0000
  C   C16       1.0  0.35189  0.65312  0.33870  1.0000
  C   C17       1.0  0.36750  0.68412  0.33861  1.0000
  H   H7        1.0  0.30947  0.61536  0.33907  1.0000
  H   H8        1.0  0.31012  0.69593  0.33917  1.0000
  H   H9        1.0  0.39005  0.69525  0.33858  1.0000
  C   C18       1.0  0.38015  0.75483  0.33933  1.0000
  C   C19       1.0  0.36680  0.72859  0.33901  1.0000
  C   C20       1.0  0.37891  0.62521  0.33922  1.0000
  C   C21       1.0  0.36604  0.63859  0.33892  1.0000
  C   C22       1.0  0.27680  0.63934  0.33956  1.0000
  C   C23       1.0  0.25055  0.62632  0.34016  1.0000
  N   N1        1.0  0.43840  0.56433  0.34277  1.0000
  N   N2        1.0  0.44090  0.87517  0.34293  1.0000
  C   C24       1.0  0.78451  0.38936  0.33551  1.0000
  C   C25       1.0  0.61570  0.39578  0.33341  1.0000
  C   C26       1.0  0.60962  0.22092  0.33357  1.0000
  C   C27       1.0  0.58475  0.42723  0.33826  1.0000
  C   C28       1.0  0.61225  0.43917  0.29522  1.0000
  C   C29       1.0  0.62774  0.42375  0.29329  1.0000
  C   C30       1.0  0.83098  0.38999  0.31516  1.0000
  C   C31       1.0  0.80006  0.37475  0.31366  1.0000
  C   C32       1.0  0.57813  0.15854  0.33829  1.0000
  C   C33       1.0  0.56599  0.17413  0.29662  1.0000
  C   C34       1.0  0.58144  0.20504  0.29473  1.0000
  H   H10       1.0  0.62133  0.45938  0.26548  1.0000
  H   H11       1.0  0.64775  0.43312  0.26200  1.0000
  H   H12       1.0  0.78915  0.35302  0.29607  1.0000
  H   H13       1.0  0.84183  0.37902  0.29883  1.0000
  H   H14       1.0  0.54563  0.16304  0.26781  1.0000
  H   H15       1.0  0.57192  0.21570  0.26444  1.0000
  C   C35       1.0  0.65329  0.30442  0.33025  1.0000
  C   C36       1.0  0.68428  0.31885  0.33094  1.0000
  C   C37       1.0  0.70100  0.34982  0.33122  1.0000
  C   C38       1.0  0.68656  0.36638  0.33085  1.0000
  C   C39       1.0  0.65559  0.35213  0.33015  1.0000
  C   C40       1.0  0.63904  0.32115  0.32990  1.0000
  H   H16       1.0  0.69865  0.38890  0.33127  1.0000
  H   H17       1.0  0.69472  0.30676  0.33144  1.0000
  H   H18       1.0  0.61651  0.31072  0.32968  1.0000
  C   C41       1.0  0.62418  0.24956  0.33162  1.0000
  C   C42       1.0  0.63794  0.27579  0.33063  1.0000
  C   C43       1.0  0.62981  0.38124  0.33142  1.0000
  C   C44       1.0  0.64229  0.36748  0.33046  1.0000
  C   C45       1.0  0.72964  0.36309  0.33232  1.0000
  C   C46       1.0  0.75587  0.37545  0.33366  1.0000
  N   N3        1.0  0.57082  0.44252  0.33632  1.0000
  N   N4        1.0  0.56280  0.12933  0.33642  1.0000
  C   C47       1.0  0.53621  0.46958  0.29410  1.0000
  C   C48       1.0  0.52071  0.48470  0.28229  1.0000
  C   C49       1.0  0.46662  0.49197  0.28290  1.0000
  C   C50       1.0  0.44888  0.50464  0.26907  1.0000
  C   C51       1.0  0.45505  0.53110  0.31216  1.0000
  H   H19       1.0  0.46104  0.47255  0.25168  1.0000
  H   H20       1.0  0.43113  0.49405  0.22742  1.0000
  H   H21       1.0  0.54410  0.46440  0.23854  1.0000
  H   H22       1.0  0.51816  0.49030  0.21862  1.0000
  C   C52       1.0  0.43686  0.54288  0.29693  1.0000
  H   H23       1.0  0.42206  0.53435  0.24815  1.0000
  C   C53       1.0  0.53579  0.06768  0.29408  1.0000
  C   C54       1.0  0.52063  0.03707  0.28237  1.0000
  C   C55       1.0  0.51334  0.97571  0.28308  1.0000
  C   C56       1.0  0.50070  0.94532  0.26941  1.0000
  C   C57       1.0  0.47426  0.92505  0.31261  1.0000
  H   H24       1.0  0.53278  0.98955  0.25186  1.0000
  H   H25       1.0  0.51130  0.93815  0.22782  1.0000
  H   H26       1.0  0.54098  0.08072  0.23848  1.0000
  H   H27       1.0  0.51499  0.02890  0.21872  1.0000
  C   C58       1.0  0.46252  0.89507  0.29760  1.0000
  H   H28       1.0  0.47121  0.88878  0.24933  1.0000
  C   C59       1.0  0.93778  0.46919  0.29374  1.0000
  C   C60       1.0  0.96845  0.48438  0.28306  1.0000
  C   C61       1.0  0.02968  0.53862  0.28551  1.0000
  C   C62       1.0  0.06012  0.55671  0.27366  1.0000
  C   C63       1.0  0.08037  0.55079  0.31831  1.0000
  H   H29       1.0  0.01588  0.54412  0.25359  1.0000
  H   H30       1.0  0.06734  0.57459  0.23255  1.0000
  H   H31       1.0  0.92489  0.46142  0.23780  1.0000
  H   H32       1.0  0.97684  0.48677  0.21976  1.0000
  C   C64       1.0  0.11041  0.56969  0.30636  1.0000
  H   H33       1.0  0.11686  0.58689  0.26605  1.0000
  C   C65       1.0  0.42117  0.62267  0.37695  1.0000
  C   C66       1.0  0.43602  0.60661  0.37717  1.0000
  C   C67       1.0  0.20598  0.58183  0.35925  1.0000
  C   C68       1.0  0.17507  0.56672  0.36003  1.0000
  C   C69       1.0  0.15943  0.58145  0.34139  1.0000
  C   C70       1.0  0.38243  0.79960  0.37569  1.0000
  C   C71       1.0  0.39845  0.83050  0.37595  1.0000
  H   H34       1.0  0.45656  0.61592  0.40483  1.0000
  H   H35       1.0  0.21662  0.57041  0.37250  1.0000
  H   H36       1.0  0.16400  0.54470  0.37365  1.0000
  H   H37       1.0  0.36170  0.78910  0.40232  1.0000
  H   H38       1.0  0.38897  0.84170  0.40262  1.0000
  H   H39       1.0  0.43127  0.64324  0.40460  1.0000
  N   N5        1.0  0.13021  0.56583  0.34421  1.0000
  C   C72       1.0  0.58796  0.38346  0.37514  1.0000
  C   C73       1.0  0.57263  0.39901  0.37723  1.0000
  C   C74       1.0  0.80031  0.41939  0.35863  1.0000
  C   C75       1.0  0.83119  0.43447  0.36050  1.0000
  C   C76       1.0  0.84689  0.41985  0.33988  1.0000
  C   C77       1.0  0.62213  0.20547  0.37399  1.0000
  C   C78       1.0  0.60655  0.17460  0.37602  1.0000
  H   H40       1.0  0.55236  0.38939  0.40655  1.0000
  H   H41       1.0  0.78961  0.43063  0.37389  1.0000
  H   H42       1.0  0.84216  0.45632  0.37608  1.0000
  H   H43       1.0  0.64267  0.21641  0.40185  1.0000
  H   H44       1.0  0.61630  0.16392  0.40435  1.0000
  H   H45       1.0  0.57854  0.36306  0.40396  1.0000
  N   N6        1.0  0.87608  0.43342  0.33837  1.0000
  C   C79       1.0  0.53997  0.46081  0.38028  1.0000
  C   C80       1.0  0.50846  0.49170  0.35608  1.0000
  C   C81       1.0  0.51231  0.48336  0.44329  1.0000
  C   C82       1.0  0.52797  0.46811  0.45406  1.0000
  H   H46       1.0  0.53002  0.46175  0.51723  1.0000
  C   C83       1.0  0.49121  0.50529  0.34050  1.0000
  C   C84       1.0  0.47988  0.54453  0.36925  1.0000
  C   C85       1.0  0.49764  0.53185  0.38311  1.0000
  H   H47       1.0  0.48537  0.56378  0.40137  1.0000
  H   H48       1.0  0.51548  0.54230  0.42441  1.0000
  N   N7        1.0  0.49930  0.48904  0.51802  1.0000
  O   O1        1.0  0.51825  0.50485  0.57493  1.0000
  O   O2        1.0  0.48061  0.46570  0.55540  1.0000
  C   C86       1.0  0.55335  0.44401  0.39374  1.0000
  H   H49       1.0  0.54931  0.43276  0.45062  1.0000
  C   C87       1.0  0.54463  0.08022  0.38021  1.0000
  C   C88       1.0  0.51363  0.01783  0.35619  1.0000
  C   C89       1.0  0.52203  0.03005  0.44336  1.0000
  C   C90       1.0  0.53731  0.06095  0.45405  1.0000
  H   H50       1.0  0.54375  0.06938  0.51717  1.0000
  C   C91       1.0  0.50004  0.98700  0.34068  1.0000
  C   C92       1.0  0.46082  0.93645  0.36965  1.0000
  C   C93       1.0  0.47349  0.96689  0.38339  1.0000
  H   H51       1.0  0.44159  0.92270  0.40189  1.0000
  H   H52       1.0  0.46305  0.97429  0.42470  1.0000
  N   N8        1.0  0.51636  0.01139  0.51813  1.0000
  O   O3        1.0  0.50058  0.01457  0.57509  1.0000
  O   O4        1.0  0.53970  0.01600  0.55542  1.0000
  C   C94       1.0  0.56151  0.11039  0.39353  1.0000
  H   H53       1.0  0.57297  0.11759  0.45006  1.0000
  C   C95       1.0  0.92501  0.46592  0.37929  1.0000
  C   C96       1.0  0.98743  0.49667  0.35741  1.0000
  C   C97       1.0  0.97493  0.49317  0.44407  1.0000
  C   C98       1.0  0.94399  0.47788  0.45371  1.0000
  H   H54       1.0  0.93531  0.47616  0.51633  1.0000
  C   C99       1.0  0.01831  0.51395  0.34276  1.0000
  C   C100      1.0  0.06886  0.52581  0.37475  1.0000
  C   C101      1.0  0.03837  0.50771  0.38673  1.0000
  H   H55       1.0  0.08257  0.52060  0.40849  1.0000
  H   H56       1.0  0.03090  0.48989  0.42813  1.0000
  N   N9        1.0  0.99337  0.50621  0.51925  1.0000
  O   O5        1.0  0.98981  0.48732  0.57695  1.0000
  O   O6        1.0  0.98885  0.52517  0.55533  1.0000
  C   C102      1.0  0.89487  0.45331  0.39101  1.0000
  H   H57       1.0  0.88764  0.45987  0.44271  1.0000
