data_image0
_chemical_formula_structural       C15H12C4HCH3C4HCH3C2NC2NC5NC3NC17H14C2H2C2H2C15H12C4HCH3C4HCH3C2NC2NC5NC3NC17H14C2H2C2H2C15H12C4HCH3C4HCH3C2NC2NC5NC3NC17H14C2H2C2H2C15H12C4HCH3C4HCH3C2NC2NC5NC3NC17H14C2H2C2H2
_chemical_formula_sum              "C232 H152 N16"
_cell_length_a       42.9466
_cell_length_b       42.9466
_cell_length_c       14.9932
_cell_angle_alpha    90
_cell_angle_beta     90
_cell_angle_gamma    90

_space_group_name_H-M_alt    "P 1"
_space_group_IT_number       1

loop_
  _space_group_symop_operation_xyz
  'x, y, z'

loop_
  _atom_site_type_symbol
  _atom_site_label
  _atom_site_symmetry_multiplicity
  _atom_site_fract_x
  _atom_site_fract_y
  _atom_site_fract_z
  _atom_site_occupancy
  C   C1        1.0  0.43295  0.47023  0.34303  1.0000
  C   C2        1.0  0.02882  0.43231  0.33989  1.0000
  C   C3        1.0  0.49849  0.08111  0.33537  1.0000
  C   C4        1.0  0.46906  0.06587  0.33789  1.0000
  C   C5        1.0  0.41739  0.05782  0.33661  1.0000
  C   C6        1.0  0.44002  0.08050  0.33945  1.0000
  C   C7        1.0  0.33459  0.48434  0.26499  1.0000
  C   C8        1.0  0.36732  0.48514  0.26649  1.0000
  C   C9        1.0  0.49880  0.11456  0.33311  1.0000
  C   C10       1.0  0.48492  0.16390  0.26079  1.0000
  C   C11       1.0  0.48529  0.13115  0.26141  1.0000
  C   C12       1.0  0.13070  0.00985  0.25943  1.0000
  C   C13       1.0  0.16344  0.01060  0.25887  1.0000
  C   C14       1.0  0.01036  0.36764  0.26272  1.0000
  C   C15       1.0  0.01122  0.33492  0.26113  1.0000
  H   H1        1.0  0.02144  0.32507  0.20666  1.0000
  H   H2        1.0  0.01897  0.37971  0.20922  1.0000
  H   H3        1.0  0.43644  0.39516  0.34633  1.0000
  H   H4        1.0  0.11885  0.01839  0.20543  1.0000
  H   H5        1.0  0.17353  0.02069  0.20457  1.0000
  H   H6        1.0  0.06138  0.10279  0.32151  1.0000
  H   H7        1.0  0.39408  0.06245  0.33503  1.0000
  H   H8        1.0  0.43536  0.10381  0.34013  1.0000
  H   H9        1.0  0.47468  0.11944  0.21028  1.0000
  H   H10       1.0  0.47332  0.17484  0.21018  1.0000
  H   H11       1.0  0.37932  0.47479  0.21547  1.0000
  H   H12       1.0  0.32395  0.47274  0.21382  1.0000
  C   C16       1.0  0.99947  0.28257  0.32914  1.0000
  C   C17       1.0  0.00387  0.26563  0.24870  1.0000
  C   C18       1.0  0.00667  0.23274  0.24516  1.0000
  C   C19       1.0  0.00154  0.21490  0.32419  1.0000
  H   H13       1.0  0.00574  0.27735  0.18977  1.0000
  C   C20       1.0  0.01688  0.21930  0.15817  1.0000
  H   H14       1.0  0.03543  0.23339  0.12895  1.0000
  H   H15       1.0  0.49727  0.21887  0.11188  1.0000
  H   H16       1.0  0.02627  0.19586  0.16469  1.0000
  C   C21       1.0  0.21551  0.99872  0.32878  1.0000
  C   C22       1.0  0.23285  0.00330  0.24911  1.0000
  C   C23       1.0  0.26576  0.00599  0.24692  1.0000
  C   C24       1.0  0.28321  0.00061  0.32653  1.0000
  H   H17       1.0  0.22142  0.00537  0.18979  1.0000
  C   C25       1.0  0.27969  0.01633  0.16067  1.0000
  H   H18       1.0  0.26560  0.03471  0.13049  1.0000
  H   H19       1.0  0.28068  0.49670  0.11451  1.0000
  H   H20       1.0  0.30296  0.02600  0.16861  1.0000
  C   C26       1.0  0.44115  0.41846  0.34548  1.0000
  C   C27       1.0  0.41850  0.44113  0.34838  1.0000
  N   N1        1.0  0.46394  0.46399  0.34101  1.0000
  C   C28       1.0  0.47023  0.43301  0.34255  1.0000
  C   C29       1.0  0.49938  0.41713  0.34076  1.0000
  N   N2        1.0  0.03484  0.46324  0.33939  1.0000
  C   C30       1.0  0.06576  0.46929  0.33808  1.0000
  C   C31       1.0  0.08048  0.44027  0.33693  1.0000
  C   C32       1.0  0.05783  0.41761  0.34008  1.0000
  C   C33       1.0  0.08088  0.49875  0.33645  1.0000
  C   C34       1.0  0.06492  0.02787  0.33495  1.0000
  N   N3        1.0  0.03394  0.03416  0.33749  1.0000
  C   C35       1.0  0.02762  0.06513  0.33380  1.0000
  C   C36       1.0  0.05670  0.07956  0.32714  1.0000
  C   C37       1.0  0.07942  0.05696  0.33054  1.0000
  N   N4        1.0  0.46301  0.03493  0.33869  1.0000
  C   C38       1.0  0.43208  0.02880  0.33887  1.0000
  C   C39       1.0  0.41693  0.49931  0.34059  1.0000
  C   C40       1.0  0.38349  0.49892  0.33853  1.0000
  C   C41       1.0  0.36575  0.01234  0.40805  1.0000
  C   C42       1.0  0.33309  0.01377  0.40252  1.0000
  C   C43       1.0  0.31668  0.49993  0.33061  1.0000
  C   C44       1.0  0.01275  0.13191  0.40258  1.0000
  C   C45       1.0  0.01460  0.16457  0.39791  1.0000
  C   C46       1.0  0.50074  0.18141  0.32685  1.0000
  C   C47       1.0  0.11427  0.49892  0.33465  1.0000
  C   C48       1.0  0.18162  0.49852  0.33035  1.0000
  C   C49       1.0  0.16444  0.48656  0.40398  1.0000
  C   C50       1.0  0.13172  0.48761  0.40749  1.0000
  C   C51       1.0  0.49920  0.38375  0.33823  1.0000
  C   C52       1.0  0.48809  0.36601  0.41072  1.0000
  C   C53       1.0  0.48716  0.33329  0.40619  1.0000
  C   C54       1.0  0.49915  0.31644  0.33197  1.0000
  H   H21       1.0  0.47713  0.32216  0.45894  1.0000
  H   H22       1.0  0.47961  0.37688  0.46645  1.0000
  H   H23       1.0  0.39523  0.43644  0.35258  1.0000
  H   H24       1.0  0.47969  0.47979  0.33654  1.0000
  H   H25       1.0  0.01819  0.01841  0.34326  1.0000
  H   H26       1.0  0.06237  0.39426  0.34121  1.0000
  H   H27       1.0  0.10380  0.43572  0.33448  1.0000
  H   H28       1.0  0.12062  0.47909  0.46280  1.0000
  H   H29       1.0  0.17530  0.47643  0.45701  1.0000
  H   H30       1.0  0.10272  0.06167  0.32854  1.0000
  H   H31       1.0  0.02275  0.12076  0.45572  1.0000
  H   H32       1.0  0.02633  0.17597  0.44753  1.0000
  H   H33       1.0  0.32139  0.02531  0.45192  1.0000
  H   H34       1.0  0.37661  0.02242  0.46155  1.0000
  C   C55       1.0  0.99607  0.23150  0.40426  1.0000
  C   C56       1.0  0.99611  0.26417  0.40706  1.0000
  H   H35       1.0  0.99204  0.21992  0.46282  1.0000
  H   H36       1.0  0.99368  0.27408  0.46847  1.0000
  C   C57       1.0  0.26622  0.99497  0.40582  1.0000
  C   C58       1.0  0.23355  0.99510  0.40733  1.0000
  H   H37       1.0  0.27752  0.99079  0.46475  1.0000
  H   H38       1.0  0.22337  0.99256  0.46832  1.0000
  C   C59       1.0  0.43295  0.97023  0.34303  1.0000
  C   C60       1.0  0.02882  0.93231  0.33989  1.0000
  C   C61       1.0  0.49849  0.58111  0.33537  1.0000
  C   C62       1.0  0.46906  0.56587  0.33789  1.0000
  C   C63       1.0  0.41739  0.55782  0.33661  1.0000
  C   C64       1.0  0.44002  0.58050  0.33945  1.0000
  C   C65       1.0  0.33459  0.98434  0.26499  1.0000
  C   C66       1.0  0.36732  0.98513  0.26649  1.0000
  C   C67       1.0  0.49880  0.61456  0.33311  1.0000
  C   C68       1.0  0.48492  0.66390  0.26079  1.0000
  C   C69       1.0  0.48529  0.63114  0.26141  1.0000
  C   C70       1.0  0.13070  0.50985  0.25943  1.0000
  C   C71       1.0  0.16344  0.51060  0.25887  1.0000
  C   C72       1.0  0.01036  0.86764  0.26272  1.0000
  C   C73       1.0  0.01122  0.83492  0.26113  1.0000
  H   H39       1.0  0.02144  0.82507  0.20666  1.0000
  H   H40       1.0  0.01897  0.87971  0.20922  1.0000
  H   H41       1.0  0.43644  0.89516  0.34633  1.0000
  H   H42       1.0  0.11885  0.51839  0.20543  1.0000
  H   H43       1.0  0.17353  0.52069  0.20457  1.0000
  H   H44       1.0  0.06138  0.60279  0.32151  1.0000
  H   H45       1.0  0.39408  0.56245  0.33503  1.0000
  H   H46       1.0  0.43536  0.60381  0.34013  1.0000
  H   H47       1.0  0.47468  0.61944  0.21028  1.0000
  H   H48       1.0  0.47332  0.67484  0.21018  1.0000
  H   H49       1.0  0.37932  0.97479  0.21547  1.0000
  H   H50       1.0  0.32395  0.97274  0.21382  1.0000
  C   C74       1.0  0.99947  0.78257  0.32914  1.0000
  C   C75       1.0  0.00387  0.76563  0.24870  1.0000
  C   C76       1.0  0.00667  0.73274  0.24516  1.0000
  C   C77       1.0  0.00154  0.71490  0.32419  1.0000
  H   H51       1.0  0.00574  0.77734  0.18977  1.0000
  C   C78       1.0  0.01688  0.71930  0.15817  1.0000
  H   H52       1.0  0.03543  0.73339  0.12895  1.0000
  H   H53       1.0  0.49727  0.71887  0.11188  1.0000
  H   H54       1.0  0.02627  0.69585  0.16469  1.0000
  C   C79       1.0  0.21551  0.49872  0.32878  1.0000
  C   C80       1.0  0.23285  0.50331  0.24911  1.0000
  C   C81       1.0  0.26576  0.50599  0.24692  1.0000
  C   C82       1.0  0.28321  0.50061  0.32653  1.0000
  H   H55       1.0  0.22142  0.50537  0.18979  1.0000
  C   C83       1.0  0.27969  0.51633  0.16067  1.0000
  H   H56       1.0  0.26560  0.53470  0.13049  1.0000
  H   H57       1.0  0.28068  0.99670  0.11451  1.0000
  H   H58       1.0  0.30296  0.52600  0.16861  1.0000
  C   C84       1.0  0.44115  0.91846  0.34548  1.0000
  C   C85       1.0  0.41850  0.94113  0.34838  1.0000
  N   N5        1.0  0.46394  0.96399  0.34101  1.0000
  C   C86       1.0  0.47023  0.93301  0.34255  1.0000
  C   C87       1.0  0.49938  0.91713  0.34076  1.0000
  N   N6        1.0  0.03484  0.96324  0.33939  1.0000
  C   C88       1.0  0.06576  0.96929  0.33808  1.0000
  C   C89       1.0  0.08048  0.94027  0.33693  1.0000
  C   C90       1.0  0.05783  0.91760  0.34008  1.0000
  C   C91       1.0  0.08088  0.99875  0.33645  1.0000
  C   C92       1.0  0.06492  0.52787  0.33495  1.0000
  N   N7        1.0  0.03394  0.53416  0.33749  1.0000
  C   C93       1.0  0.02762  0.56513  0.33380  1.0000
  C   C94       1.0  0.05670  0.57956  0.32714  1.0000
  C   C95       1.0  0.07942  0.55696  0.33054  1.0000
  N   N8        1.0  0.46301  0.53492  0.33869  1.0000
  C   C96       1.0  0.43208  0.52880  0.33887  1.0000
  C   C97       1.0  0.41693  0.99931  0.34059  1.0000
  C   C98       1.0  0.38349  0.99892  0.33853  1.0000
  C   C99       1.0  0.36575  0.51233  0.40805  1.0000
  C   C100      1.0  0.33309  0.51377  0.40252  1.0000
  C   C101      1.0  0.31668  0.99993  0.33061  1.0000
  C   C102      1.0  0.01275  0.63191  0.40258  1.0000
  C   C103      1.0  0.01460  0.66458  0.39791  1.0000
  C   C104      1.0  0.50074  0.68141  0.32685  1.0000
  C   C105      1.0  0.11427  0.99892  0.33465  1.0000
  C   C106      1.0  0.18162  0.99852  0.33035  1.0000
  C   C107      1.0  0.16444  0.98656  0.40398  1.0000
  C   C108      1.0  0.13172  0.98761  0.40749  1.0000
  C   C109      1.0  0.49920  0.88375  0.33823  1.0000
  C   C110      1.0  0.48809  0.86600  0.41072  1.0000
  C   C111      1.0  0.48716  0.83329  0.40619  1.0000
  C   C112      1.0  0.49915  0.81644  0.33197  1.0000
  H   H59       1.0  0.47713  0.82216  0.45894  1.0000
  H   H60       1.0  0.47961  0.87688  0.46645  1.0000
  H   H61       1.0  0.39523  0.93644  0.35258  1.0000
  H   H62       1.0  0.47969  0.97978  0.33654  1.0000
  H   H63       1.0  0.01819  0.51841  0.34326  1.0000
  H   H64       1.0  0.06237  0.89426  0.34121  1.0000
  H   H65       1.0  0.10380  0.93572  0.33448  1.0000
  H   H66       1.0  0.12062  0.97909  0.46280  1.0000
  H   H67       1.0  0.17530  0.97643  0.45701  1.0000
  H   H68       1.0  0.10272  0.56167  0.32854  1.0000
  H   H69       1.0  0.02275  0.62076  0.45572  1.0000
  H   H70       1.0  0.02633  0.67597  0.44753  1.0000
  H   H71       1.0  0.32139  0.52531  0.45192  1.0000
  H   H72       1.0  0.37661  0.52241  0.46155  1.0000
  C   C113      1.0  0.99607  0.73150  0.40426  1.0000
  C   C114      1.0  0.99611  0.76417  0.40706  1.0000
  H   H73       1.0  0.99204  0.71992  0.46282  1.0000
  H   H74       1.0  0.99368  0.77407  0.46847  1.0000
  C   C115      1.0  0.26622  0.49497  0.40582  1.0000
  C   C116      1.0  0.23355  0.49510  0.40733  1.0000
  H   H75       1.0  0.27752  0.49079  0.46475  1.0000
  H   H76       1.0  0.22337  0.49256  0.46832  1.0000
  C   C117      1.0  0.93295  0.47023  0.34303  1.0000
  C   C118      1.0  0.52882  0.43231  0.33989  1.0000
  C   C119      1.0  0.99849  0.08111  0.33537  1.0000
  C   C120      1.0  0.96906  0.06587  0.33789  1.0000
  C   C121      1.0  0.91739  0.05782  0.33661  1.0000
  C   C122      1.0  0.94002  0.08050  0.33945  1.0000
  C   C123      1.0  0.83458  0.48434  0.26499  1.0000
  C   C124      1.0  0.86732  0.48514  0.26649  1.0000
  C   C125      1.0  0.99880  0.11456  0.33311  1.0000
  C   C126      1.0  0.98492  0.16390  0.26079  1.0000
  C   C127      1.0  0.98529  0.13115  0.26141  1.0000
  C   C128      1.0  0.63069  0.00985  0.25943  1.0000
  C   C129      1.0  0.66344  0.01060  0.25887  1.0000
  C   C130      1.0  0.51036  0.36764  0.26272  1.0000
  C   C131      1.0  0.51122  0.33492  0.26113  1.0000
  H   H77       1.0  0.52144  0.32507  0.20666  1.0000
  H   H78       1.0  0.51897  0.37971  0.20922  1.0000
  H   H79       1.0  0.93643  0.39516  0.34633  1.0000
  H   H80       1.0  0.61885  0.01839  0.20543  1.0000
  H   H81       1.0  0.67353  0.02069  0.20457  1.0000
  H   H82       1.0  0.56138  0.10279  0.32151  1.0000
  H   H83       1.0  0.89409  0.06245  0.33503  1.0000
  H   H84       1.0  0.93536  0.10381  0.34013  1.0000
  H   H85       1.0  0.97468  0.11944  0.21028  1.0000
  H   H86       1.0  0.97331  0.17484  0.21018  1.0000
  H   H87       1.0  0.87932  0.47479  0.21547  1.0000
  H   H88       1.0  0.82395  0.47274  0.21382  1.0000
  C   C132      1.0  0.49946  0.28257  0.32914  1.0000
  C   C133      1.0  0.50387  0.26563  0.24870  1.0000
  C   C134      1.0  0.50667  0.23274  0.24516  1.0000
  C   C135      1.0  0.50153  0.21490  0.32419  1.0000
  H   H89       1.0  0.50574  0.27735  0.18977  1.0000
  C   C136      1.0  0.51687  0.21930  0.15817  1.0000
  H   H90       1.0  0.53543  0.23339  0.12895  1.0000
  H   H91       1.0  0.99727  0.21887  0.11188  1.0000
  H   H92       1.0  0.52627  0.19586  0.16469  1.0000
  C   C137      1.0  0.71551  0.99872  0.32878  1.0000
  C   C138      1.0  0.73285  0.00330  0.24911  1.0000
  C   C139      1.0  0.76576  0.00599  0.24692  1.0000
  C   C140      1.0  0.78321  0.00061  0.32653  1.0000
  H   H93       1.0  0.72142  0.00537  0.18979  1.0000
  C   C141      1.0  0.77969  0.01633  0.16067  1.0000
  H   H94       1.0  0.76560  0.03471  0.13049  1.0000
  H   H95       1.0  0.78068  0.49670  0.11451  1.0000
  H   H96       1.0  0.80297  0.02600  0.16861  1.0000
  C   C142      1.0  0.94114  0.41846  0.34548  1.0000
  C   C143      1.0  0.91850  0.44113  0.34838  1.0000
  N   N9        1.0  0.96394  0.46399  0.34101  1.0000
  C   C144      1.0  0.97023  0.43301  0.34255  1.0000
  C   C145      1.0  0.99938  0.41713  0.34076  1.0000
  N   N10       1.0  0.53484  0.46324  0.33939  1.0000
  C   C146      1.0  0.56576  0.46929  0.33808  1.0000
  C   C147      1.0  0.58047  0.44027  0.33693  1.0000
  C   C148      1.0  0.55783  0.41761  0.34008  1.0000
  C   C149      1.0  0.58088  0.49875  0.33645  1.0000
  C   C150      1.0  0.56493  0.02787  0.33495  1.0000
  N   N11       1.0  0.53394  0.03416  0.33749  1.0000
  C   C151      1.0  0.52762  0.06513  0.33380  1.0000
  C   C152      1.0  0.55670  0.07956  0.32714  1.0000
  C   C153      1.0  0.57942  0.05696  0.33054  1.0000
  N   N12       1.0  0.96301  0.03493  0.33869  1.0000
  C   C154      1.0  0.93208  0.02880  0.33887  1.0000
  C   C155      1.0  0.91693  0.49931  0.34059  1.0000
  C   C156      1.0  0.88349  0.49892  0.33853  1.0000
  C   C157      1.0  0.86575  0.01234  0.40805  1.0000
  C   C158      1.0  0.83309  0.01377  0.40252  1.0000
  C   C159      1.0  0.81668  0.49993  0.33061  1.0000
  C   C160      1.0  0.51275  0.13191  0.40258  1.0000
  C   C161      1.0  0.51460  0.16457  0.39791  1.0000
  C   C162      1.0  0.00074  0.18141  0.32685  1.0000
  C   C163      1.0  0.61427  0.49892  0.33465  1.0000
  C   C164      1.0  0.68162  0.49852  0.33035  1.0000
  C   C165      1.0  0.66444  0.48656  0.40398  1.0000
  C   C166      1.0  0.63172  0.48761  0.40749  1.0000
  C   C167      1.0  0.99920  0.38375  0.33823  1.0000
  C   C168      1.0  0.98809  0.36601  0.41072  1.0000
  C   C169      1.0  0.98716  0.33329  0.40619  1.0000
  C   C170      1.0  0.99915  0.31644  0.33197  1.0000
  H   H97       1.0  0.97714  0.32216  0.45894  1.0000
  H   H98       1.0  0.97961  0.37688  0.46645  1.0000
  H   H99       1.0  0.89523  0.43644  0.35258  1.0000
  H   H100      1.0  0.97969  0.47979  0.33654  1.0000
  H   H101      1.0  0.51819  0.01841  0.34326  1.0000
  H   H102      1.0  0.56237  0.39426  0.34121  1.0000
  H   H103      1.0  0.60380  0.43572  0.33448  1.0000
  H   H104      1.0  0.62062  0.47909  0.46280  1.0000
  H   H105      1.0  0.67530  0.47643  0.45701  1.0000
  H   H106      1.0  0.60272  0.06167  0.32854  1.0000
  H   H107      1.0  0.52275  0.12076  0.45572  1.0000
  H   H108      1.0  0.52633  0.17597  0.44753  1.0000
  H   H109      1.0  0.82139  0.02531  0.45192  1.0000
  H   H110      1.0  0.87661  0.02242  0.46155  1.0000
  C   C171      1.0  0.49607  0.23150  0.40426  1.0000
  C   C172      1.0  0.49611  0.26417  0.40706  1.0000
  H   H111      1.0  0.49204  0.21992  0.46282  1.0000
  H   H112      1.0  0.49368  0.27408  0.46847  1.0000
  C   C173      1.0  0.76622  0.99497  0.40582  1.0000
  C   C174      1.0  0.73355  0.99510  0.40733  1.0000
  H   H113      1.0  0.77752  0.99079  0.46475  1.0000
  H   H114      1.0  0.72337  0.99256  0.46832  1.0000
  C   C175      1.0  0.93295  0.97023  0.34303  1.0000
  C   C176      1.0  0.52882  0.93231  0.33989  1.0000
  C   C177      1.0  0.99849  0.58111  0.33537  1.0000
  C   C178      1.0  0.96906  0.56587  0.33789  1.0000
  C   C179      1.0  0.91739  0.55782  0.33661  1.0000
  C   C180      1.0  0.94002  0.58050  0.33945  1.0000
  C   C181      1.0  0.83458  0.98434  0.26499  1.0000
  C   C182      1.0  0.86732  0.98513  0.26649  1.0000
  C   C183      1.0  0.99880  0.61456  0.33311  1.0000
  C   C184      1.0  0.98492  0.66390  0.26079  1.0000
  C   C185      1.0  0.98529  0.63114  0.26141  1.0000
  C   C186      1.0  0.63069  0.50985  0.25943  1.0000
  C   C187      1.0  0.66344  0.51060  0.25887  1.0000
  C   C188      1.0  0.51036  0.86764  0.26272  1.0000
  C   C189      1.0  0.51122  0.83492  0.26113  1.0000
  H   H115      1.0  0.52144  0.82507  0.20666  1.0000
  H   H116      1.0  0.51897  0.87971  0.20922  1.0000
  H   H117      1.0  0.93643  0.89516  0.34633  1.0000
  H   H118      1.0  0.61885  0.51839  0.20543  1.0000
  H   H119      1.0  0.67353  0.52069  0.20457  1.0000
  H   H120      1.0  0.56138  0.60279  0.32151  1.0000
  H   H121      1.0  0.89409  0.56245  0.33503  1.0000
  H   H122      1.0  0.93536  0.60381  0.34013  1.0000
  H   H123      1.0  0.97468  0.61944  0.21028  1.0000
  H   H124      1.0  0.97331  0.67484  0.21018  1.0000
  H   H125      1.0  0.87932  0.97479  0.21547  1.0000
  H   H126      1.0  0.82395  0.97274  0.21382  1.0000
  C   C190      1.0  0.49946  0.78257  0.32914  1.0000
  C   C191      1.0  0.50387  0.76563  0.24870  1.0000
  C   C192      1.0  0.50667  0.73274  0.24516  1.0000
  C   C193      1.0  0.50153  0.71490  0.32419  1.0000
  H   H127      1.0  0.50574  0.77734  0.18977  1.0000
  C   C194      1.0  0.51687  0.71930  0.15817  1.0000
  H   H128      1.0  0.53543  0.73339  0.12895  1.0000
  H   H129      1.0  0.99727  0.71887  0.11188  1.0000
  H   H130      1.0  0.52627  0.69585  0.16469  1.0000
  C   C195      1.0  0.71551  0.49872  0.32878  1.0000
  C   C196      1.0  0.73285  0.50331  0.24911  1.0000
  C   C197      1.0  0.76576  0.50599  0.24692  1.0000
  C   C198      1.0  0.78321  0.50061  0.32653  1.0000
  H   H131      1.0  0.72142  0.50537  0.18979  1.0000
  C   C199      1.0  0.77969  0.51633  0.16067  1.0000
  H   H132      1.0  0.76560  0.53470  0.13049  1.0000
  H   H133      1.0  0.78068  0.99670  0.11451  1.0000
  H   H134      1.0  0.80297  0.52600  0.16861  1.0000
  C   C200      1.0  0.94114  0.91846  0.34548  1.0000
  C   C201      1.0  0.91850  0.94113  0.34838  1.0000
  N   N13       1.0  0.96394  0.96399  0.34101  1.0000
  C   C202      1.0  0.97023  0.93301  0.34255  1.0000
  C   C203      1.0  0.99938  0.91713  0.34076  1.0000
  N   N14       1.0  0.53484  0.96324  0.33939  1.0000
  C   C204      1.0  0.56576  0.96929  0.33808  1.0000
  C   C205      1.0  0.58047  0.94027  0.33693  1.0000
  C   C206      1.0  0.55783  0.91760  0.34008  1.0000
  C   C207      1.0  0.58088  0.99875  0.33645  1.0000
  C   C208      1.0  0.56493  0.52787  0.33495  1.0000
  N   N15       1.0  0.53394  0.53416  0.33749  1.0000
  C   C209      1.0  0.52762  0.56513  0.33380  1.0000
  C   C210      1.0  0.55670  0.57956  0.32714  1.0000
  C   C211      1.0  0.57942  0.55696  0.33054  1.0000
  N   N16       1.0  0.96301  0.53492  0.33869  1.0000
  C   C212      1.0  0.93208  0.52880  0.33887  1.0000
  C   C213      1.0  0.91693  0.99931  0.34059  1.0000
  C   C214      1.0  0.88349  0.99892  0.33853  1.0000
  C   C215      1.0  0.86575  0.51233  0.40805  1.0000
  C   C216      1.0  0.83309  0.51377  0.40252  1.0000
  C   C217      1.0  0.81668  0.99993  0.33061  1.0000
  C   C218      1.0  0.51275  0.63191  0.40258  1.0000
  C   C219      1.0  0.51460  0.66458  0.39791  1.0000
  C   C220      1.0  0.00074  0.68141  0.32685  1.0000
  C   C221      1.0  0.61427  0.99892  0.33465  1.0000
  C   C222      1.0  0.68162  0.99852  0.33035  1.0000
  C   C223      1.0  0.66444  0.98656  0.40398  1.0000
  C   C224      1.0  0.63172  0.98761  0.40749  1.0000
  C   C225      1.0  0.99920  0.88375  0.33823  1.0000
  C   C226      1.0  0.98809  0.86600  0.41072  1.0000
  C   C227      1.0  0.98716  0.83329  0.40619  1.0000
  C   C228      1.0  0.99915  0.81644  0.33197  1.0000
  H   H135      1.0  0.97714  0.82216  0.45894  1.0000
  H   H136      1.0  0.97961  0.87688  0.46645  1.0000
  H   H137      1.0  0.89523  0.93644  0.35258  1.0000
  H   H138      1.0  0.97969  0.97978  0.33654  1.0000
  H   H139      1.0  0.51819  0.51841  0.34326  1.0000
  H   H140      1.0  0.56237  0.89426  0.34121  1.0000
  H   H141      1.0  0.60380  0.93572  0.33448  1.0000
  H   H142      1.0  0.62062  0.97909  0.46280  1.0000
  H   H143      1.0  0.67530  0.97643  0.45701  1.0000
  H   H144      1.0  0.60272  0.56167  0.32854  1.0000
  H   H145      1.0  0.52275  0.62076  0.45572  1.0000
  H   H146      1.0  0.52633  0.67597  0.44753  1.0000
  H   H147      1.0  0.82139  0.52531  0.45192  1.0000
  H   H148      1.0  0.87661  0.52241  0.46155  1.0000
  C   C229      1.0  0.49607  0.73150  0.40426  1.0000
  C   C230      1.0  0.49611  0.76417  0.40706  1.0000
  H   H149      1.0  0.49204  0.71992  0.46282  1.0000
  H   H150      1.0  0.49368  0.77407  0.46847  1.0000
  C   C231      1.0  0.76622  0.49497  0.40582  1.0000
  C   C232      1.0  0.73355  0.49510  0.40733  1.0000
  H   H151      1.0  0.77752  0.49079  0.46475  1.0000
  H   H152      1.0  0.72337  0.49256  0.46832  1.0000
