data_image0
_chemical_formula_structural       C8H5CN2HNC8H5CN2HNC3O2H2CHC3O2H2CHC3O2H2CHC10H6CNCN2C10H6CNCN2C3OHOHCHC3OHOHCHC3OHOHCH
_chemical_formula_sum              "C66 H42 N12 O12"
_cell_length_a       37.0916
_cell_length_b       37.0916
_cell_length_c       14.7347
_cell_angle_alpha    90
_cell_angle_beta     90
_cell_angle_gamma    120

_space_group_name_H-M_alt    "P 1"
_space_group_IT_number       1

loop_
  _space_group_symop_operation_xyz
  'x, y, z'

loop_
  _atom_site_type_symbol
  _atom_site_label
  _atom_site_symmetry_multiplicity
  _atom_site_fract_x
  _atom_site_fract_y
  _atom_site_fract_z
  _atom_site_occupancy
  C   C1        1.0  0.38886  0.63015  0.35025  1.0000
  C   C2        1.0  0.43613  0.78534  0.33756  1.0000
  C   C3        1.0  0.45885  0.82919  0.33595  1.0000
  C   C4        1.0  0.19160  0.56877  0.36072  1.0000
  C   C5        1.0  0.23544  0.58987  0.36156  1.0000
  C   C6        1.0  0.36722  0.58638  0.33757  1.0000
  C   C7        1.0  0.38836  0.56366  0.33595  1.0000
  C   C8        1.0  0.43184  0.58365  0.34844  1.0000
  H   H1        1.0  0.49039  0.84396  0.32590  1.0000
  H   H2        1.0  0.24972  0.57262  0.37070  1.0000
  H   H3        1.0  0.17575  0.53711  0.36789  1.0000
  H   H4        1.0  0.33566  0.57040  0.32812  1.0000
  H   H5        1.0  0.37158  0.53212  0.32590  1.0000
  C   C9        1.0  0.36749  0.65330  0.35072  1.0000
  N   N1        1.0  0.32517  0.63399  0.35069  1.0000
  N   N2        1.0  0.38852  0.69568  0.35069  1.0000
  H   H6        1.0  0.45212  0.76976  0.32814  1.0000
  N   N3        1.0  0.44989  0.56024  0.34447  1.0000
  C   C10       1.0  0.63815  0.38786  0.35303  1.0000
  C   C11       1.0  0.59087  0.23267  0.36570  1.0000
  C   C12       1.0  0.56815  0.18882  0.36734  1.0000
  C   C13       1.0  0.83541  0.44923  0.34259  1.0000
  C   C14       1.0  0.79157  0.42813  0.34174  1.0000
  C   C15       1.0  0.65979  0.43163  0.36570  1.0000
  C   C16       1.0  0.63866  0.45435  0.36733  1.0000
  C   C17       1.0  0.59518  0.43437  0.35484  1.0000
  H   H7        1.0  0.53661  0.17405  0.37738  1.0000
  H   H8        1.0  0.77729  0.44539  0.33262  1.0000
  H   H9        1.0  0.85126  0.48089  0.33545  1.0000
  H   H10       1.0  0.69135  0.44761  0.37515  1.0000
  H   H11       1.0  0.65544  0.48589  0.37737  1.0000
  C   C18       1.0  0.65952  0.36471  0.35255  1.0000
  N   N4        1.0  0.70184  0.38402  0.35260  1.0000
  N   N5        1.0  0.63848  0.32233  0.35259  1.0000
  H   H12       1.0  0.57488  0.24825  0.37510  1.0000
  N   N6        1.0  0.57713  0.45777  0.35881  1.0000
  C   C19       1.0  0.52924  0.48101  0.34041  1.0000
  C   C20       1.0  0.51431  0.49345  0.26494  1.0000
  C   C21       1.0  0.49894  0.52127  0.27589  1.0000
  O   O1        1.0  0.51612  0.48021  0.17958  1.0000
  O   O2        1.0  0.48695  0.53398  0.20066  1.0000
  H   H13       1.0  0.48875  0.45553  0.16809  1.0000
  H   H14       1.0  0.45783  0.51263  0.18901  1.0000
  C   C22       1.0  0.54194  0.45181  0.32896  1.0000
  H   H15       1.0  0.52348  0.42616  0.29389  1.0000
  C   C23       1.0  0.54147  0.05273  0.34047  1.0000
  C   C24       1.0  0.52904  0.02536  0.26499  1.0000
  C   C25       1.0  0.50123  0.98218  0.27594  1.0000
  O   O3        1.0  0.54228  0.04043  0.17964  1.0000
  O   O4        1.0  0.48851  0.95749  0.20068  1.0000
  H   H16       1.0  0.56696  0.03774  0.16813  1.0000
  H   H17       1.0  0.50987  0.94972  0.18902  1.0000
  C   C26       1.0  0.57069  0.09463  0.32906  1.0000
  H   H18       1.0  0.59635  0.10182  0.29407  1.0000
  C   C27       1.0  0.96977  0.49325  0.34047  1.0000
  C   C28       1.0  0.99713  0.50817  0.26497  1.0000
  C   C29       1.0  0.04031  0.52356  0.27589  1.0000
  O   O5        1.0  0.98204  0.50634  0.17964  1.0000
  O   O6        1.0  0.06499  0.53552  0.20061  1.0000
  H   H19       1.0  0.98474  0.53372  0.16812  1.0000
  H   H20       1.0  0.07278  0.56465  0.18897  1.0000
  C   C30       1.0  0.92787  0.48058  0.32910  1.0000
  H   H21       1.0  0.92068  0.49905  0.29409  1.0000
  C   C31       1.0  0.25930  0.63365  0.35023  1.0000
  C   C32       1.0  0.39236  0.76321  0.35024  1.0000
  C   C33       1.0  0.43886  0.85269  0.34841  1.0000
  C   C34       1.0  0.39518  0.83091  0.36073  1.0000
  C   C35       1.0  0.37244  0.78707  0.36157  1.0000
  C   C36       1.0  0.23717  0.65529  0.33754  1.0000
  C   C37       1.0  0.19332  0.63416  0.33591  1.0000
  C   C38       1.0  0.16982  0.59067  0.34833  1.0000
  C   C39       1.0  0.45374  0.62733  0.36073  1.0000
  C   C40       1.0  0.43264  0.65007  0.36159  1.0000
  H   H22       1.0  0.37937  0.84676  0.36793  1.0000
  H   H23       1.0  0.34090  0.77279  0.37071  1.0000
  H   H24       1.0  0.25275  0.68686  0.32816  1.0000
  H   H25       1.0  0.17856  0.65094  0.32588  1.0000
  H   H26       1.0  0.48540  0.64314  0.36795  1.0000
  H   H27       1.0  0.44990  0.68161  0.37072  1.0000
  C   C41       1.0  0.30382  0.65502  0.35072  1.0000
  N   N7        1.0  0.32683  0.69734  0.35068  1.0000
  C   C42       1.0  0.36921  0.71869  0.35072  1.0000
  N   N8        1.0  0.12837  0.57263  0.34443  1.0000
  N   N9        1.0  0.46226  0.89414  0.34447  1.0000
  C   C43       1.0  0.76771  0.38435  0.35305  1.0000
  C   C44       1.0  0.63464  0.25480  0.35303  1.0000
  C   C45       1.0  0.58814  0.16532  0.35493  1.0000
  C   C46       1.0  0.63181  0.18709  0.34256  1.0000
  C   C47       1.0  0.65456  0.23093  0.34172  1.0000
  C   C48       1.0  0.78983  0.36271  0.36571  1.0000
  C   C49       1.0  0.83368  0.38384  0.36734  1.0000
  C   C50       1.0  0.85718  0.42733  0.35495  1.0000
  C   C51       1.0  0.57327  0.39068  0.34254  1.0000
  C   C52       1.0  0.59437  0.36794  0.34169  1.0000
  H   H28       1.0  0.64763  0.17124  0.33541  1.0000
  H   H29       1.0  0.68610  0.24521  0.33259  1.0000
  H   H30       1.0  0.77425  0.33114  0.37508  1.0000
  H   H31       1.0  0.84845  0.36706  0.37737  1.0000
  H   H32       1.0  0.54161  0.37487  0.33534  1.0000
  H   H33       1.0  0.57711  0.33640  0.33256  1.0000
  C   C53       1.0  0.72319  0.36298  0.35256  1.0000
  N   N10       1.0  0.70017  0.32066  0.35260  1.0000
  C   C54       1.0  0.65779  0.29931  0.35256  1.0000
  N   N11       1.0  0.89864  0.44537  0.35887  1.0000
  N   N12       1.0  0.56473  0.12386  0.35885  1.0000
  C   C55       1.0  0.49779  0.53701  0.36288  1.0000
  C   C56       1.0  0.51271  0.52456  0.43836  1.0000
  C   C57       1.0  0.52807  0.49675  0.42740  1.0000
  O   O7        1.0  0.54007  0.48403  0.50264  1.0000
  H   H34       1.0  0.56919  0.50539  0.51428  1.0000
  O   O8        1.0  0.51090  0.53781  0.52371  1.0000
  H   H35       1.0  0.53827  0.56249  0.53520  1.0000
  C   C58       1.0  0.48508  0.56621  0.37432  1.0000
  H   H36       1.0  0.50353  0.59186  0.40939  1.0000
  C   C59       1.0  0.48550  0.96527  0.36293  1.0000
  C   C60       1.0  0.49795  0.99264  0.43841  1.0000
  C   C61       1.0  0.52576  0.03582  0.42747  1.0000
  O   O9        1.0  0.53848  0.06051  0.50272  1.0000
  H   H37       1.0  0.51714  0.06829  0.51438  1.0000
  O   O10       1.0  0.48472  0.97757  0.52376  1.0000
  H   H38       1.0  0.46004  0.98025  0.53531  1.0000
  C   C62       1.0  0.45630  0.92337  0.37434  1.0000
  H   H39       1.0  0.43065  0.91616  0.40943  1.0000
  C   C63       1.0  0.05723  0.52474  0.36286  1.0000
  C   C64       1.0  0.02988  0.50982  0.43836  1.0000
  C   C65       1.0  0.98670  0.49445  0.42745  1.0000
  O   O11       1.0  0.96201  0.48248  0.50272  1.0000
  H   H40       1.0  0.95423  0.45335  0.51436  1.0000
  O   O12       1.0  0.04496  0.51166  0.52370  1.0000
  H   H41       1.0  0.04228  0.48429  0.53523  1.0000
  C   C66       1.0  0.09914  0.53743  0.37425  1.0000
  H   H42       1.0  0.10633  0.51896  0.40924  1.0000
