data_image0
_chemical_formula_structural       C2HC2HN2C3HC6HO2CHC3HC6HO2CHC4OC4OH4N2C2NCHNHCHC2NCHNHCHC2HC2HN2C3HC6HO2CHC3HC6HO2CHC4OC4OH4N2C2NCHNHCHC2NCHNHCHC2HC2HN2C3HC6HO2CHC3HC6HO2CHC4OC4OH4N2C2NCHNHCHC2NCHNHCHC2HC2HN2C3HC6HO2CHC3HC6HO2CHC4OC4OH4N2C2NCHNHCHC2NCHNHCH
_chemical_formula_sum              "C160 H72 N32 O24"
_cell_length_a       39.0848
_cell_length_b       39.0848
_cell_length_c       15.0718
_cell_angle_alpha    90
_cell_angle_beta     90
_cell_angle_gamma    90

_space_group_name_H-M_alt    "P 1"
_space_group_IT_number       1

loop_
  _space_group_symop_operation_xyz
  'x, y, z'

loop_
  _atom_site_type_symbol
  _atom_site_label
  _atom_site_symmetry_multiplicity
  _atom_site_fract_x
  _atom_site_fract_y
  _atom_site_fract_z
  _atom_site_occupancy
  C   C1        1.0  0.49768  0.44332  0.29687  1.0000
  C   C2        1.0  0.47197  0.41792  0.29701  1.0000
  H   H1        1.0  0.02213  0.43591  0.28315  1.0000
  C   C3        1.0  0.03286  0.06460  0.27471  1.0000
  C   C4        1.0  0.00794  0.03851  0.27690  1.0000
  H   H2        1.0  0.48411  0.04430  0.25394  1.0000
  N   N1        1.0  0.02617  0.09735  0.25160  1.0000
  N   N2        1.0  0.47806  0.38432  0.28291  1.0000
  C   C5        1.0  0.50014  0.25829  0.22877  1.0000
  C   C6        1.0  0.96926  0.27740  0.22937  1.0000
  C   C7        1.0  0.97150  0.31308  0.24323  1.0000
  H   H3        1.0  0.94946  0.32719  0.24495  1.0000
  C   C8        1.0  0.49913  0.22239  0.22042  1.0000
  C   C9        1.0  0.49853  0.15038  0.21772  1.0000
  C   C10       1.0  0.46768  0.16895  0.20813  1.0000
  C   C11       1.0  0.46736  0.20512  0.21107  1.0000
  C   C12       1.0  0.93674  0.22440  0.20841  1.0000
  C   C13       1.0  0.93767  0.26026  0.21800  1.0000
  H   H4        1.0  0.94497  0.15595  0.20447  1.0000
  O   O1        1.0  0.90596  0.20881  0.19962  1.0000
  O   O2        1.0  0.90773  0.27774  0.21784  1.0000
  C   C14       1.0  0.99783  0.11452  0.22636  1.0000
  H   H5        1.0  0.97492  0.10193  0.22390  1.0000
  C   C15       1.0  0.23493  0.49899  0.38642  1.0000
  C   C16       1.0  0.21574  0.02965  0.37800  1.0000
  C   C17       1.0  0.17971  0.02706  0.37792  1.0000
  H   H6        1.0  0.16550  0.04879  0.36925  1.0000
  C   C18       1.0  0.27088  0.49988  0.38003  1.0000
  C   C19       1.0  0.34242  0.49948  0.35900  1.0000
  C   C20       1.0  0.32417  0.53074  0.35826  1.0000
  C   C21       1.0  0.28818  0.53146  0.36725  1.0000
  C   C22       1.0  0.26900  0.06209  0.36193  1.0000
  C   C23       1.0  0.23301  0.06117  0.36680  1.0000
  H   H7        1.0  0.33715  0.05315  0.34795  1.0000
  O   O3        1.0  0.28463  0.09264  0.34902  1.0000
  O   O4        1.0  0.21544  0.09089  0.35855  1.0000
  C   C24       1.0  0.37804  0.99926  0.34555  1.0000
  H   H8        1.0  0.39062  0.02199  0.33794  1.0000
  C   C25       1.0  0.48989  0.47862  0.30645  1.0000
  C   C26       1.0  0.43754  0.42753  0.30976  1.0000
  C   C27       1.0  0.42885  0.46219  0.32220  1.0000
  C   C28       1.0  0.45491  0.48713  0.31921  1.0000
  O   O5        1.0  0.41258  0.40311  0.31228  1.0000
  C   C29       1.0  0.01567  0.00450  0.30363  1.0000
  C   C30       1.0  0.05015  0.99771  0.32761  1.0000
  C   C31       1.0  0.07537  0.02355  0.32743  1.0000
  C   C32       1.0  0.06656  0.05703  0.30125  1.0000
  O   O6        1.0  0.09097  0.08204  0.29916  1.0000
  H   H9        1.0  0.40442  0.40043  0.25094  1.0000
  H   H10       1.0  0.09086  0.09272  0.35825  1.0000
  H   H11       1.0  0.44829  0.01179  0.33277  1.0000
  H   H12       1.0  0.05691  0.47411  0.35054  1.0000
  N   N3        1.0  0.10837  0.01834  0.35002  1.0000
  N   N4        1.0  0.39547  0.46963  0.33612  1.0000
  C   C33       1.0  0.50348  0.32957  0.25507  1.0000
  C   C34       1.0  0.53314  0.30902  0.25098  1.0000
  N   N5        1.0  0.53049  0.27476  0.23931  1.0000
  C   C35       1.0  0.52925  0.16937  0.22397  1.0000
  H   H13       1.0  0.55698  0.31932  0.25914  1.0000
  N   N6        1.0  0.52849  0.20396  0.22564  1.0000
  H   H14       1.0  0.55247  0.15763  0.23053  1.0000
  C   C36       1.0  0.50627  0.36499  0.27078  1.0000
  H   H15       1.0  0.52991  0.37604  0.27589  1.0000
  C   C37       1.0  0.16303  0.49500  0.38591  1.0000
  C   C38       1.0  0.18378  0.46586  0.39876  1.0000
  N   N7        1.0  0.21831  0.46872  0.39706  1.0000
  C   C39       1.0  0.32346  0.46910  0.37223  1.0000
  H   H16       1.0  0.17335  0.44197  0.40461  1.0000
  N   N8        1.0  0.28908  0.47032  0.38216  1.0000
  H   H17       1.0  0.33504  0.44567  0.37406  1.0000
  C   C40       1.0  0.12737  0.49141  0.37636  1.0000
  H   H18       1.0  0.11630  0.46775  0.38090  1.0000
  C   C41       1.0  0.49768  0.94332  0.29687  1.0000
  C   C42       1.0  0.47197  0.91792  0.29701  1.0000
  H   H19       1.0  0.02213  0.93591  0.28315  1.0000
  C   C43       1.0  0.03286  0.56460  0.27471  1.0000
  C   C44       1.0  0.00794  0.53851  0.27690  1.0000
  H   H20       1.0  0.48411  0.54430  0.25394  1.0000
  N   N9        1.0  0.02617  0.59735  0.25160  1.0000
  N   N10       1.0  0.47806  0.88432  0.28291  1.0000
  C   C45       1.0  0.50014  0.75829  0.22877  1.0000
  C   C46       1.0  0.96926  0.77740  0.22937  1.0000
  C   C47       1.0  0.97150  0.81308  0.24323  1.0000
  H   H21       1.0  0.94946  0.82719  0.24495  1.0000
  C   C48       1.0  0.49913  0.72239  0.22042  1.0000
  C   C49       1.0  0.49853  0.65038  0.21772  1.0000
  C   C50       1.0  0.46768  0.66895  0.20813  1.0000
  C   C51       1.0  0.46736  0.70512  0.21107  1.0000
  C   C52       1.0  0.93674  0.72439  0.20841  1.0000
  C   C53       1.0  0.93767  0.76026  0.21800  1.0000
  H   H22       1.0  0.94497  0.65595  0.20447  1.0000
  O   O7        1.0  0.90596  0.70881  0.19962  1.0000
  O   O8        1.0  0.90773  0.77774  0.21784  1.0000
  C   C54       1.0  0.99783  0.61452  0.22636  1.0000
  H   H23       1.0  0.97492  0.60193  0.22390  1.0000
  C   C55       1.0  0.23493  0.99899  0.38642  1.0000
  C   C56       1.0  0.21574  0.52965  0.37800  1.0000
  C   C57       1.0  0.17971  0.52706  0.37792  1.0000
  H   H24       1.0  0.16550  0.54879  0.36925  1.0000
  C   C58       1.0  0.27088  0.99988  0.38003  1.0000
  C   C59       1.0  0.34242  0.99948  0.35900  1.0000
  C   C60       1.0  0.32417  0.03074  0.35826  1.0000
  C   C61       1.0  0.28818  0.03147  0.36725  1.0000
  C   C62       1.0  0.26900  0.56209  0.36193  1.0000
  C   C63       1.0  0.23301  0.56117  0.36680  1.0000
  H   H25       1.0  0.33715  0.55315  0.34795  1.0000
  O   O9        1.0  0.28463  0.59264  0.34902  1.0000
  O   O10       1.0  0.21544  0.59089  0.35855  1.0000
  C   C64       1.0  0.37804  0.49926  0.34555  1.0000
  H   H26       1.0  0.39062  0.52199  0.33794  1.0000
  C   C65       1.0  0.48989  0.97862  0.30645  1.0000
  C   C66       1.0  0.43754  0.92753  0.30976  1.0000
  C   C67       1.0  0.42885  0.96219  0.32220  1.0000
  C   C68       1.0  0.45491  0.98713  0.31921  1.0000
  O   O11       1.0  0.41258  0.90311  0.31228  1.0000
  C   C69       1.0  0.01567  0.50450  0.30363  1.0000
  C   C70       1.0  0.05015  0.49771  0.32761  1.0000
  C   C71       1.0  0.07537  0.52355  0.32743  1.0000
  C   C72       1.0  0.06656  0.55703  0.30125  1.0000
  O   O12       1.0  0.09097  0.58204  0.29916  1.0000
  H   H27       1.0  0.40442  0.90043  0.25094  1.0000
  H   H28       1.0  0.09086  0.59272  0.35825  1.0000
  H   H29       1.0  0.44829  0.51179  0.33277  1.0000
  H   H30       1.0  0.05691  0.97411  0.35054  1.0000
  N   N11       1.0  0.10837  0.51834  0.35002  1.0000
  N   N12       1.0  0.39547  0.96964  0.33612  1.0000
  C   C73       1.0  0.50348  0.82957  0.25507  1.0000
  C   C74       1.0  0.53314  0.80902  0.25098  1.0000
  N   N13       1.0  0.53049  0.77476  0.23931  1.0000
  C   C75       1.0  0.52925  0.66938  0.22397  1.0000
  H   H31       1.0  0.55698  0.81932  0.25914  1.0000
  N   N14       1.0  0.52849  0.70396  0.22564  1.0000
  H   H32       1.0  0.55247  0.65763  0.23053  1.0000
  C   C76       1.0  0.50627  0.86499  0.27078  1.0000
  H   H33       1.0  0.52991  0.87604  0.27589  1.0000
  C   C77       1.0  0.16303  0.99500  0.38591  1.0000
  C   C78       1.0  0.18378  0.96586  0.39876  1.0000
  N   N15       1.0  0.21831  0.96872  0.39706  1.0000
  C   C79       1.0  0.32346  0.96909  0.37223  1.0000
  H   H34       1.0  0.17335  0.94197  0.40461  1.0000
  N   N16       1.0  0.28908  0.97032  0.38216  1.0000
  H   H35       1.0  0.33504  0.94567  0.37406  1.0000
  C   C80       1.0  0.12737  0.99141  0.37636  1.0000
  H   H36       1.0  0.11630  0.96776  0.38090  1.0000
  C   C81       1.0  0.99768  0.44332  0.29687  1.0000
  C   C82       1.0  0.97197  0.41792  0.29701  1.0000
  H   H37       1.0  0.52213  0.43591  0.28315  1.0000
  C   C83       1.0  0.53286  0.06460  0.27471  1.0000
  C   C84       1.0  0.50794  0.03851  0.27690  1.0000
  H   H38       1.0  0.98411  0.04430  0.25394  1.0000
  N   N17       1.0  0.52617  0.09735  0.25160  1.0000
  N   N18       1.0  0.97806  0.38432  0.28291  1.0000
  C   C85       1.0  0.00014  0.25829  0.22877  1.0000
  C   C86       1.0  0.46926  0.27740  0.22937  1.0000
  C   C87       1.0  0.47150  0.31308  0.24323  1.0000
  H   H39       1.0  0.44946  0.32719  0.24495  1.0000
  C   C88       1.0  0.99913  0.22239  0.22042  1.0000
  C   C89       1.0  0.99853  0.15038  0.21772  1.0000
  C   C90       1.0  0.96768  0.16895  0.20813  1.0000
  C   C91       1.0  0.96736  0.20512  0.21107  1.0000
  C   C92       1.0  0.43674  0.22440  0.20841  1.0000
  C   C93       1.0  0.43767  0.26026  0.21800  1.0000
  H   H40       1.0  0.44497  0.15595  0.20447  1.0000
  O   O13       1.0  0.40596  0.20881  0.19962  1.0000
  O   O14       1.0  0.40773  0.27774  0.21784  1.0000
  C   C94       1.0  0.49783  0.11452  0.22636  1.0000
  H   H41       1.0  0.47492  0.10193  0.22390  1.0000
  C   C95       1.0  0.73493  0.49899  0.38642  1.0000
  C   C96       1.0  0.71574  0.02965  0.37800  1.0000
  C   C97       1.0  0.67971  0.02706  0.37792  1.0000
  H   H42       1.0  0.66550  0.04879  0.36925  1.0000
  C   C98       1.0  0.77087  0.49988  0.38003  1.0000
  C   C99       1.0  0.84241  0.49948  0.35900  1.0000
  C   C100      1.0  0.82417  0.53074  0.35826  1.0000
  C   C101      1.0  0.78818  0.53146  0.36725  1.0000
  C   C102      1.0  0.76901  0.06209  0.36193  1.0000
  C   C103      1.0  0.73301  0.06117  0.36680  1.0000
  H   H43       1.0  0.83715  0.05315  0.34795  1.0000
  O   O15       1.0  0.78463  0.09264  0.34902  1.0000
  O   O16       1.0  0.71544  0.09089  0.35855  1.0000
  C   C104      1.0  0.87804  0.99926  0.34555  1.0000
  H   H44       1.0  0.89062  0.02199  0.33794  1.0000
  C   C105      1.0  0.98989  0.47862  0.30645  1.0000
  C   C106      1.0  0.93754  0.42753  0.30976  1.0000
  C   C107      1.0  0.92885  0.46219  0.32220  1.0000
  C   C108      1.0  0.95491  0.48713  0.31921  1.0000
  O   O17       1.0  0.91258  0.40311  0.31228  1.0000
  C   C109      1.0  0.51567  0.00450  0.30363  1.0000
  C   C110      1.0  0.55015  0.99771  0.32761  1.0000
  C   C111      1.0  0.57537  0.02355  0.32743  1.0000
  C   C112      1.0  0.56656  0.05703  0.30125  1.0000
  O   O18       1.0  0.59097  0.08204  0.29916  1.0000
  H   H45       1.0  0.90442  0.40043  0.25094  1.0000
  H   H46       1.0  0.59086  0.09272  0.35825  1.0000
  H   H47       1.0  0.94829  0.01179  0.33277  1.0000
  H   H48       1.0  0.55691  0.47411  0.35054  1.0000
  N   N19       1.0  0.60837  0.01834  0.35002  1.0000
  N   N20       1.0  0.89546  0.46963  0.33612  1.0000
  C   C113      1.0  0.00348  0.32957  0.25507  1.0000
  C   C114      1.0  0.03315  0.30902  0.25098  1.0000
  N   N21       1.0  0.03049  0.27476  0.23931  1.0000
  C   C115      1.0  0.02925  0.16937  0.22397  1.0000
  H   H49       1.0  0.05699  0.31932  0.25914  1.0000
  N   N22       1.0  0.02849  0.20396  0.22564  1.0000
  H   H50       1.0  0.05247  0.15763  0.23053  1.0000
  C   C116      1.0  0.00627  0.36499  0.27078  1.0000
  H   H51       1.0  0.02991  0.37604  0.27589  1.0000
  C   C117      1.0  0.66303  0.49500  0.38591  1.0000
  C   C118      1.0  0.68378  0.46586  0.39876  1.0000
  N   N23       1.0  0.71831  0.46872  0.39706  1.0000
  C   C119      1.0  0.82346  0.46910  0.37223  1.0000
  H   H52       1.0  0.67335  0.44197  0.40461  1.0000
  N   N24       1.0  0.78909  0.47032  0.38216  1.0000
  H   H53       1.0  0.83504  0.44567  0.37406  1.0000
  C   C120      1.0  0.62737  0.49141  0.37636  1.0000
  H   H54       1.0  0.61630  0.46775  0.38090  1.0000
  C   C121      1.0  0.99768  0.94332  0.29687  1.0000
  C   C122      1.0  0.97197  0.91792  0.29701  1.0000
  H   H55       1.0  0.52213  0.93591  0.28315  1.0000
  C   C123      1.0  0.53286  0.56460  0.27471  1.0000
  C   C124      1.0  0.50794  0.53851  0.27690  1.0000
  H   H56       1.0  0.98411  0.54430  0.25394  1.0000
  N   N25       1.0  0.52617  0.59735  0.25160  1.0000
  N   N26       1.0  0.97806  0.88432  0.28291  1.0000
  C   C125      1.0  0.00014  0.75829  0.22877  1.0000
  C   C126      1.0  0.46926  0.77740  0.22937  1.0000
  C   C127      1.0  0.47150  0.81308  0.24323  1.0000
  H   H57       1.0  0.44946  0.82719  0.24495  1.0000
  C   C128      1.0  0.99913  0.72239  0.22042  1.0000
  C   C129      1.0  0.99853  0.65038  0.21772  1.0000
  C   C130      1.0  0.96768  0.66895  0.20813  1.0000
  C   C131      1.0  0.96736  0.70512  0.21107  1.0000
  C   C132      1.0  0.43674  0.72439  0.20841  1.0000
  C   C133      1.0  0.43767  0.76026  0.21800  1.0000
  H   H58       1.0  0.44497  0.65595  0.20447  1.0000
  O   O19       1.0  0.40596  0.70881  0.19962  1.0000
  O   O20       1.0  0.40773  0.77774  0.21784  1.0000
  C   C134      1.0  0.49783  0.61452  0.22636  1.0000
  H   H59       1.0  0.47492  0.60193  0.22390  1.0000
  C   C135      1.0  0.73493  0.99899  0.38642  1.0000
  C   C136      1.0  0.71574  0.52965  0.37800  1.0000
  C   C137      1.0  0.67971  0.52706  0.37792  1.0000
  H   H60       1.0  0.66550  0.54879  0.36925  1.0000
  C   C138      1.0  0.77087  0.99988  0.38003  1.0000
  C   C139      1.0  0.84241  0.99948  0.35900  1.0000
  C   C140      1.0  0.82417  0.03074  0.35826  1.0000
  C   C141      1.0  0.78818  0.03147  0.36725  1.0000
  C   C142      1.0  0.76901  0.56209  0.36193  1.0000
  C   C143      1.0  0.73301  0.56117  0.36680  1.0000
  H   H61       1.0  0.83715  0.55315  0.34795  1.0000
  O   O21       1.0  0.78463  0.59264  0.34902  1.0000
  O   O22       1.0  0.71544  0.59089  0.35855  1.0000
  C   C144      1.0  0.87804  0.49926  0.34555  1.0000
  H   H62       1.0  0.89062  0.52199  0.33794  1.0000
  C   C145      1.0  0.98989  0.97862  0.30645  1.0000
  C   C146      1.0  0.93754  0.92753  0.30976  1.0000
  C   C147      1.0  0.92885  0.96219  0.32220  1.0000
  C   C148      1.0  0.95491  0.98713  0.31921  1.0000
  O   O23       1.0  0.91258  0.90311  0.31228  1.0000
  C   C149      1.0  0.51567  0.50450  0.30363  1.0000
  C   C150      1.0  0.55015  0.49771  0.32761  1.0000
  C   C151      1.0  0.57537  0.52355  0.32743  1.0000
  C   C152      1.0  0.56656  0.55703  0.30125  1.0000
  O   O24       1.0  0.59097  0.58204  0.29916  1.0000
  H   H63       1.0  0.90442  0.90043  0.25094  1.0000
  H   H64       1.0  0.59086  0.59272  0.35825  1.0000
  H   H65       1.0  0.94829  0.51179  0.33277  1.0000
  H   H66       1.0  0.55691  0.97411  0.35054  1.0000
  N   N27       1.0  0.60837  0.51834  0.35002  1.0000
  N   N28       1.0  0.89546  0.96964  0.33612  1.0000
  C   C153      1.0  0.00348  0.82957  0.25507  1.0000
  C   C154      1.0  0.03315  0.80902  0.25098  1.0000
  N   N29       1.0  0.03049  0.77476  0.23931  1.0000
  C   C155      1.0  0.02925  0.66938  0.22397  1.0000
  H   H67       1.0  0.05699  0.81932  0.25914  1.0000
  N   N30       1.0  0.02849  0.70396  0.22564  1.0000
  H   H68       1.0  0.05247  0.65763  0.23053  1.0000
  C   C156      1.0  0.00627  0.86499  0.27078  1.0000
  H   H69       1.0  0.02991  0.87604  0.27589  1.0000
  C   C157      1.0  0.66303  0.99500  0.38591  1.0000
  C   C158      1.0  0.68378  0.96586  0.39876  1.0000
  N   N31       1.0  0.71831  0.96872  0.39706  1.0000
  C   C159      1.0  0.82346  0.96909  0.37223  1.0000
  H   H70       1.0  0.67335  0.94197  0.40461  1.0000
  N   N32       1.0  0.78909  0.97032  0.38216  1.0000
  H   H71       1.0  0.83504  0.94567  0.37406  1.0000
  C   C160      1.0  0.62737  0.99141  0.37636  1.0000
  H   H72       1.0  0.61630  0.96776  0.38090  1.0000
