data_image0
_chemical_formula_structural       C15H12C4NC2NHOHC4NC2NHOHC2NC2NC5NC3NC17H14C2H2C2H2C15H12C4NC2NHOHC4NC2NHOHC2NC2NC5NC3NC17H14C2H2C2H2C15H12C4NC2NHOHC4NC2NHOHC2NC2NC5NC3NC17H14C2H2C2H2C15H12C4NC2NHOHC4NC2NHOHC2NC2NC5NC3NC17H14C2H2C2H2
_chemical_formula_sum              "C240 H136 N32 O8"
_cell_length_a       42.971
_cell_length_b       42.971
_cell_length_c       14.9881
_cell_angle_alpha    90
_cell_angle_beta     90
_cell_angle_gamma    90

_space_group_name_H-M_alt    "P 1"
_space_group_IT_number       1

loop_
  _space_group_symop_operation_xyz
  'x, y, z'

loop_
  _atom_site_type_symbol
  _atom_site_label
  _atom_site_symmetry_multiplicity
  _atom_site_fract_x
  _atom_site_fract_y
  _atom_site_fract_z
  _atom_site_occupancy
  C   C1        1.0  0.43465  0.47120  0.34157  1.0000
  C   C2        1.0  0.03064  0.43365  0.34269  1.0000
  C   C3        1.0  0.49973  0.08232  0.34213  1.0000
  C   C4        1.0  0.47040  0.06689  0.34263  1.0000
  C   C5        1.0  0.41881  0.05868  0.33918  1.0000
  C   C6        1.0  0.44131  0.08141  0.34312  1.0000
  C   C7        1.0  0.33637  0.48547  0.26302  1.0000
  C   C8        1.0  0.36906  0.48651  0.26505  1.0000
  C   C9        1.0  0.49979  0.11577  0.33845  1.0000
  C   C10       1.0  0.48534  0.16433  0.26313  1.0000
  C   C11       1.0  0.48641  0.13164  0.26535  1.0000
  C   C12       1.0  0.13228  0.01582  0.26988  1.0000
  C   C13       1.0  0.16500  0.01677  0.26847  1.0000
  C   C14       1.0  0.01584  0.36830  0.26779  1.0000
  C   C15       1.0  0.01653  0.33558  0.26663  1.0000
  H   H1        1.0  0.02948  0.32499  0.21811  1.0000
  H   H2        1.0  0.02727  0.38014  0.21842  1.0000
  H   H3        1.0  0.43833  0.39635  0.33053  1.0000
  H   H4        1.0  0.12029  0.02721  0.22074  1.0000
  H   H5        1.0  0.17545  0.02981  0.21990  1.0000
  H   H6        1.0  0.06274  0.10435  0.34272  1.0000
  H   H7        1.0  0.39553  0.06327  0.33610  1.0000
  H   H8        1.0  0.43654  0.10468  0.34403  1.0000
  H   H9        1.0  0.47602  0.11944  0.21479  1.0000
  H   H10       1.0  0.47277  0.17426  0.21290  1.0000
  H   H11       1.0  0.38122  0.47616  0.21431  1.0000
  H   H12       1.0  0.32638  0.47290  0.21287  1.0000
  C   C16       1.0  0.99775  0.28412  0.32279  1.0000
  C   C17       1.0  0.99681  0.26692  0.24108  1.0000
  C   C18       1.0  0.00058  0.23381  0.24260  1.0000
  C   C19       1.0  0.00070  0.21655  0.32383  1.0000
  N   N1        1.0  0.00393  0.21910  0.16276  1.0000
  C   C20       1.0  0.00194  0.23316  0.08243  1.0000
  C   C21       1.0  0.99446  0.26483  0.08056  1.0000
  N   N2        1.0  0.99182  0.28043  0.15911  1.0000
  H   H13       1.0  0.00411  0.22049  0.02507  1.0000
  O   O1        1.0  0.99005  0.27940  0.00150  1.0000
  H   H14       1.0  0.98520  0.30197  0.15496  1.0000
  C   C22       1.0  0.21663  0.99812  0.32381  1.0000
  C   C23       1.0  0.23371  0.99714  0.24188  1.0000
  C   C24       1.0  0.26683  0.00083  0.24302  1.0000
  C   C25       1.0  0.28420  0.00093  0.32405  1.0000
  N   N3        1.0  0.28146  0.00409  0.16302  1.0000
  C   C26       1.0  0.26728  0.00213  0.08285  1.0000
  C   C27       1.0  0.23557  0.99478  0.08133  1.0000
  N   N4        1.0  0.22007  0.99220  0.16006  1.0000
  H   H15       1.0  0.27988  0.00423  0.02535  1.0000
  O   O2        1.0  0.22088  0.99041  0.00244  1.0000
  H   H16       1.0  0.19850  0.98566  0.15615  1.0000
  C   C28       1.0  0.44307  0.41955  0.33562  1.0000
  C   C29       1.0  0.42032  0.44202  0.33997  1.0000
  N   N5        1.0  0.46567  0.46503  0.34313  1.0000
  C   C30       1.0  0.47214  0.43407  0.34036  1.0000
  C   C31       1.0  0.50132  0.41816  0.34111  1.0000
  N   N6        1.0  0.03658  0.46462  0.34277  1.0000
  C   C32       1.0  0.06748  0.47090  0.34168  1.0000
  C   C33       1.0  0.08221  0.44194  0.33902  1.0000
  C   C34       1.0  0.05975  0.41921  0.34389  1.0000
  C   C35       1.0  0.08263  0.50041  0.34262  1.0000
  C   C36       1.0  0.06639  0.02939  0.34453  1.0000
  N   N7        1.0  0.03537  0.03552  0.34319  1.0000
  C   C37       1.0  0.02892  0.06648  0.34323  1.0000
  C   C38       1.0  0.05797  0.08109  0.34379  1.0000
  C   C39       1.0  0.08067  0.05858  0.34833  1.0000
  N   N8        1.0  0.46446  0.03594  0.34295  1.0000
  C   C40       1.0  0.43357  0.02972  0.34171  1.0000
  C   C41       1.0  0.41846  0.50022  0.34133  1.0000
  C   C42       1.0  0.38501  0.49991  0.33799  1.0000
  C   C43       1.0  0.36692  0.01332  0.40674  1.0000
  C   C44       1.0  0.33430  0.01489  0.39991  1.0000
  C   C45       1.0  0.31790  0.50076  0.32822  1.0000
  C   C46       1.0  0.01301  0.13390  0.40739  1.0000
  C   C47       1.0  0.01459  0.16653  0.40032  1.0000
  C   C48       1.0  0.50057  0.18285  0.32832  1.0000
  C   C49       1.0  0.11613  0.50088  0.34009  1.0000
  C   C50       1.0  0.18309  0.49923  0.32957  1.0000
  C   C51       1.0  0.16667  0.48416  0.39949  1.0000
  C   C52       1.0  0.13410  0.48623  0.40707  1.0000
  C   C53       1.0  0.50120  0.38464  0.33813  1.0000
  C   C54       1.0  0.48633  0.36685  0.40513  1.0000
  C   C55       1.0  0.48398  0.33429  0.39781  1.0000
  C   C56       1.0  0.49895  0.31767  0.32807  1.0000
  H   H17       1.0  0.47102  0.32284  0.44467  1.0000
  H   H18       1.0  0.47556  0.37768  0.45757  1.0000
  H   H19       1.0  0.39708  0.43709  0.33987  1.0000
  H   H20       1.0  0.48137  0.48089  0.34624  1.0000
  H   H21       1.0  0.01967  0.01965  0.34015  1.0000
  H   H22       1.0  0.06462  0.39597  0.34534  1.0000
  H   H23       1.0  0.10547  0.43727  0.33590  1.0000
  H   H24       1.0  0.12341  0.47536  0.45958  1.0000
  H   H25       1.0  0.17826  0.47124  0.44618  1.0000
  H   H26       1.0  0.10388  0.06350  0.35207  1.0000
  H   H27       1.0  0.02288  0.12334  0.46168  1.0000
  H   H28       1.0  0.02629  0.17819  0.44935  1.0000
  H   H29       1.0  0.32268  0.02673  0.44880  1.0000
  H   H30       1.0  0.37753  0.02340  0.46065  1.0000
  C   C57       1.0  0.99956  0.23418  0.40354  1.0000
  C   C58       1.0  0.99945  0.26679  0.40302  1.0000
  H   H31       1.0  0.00067  0.27773  0.46356  1.0000
  H   H32       1.0  0.99892  0.22353  0.46448  1.0000
  C   C59       1.0  0.26668  0.99988  0.40397  1.0000
  C   C60       1.0  0.23407  0.99985  0.40381  1.0000
  H   H33       1.0  0.22322  0.00111  0.46449  1.0000
  H   H34       1.0  0.27742  0.99925  0.46479  1.0000
  C   C61       1.0  0.43465  0.97120  0.34157  1.0000
  C   C62       1.0  0.03064  0.93365  0.34269  1.0000
  C   C63       1.0  0.49973  0.58232  0.34213  1.0000
  C   C64       1.0  0.47040  0.56689  0.34263  1.0000
  C   C65       1.0  0.41881  0.55868  0.33918  1.0000
  C   C66       1.0  0.44131  0.58140  0.34312  1.0000
  C   C67       1.0  0.33637  0.98547  0.26302  1.0000
  C   C68       1.0  0.36906  0.98650  0.26505  1.0000
  C   C69       1.0  0.49979  0.61577  0.33845  1.0000
  C   C70       1.0  0.48534  0.66433  0.26313  1.0000
  C   C71       1.0  0.48641  0.63164  0.26535  1.0000
  C   C72       1.0  0.13228  0.51582  0.26988  1.0000
  C   C73       1.0  0.16500  0.51677  0.26847  1.0000
  C   C74       1.0  0.01584  0.86830  0.26779  1.0000
  C   C75       1.0  0.01653  0.83558  0.26663  1.0000
  H   H35       1.0  0.02948  0.82499  0.21811  1.0000
  H   H36       1.0  0.02727  0.88014  0.21842  1.0000
  H   H37       1.0  0.43833  0.89635  0.33053  1.0000
  H   H38       1.0  0.12029  0.52721  0.22074  1.0000
  H   H39       1.0  0.17545  0.52981  0.21990  1.0000
  H   H40       1.0  0.06274  0.60435  0.34272  1.0000
  H   H41       1.0  0.39553  0.56327  0.33610  1.0000
  H   H42       1.0  0.43654  0.60468  0.34403  1.0000
  H   H43       1.0  0.47602  0.61944  0.21479  1.0000
  H   H44       1.0  0.47277  0.67426  0.21290  1.0000
  H   H45       1.0  0.38122  0.97616  0.21431  1.0000
  H   H46       1.0  0.32638  0.97290  0.21287  1.0000
  C   C76       1.0  0.99775  0.78412  0.32279  1.0000
  C   C77       1.0  0.99681  0.76692  0.24108  1.0000
  C   C78       1.0  0.00058  0.73381  0.24260  1.0000
  C   C79       1.0  0.00070  0.71655  0.32383  1.0000
  N   N9        1.0  0.00393  0.71910  0.16276  1.0000
  C   C80       1.0  0.00194  0.73316  0.08243  1.0000
  C   C81       1.0  0.99446  0.76483  0.08056  1.0000
  N   N10       1.0  0.99182  0.78043  0.15911  1.0000
  H   H47       1.0  0.00411  0.72049  0.02507  1.0000
  O   O3        1.0  0.99005  0.77940  0.00150  1.0000
  H   H48       1.0  0.98520  0.80197  0.15496  1.0000
  C   C82       1.0  0.21663  0.49812  0.32381  1.0000
  C   C83       1.0  0.23371  0.49715  0.24188  1.0000
  C   C84       1.0  0.26683  0.50082  0.24302  1.0000
  C   C85       1.0  0.28420  0.50093  0.32405  1.0000
  N   N11       1.0  0.28146  0.50409  0.16302  1.0000
  C   C86       1.0  0.26728  0.50213  0.08285  1.0000
  C   C87       1.0  0.23557  0.49478  0.08133  1.0000
  N   N12       1.0  0.22007  0.49220  0.16006  1.0000
  H   H49       1.0  0.27988  0.50423  0.02535  1.0000
  O   O4        1.0  0.22088  0.49041  0.00244  1.0000
  H   H50       1.0  0.19850  0.48566  0.15615  1.0000
  C   C88       1.0  0.44307  0.91955  0.33562  1.0000
  C   C89       1.0  0.42032  0.94202  0.33997  1.0000
  N   N13       1.0  0.46567  0.96503  0.34313  1.0000
  C   C90       1.0  0.47214  0.93407  0.34036  1.0000
  C   C91       1.0  0.50132  0.91816  0.34111  1.0000
  N   N14       1.0  0.03658  0.96462  0.34277  1.0000
  C   C92       1.0  0.06748  0.97090  0.34168  1.0000
  C   C93       1.0  0.08221  0.94194  0.33902  1.0000
  C   C94       1.0  0.05975  0.91921  0.34389  1.0000
  C   C95       1.0  0.08263  0.00041  0.34262  1.0000
  C   C96       1.0  0.06639  0.52939  0.34453  1.0000
  N   N15       1.0  0.03537  0.53552  0.34319  1.0000
  C   C97       1.0  0.02892  0.56648  0.34323  1.0000
  C   C98       1.0  0.05797  0.58109  0.34379  1.0000
  C   C99       1.0  0.08067  0.55858  0.34833  1.0000
  N   N16       1.0  0.46446  0.53594  0.34295  1.0000
  C   C100      1.0  0.43357  0.52972  0.34171  1.0000
  C   C101      1.0  0.41846  0.00022  0.34133  1.0000
  C   C102      1.0  0.38501  0.99990  0.33799  1.0000
  C   C103      1.0  0.36692  0.51332  0.40674  1.0000
  C   C104      1.0  0.33430  0.51489  0.39991  1.0000
  C   C105      1.0  0.31790  0.00076  0.32822  1.0000
  C   C106      1.0  0.01301  0.63391  0.40739  1.0000
  C   C107      1.0  0.01459  0.66653  0.40032  1.0000
  C   C108      1.0  0.50057  0.68285  0.32832  1.0000
  C   C109      1.0  0.11613  0.00088  0.34009  1.0000
  C   C110      1.0  0.18309  0.99924  0.32957  1.0000
  C   C111      1.0  0.16667  0.98416  0.39949  1.0000
  C   C112      1.0  0.13410  0.98623  0.40707  1.0000
  C   C113      1.0  0.50120  0.88464  0.33813  1.0000
  C   C114      1.0  0.48633  0.86686  0.40513  1.0000
  C   C115      1.0  0.48398  0.83429  0.39781  1.0000
  C   C116      1.0  0.49895  0.81768  0.32807  1.0000
  H   H51       1.0  0.47102  0.82284  0.44467  1.0000
  H   H52       1.0  0.47556  0.87768  0.45757  1.0000
  H   H53       1.0  0.39708  0.93709  0.33987  1.0000
  H   H54       1.0  0.48137  0.98089  0.34624  1.0000
  H   H55       1.0  0.01967  0.51965  0.34015  1.0000
  H   H56       1.0  0.06462  0.89597  0.34534  1.0000
  H   H57       1.0  0.10547  0.93727  0.33590  1.0000
  H   H58       1.0  0.12341  0.97536  0.45958  1.0000
  H   H59       1.0  0.17826  0.97124  0.44618  1.0000
  H   H60       1.0  0.10388  0.56350  0.35207  1.0000
  H   H61       1.0  0.02288  0.62334  0.46168  1.0000
  H   H62       1.0  0.02629  0.67819  0.44935  1.0000
  H   H63       1.0  0.32268  0.52672  0.44880  1.0000
  H   H64       1.0  0.37753  0.52340  0.46065  1.0000
  C   C117      1.0  0.99956  0.73418  0.40354  1.0000
  C   C118      1.0  0.99945  0.76679  0.40302  1.0000
  H   H65       1.0  0.00067  0.77773  0.46356  1.0000
  H   H66       1.0  0.99892  0.72353  0.46448  1.0000
  C   C119      1.0  0.26668  0.49988  0.40397  1.0000
  C   C120      1.0  0.23407  0.49985  0.40381  1.0000
  H   H67       1.0  0.22322  0.50110  0.46449  1.0000
  H   H68       1.0  0.27742  0.49925  0.46479  1.0000
  C   C121      1.0  0.93465  0.47120  0.34157  1.0000
  C   C122      1.0  0.53063  0.43365  0.34269  1.0000
  C   C123      1.0  0.99973  0.08232  0.34213  1.0000
  C   C124      1.0  0.97040  0.06689  0.34263  1.0000
  C   C125      1.0  0.91881  0.05868  0.33918  1.0000
  C   C126      1.0  0.94131  0.08141  0.34312  1.0000
  C   C127      1.0  0.83637  0.48547  0.26302  1.0000
  C   C128      1.0  0.86907  0.48651  0.26505  1.0000
  C   C129      1.0  0.99979  0.11577  0.33845  1.0000
  C   C130      1.0  0.98534  0.16433  0.26313  1.0000
  C   C131      1.0  0.98641  0.13164  0.26535  1.0000
  C   C132      1.0  0.63228  0.01582  0.26988  1.0000
  C   C133      1.0  0.66500  0.01677  0.26847  1.0000
  C   C134      1.0  0.51584  0.36830  0.26779  1.0000
  C   C135      1.0  0.51653  0.33558  0.26663  1.0000
  H   H69       1.0  0.52948  0.32499  0.21811  1.0000
  H   H70       1.0  0.52727  0.38014  0.21842  1.0000
  H   H71       1.0  0.93833  0.39635  0.33053  1.0000
  H   H72       1.0  0.62029  0.02721  0.22074  1.0000
  H   H73       1.0  0.67545  0.02981  0.21990  1.0000
  H   H74       1.0  0.56274  0.10435  0.34272  1.0000
  H   H75       1.0  0.89553  0.06327  0.33610  1.0000
  H   H76       1.0  0.93654  0.10468  0.34403  1.0000
  H   H77       1.0  0.97601  0.11944  0.21479  1.0000
  H   H78       1.0  0.97277  0.17426  0.21290  1.0000
  H   H79       1.0  0.88122  0.47616  0.21431  1.0000
  H   H80       1.0  0.82638  0.47290  0.21287  1.0000
  C   C136      1.0  0.49775  0.28412  0.32279  1.0000
  C   C137      1.0  0.49681  0.26692  0.24108  1.0000
  C   C138      1.0  0.50058  0.23381  0.24260  1.0000
  C   C139      1.0  0.50070  0.21655  0.32383  1.0000
  N   N17       1.0  0.50393  0.21910  0.16276  1.0000
  C   C140      1.0  0.50194  0.23316  0.08243  1.0000
  C   C141      1.0  0.49446  0.26483  0.08056  1.0000
  N   N18       1.0  0.49182  0.28043  0.15911  1.0000
  H   H81       1.0  0.50411  0.22049  0.02507  1.0000
  O   O5        1.0  0.49005  0.27940  0.00150  1.0000
  H   H82       1.0  0.48520  0.30197  0.15496  1.0000
  C   C142      1.0  0.71663  0.99812  0.32381  1.0000
  C   C143      1.0  0.73371  0.99714  0.24188  1.0000
  C   C144      1.0  0.76683  0.00083  0.24302  1.0000
  C   C145      1.0  0.78420  0.00093  0.32405  1.0000
  N   N19       1.0  0.78146  0.00409  0.16302  1.0000
  C   C146      1.0  0.76728  0.00213  0.08285  1.0000
  C   C147      1.0  0.73557  0.99478  0.08133  1.0000
  N   N20       1.0  0.72007  0.99220  0.16006  1.0000
  H   H83       1.0  0.77988  0.00423  0.02535  1.0000
  O   O6        1.0  0.72088  0.99041  0.00244  1.0000
  H   H84       1.0  0.69850  0.98566  0.15615  1.0000
  C   C148      1.0  0.94307  0.41955  0.33562  1.0000
  C   C149      1.0  0.92032  0.44202  0.33997  1.0000
  N   N21       1.0  0.96567  0.46503  0.34313  1.0000
  C   C150      1.0  0.97213  0.43407  0.34036  1.0000
  C   C151      1.0  0.00132  0.41816  0.34111  1.0000
  N   N22       1.0  0.53658  0.46462  0.34277  1.0000
  C   C152      1.0  0.56748  0.47090  0.34168  1.0000
  C   C153      1.0  0.58221  0.44194  0.33902  1.0000
  C   C154      1.0  0.55975  0.41921  0.34389  1.0000
  C   C155      1.0  0.58263  0.50041  0.34262  1.0000
  C   C156      1.0  0.56639  0.02939  0.34453  1.0000
  N   N23       1.0  0.53537  0.03552  0.34319  1.0000
  C   C157      1.0  0.52892  0.06648  0.34323  1.0000
  C   C158      1.0  0.55797  0.08109  0.34379  1.0000
  C   C159      1.0  0.58067  0.05858  0.34833  1.0000
  N   N24       1.0  0.96446  0.03594  0.34295  1.0000
  C   C160      1.0  0.93357  0.02972  0.34171  1.0000
  C   C161      1.0  0.91846  0.50022  0.34133  1.0000
  C   C162      1.0  0.88501  0.49991  0.33799  1.0000
  C   C163      1.0  0.86693  0.01332  0.40674  1.0000
  C   C164      1.0  0.83429  0.01489  0.39991  1.0000
  C   C165      1.0  0.81790  0.50076  0.32822  1.0000
  C   C166      1.0  0.51301  0.13390  0.40739  1.0000
  C   C167      1.0  0.51458  0.16653  0.40032  1.0000
  C   C168      1.0  0.00057  0.18285  0.32832  1.0000
  C   C169      1.0  0.61613  0.50088  0.34009  1.0000
  C   C170      1.0  0.68309  0.49923  0.32957  1.0000
  C   C171      1.0  0.66667  0.48416  0.39949  1.0000
  C   C172      1.0  0.63410  0.48623  0.40707  1.0000
  C   C173      1.0  0.00120  0.38464  0.33813  1.0000
  C   C174      1.0  0.98633  0.36685  0.40513  1.0000
  C   C175      1.0  0.98398  0.33429  0.39781  1.0000
  C   C176      1.0  0.99895  0.31767  0.32807  1.0000
  H   H85       1.0  0.97102  0.32284  0.44467  1.0000
  H   H86       1.0  0.97556  0.37768  0.45757  1.0000
  H   H87       1.0  0.89708  0.43709  0.33987  1.0000
  H   H88       1.0  0.98137  0.48089  0.34624  1.0000
  H   H89       1.0  0.51967  0.01965  0.34015  1.0000
  H   H90       1.0  0.56462  0.39597  0.34534  1.0000
  H   H91       1.0  0.60547  0.43727  0.33590  1.0000
  H   H92       1.0  0.62341  0.47536  0.45958  1.0000
  H   H93       1.0  0.67827  0.47124  0.44618  1.0000
  H   H94       1.0  0.60388  0.06350  0.35207  1.0000
  H   H95       1.0  0.52288  0.12334  0.46168  1.0000
  H   H96       1.0  0.52629  0.17819  0.44935  1.0000
  H   H97       1.0  0.82268  0.02673  0.44880  1.0000
  H   H98       1.0  0.87753  0.02340  0.46065  1.0000
  C   C177      1.0  0.49956  0.23418  0.40354  1.0000
  C   C178      1.0  0.49945  0.26679  0.40302  1.0000
  H   H99       1.0  0.50067  0.27773  0.46356  1.0000
  H   H100      1.0  0.49892  0.22353  0.46448  1.0000
  C   C179      1.0  0.76668  0.99988  0.40397  1.0000
  C   C180      1.0  0.73407  0.99985  0.40381  1.0000
  H   H101      1.0  0.72322  0.00111  0.46449  1.0000
  H   H102      1.0  0.77742  0.99925  0.46479  1.0000
  C   C181      1.0  0.93465  0.97120  0.34157  1.0000
  C   C182      1.0  0.53063  0.93365  0.34269  1.0000
  C   C183      1.0  0.99973  0.58232  0.34213  1.0000
  C   C184      1.0  0.97040  0.56689  0.34263  1.0000
  C   C185      1.0  0.91881  0.55868  0.33918  1.0000
  C   C186      1.0  0.94131  0.58140  0.34312  1.0000
  C   C187      1.0  0.83637  0.98547  0.26302  1.0000
  C   C188      1.0  0.86907  0.98650  0.26505  1.0000
  C   C189      1.0  0.99979  0.61577  0.33845  1.0000
  C   C190      1.0  0.98534  0.66433  0.26313  1.0000
  C   C191      1.0  0.98641  0.63164  0.26535  1.0000
  C   C192      1.0  0.63228  0.51582  0.26988  1.0000
  C   C193      1.0  0.66500  0.51677  0.26847  1.0000
  C   C194      1.0  0.51584  0.86830  0.26779  1.0000
  C   C195      1.0  0.51653  0.83558  0.26663  1.0000
  H   H103      1.0  0.52948  0.82499  0.21811  1.0000
  H   H104      1.0  0.52727  0.88014  0.21842  1.0000
  H   H105      1.0  0.93833  0.89635  0.33053  1.0000
  H   H106      1.0  0.62029  0.52721  0.22074  1.0000
  H   H107      1.0  0.67545  0.52981  0.21990  1.0000
  H   H108      1.0  0.56274  0.60435  0.34272  1.0000
  H   H109      1.0  0.89553  0.56327  0.33610  1.0000
  H   H110      1.0  0.93654  0.60468  0.34403  1.0000
  H   H111      1.0  0.97601  0.61944  0.21479  1.0000
  H   H112      1.0  0.97277  0.67426  0.21290  1.0000
  H   H113      1.0  0.88122  0.97616  0.21431  1.0000
  H   H114      1.0  0.82638  0.97290  0.21287  1.0000
  C   C196      1.0  0.49775  0.78412  0.32279  1.0000
  C   C197      1.0  0.49681  0.76692  0.24108  1.0000
  C   C198      1.0  0.50058  0.73381  0.24260  1.0000
  C   C199      1.0  0.50070  0.71655  0.32383  1.0000
  N   N25       1.0  0.50393  0.71910  0.16276  1.0000
  C   C200      1.0  0.50194  0.73316  0.08243  1.0000
  C   C201      1.0  0.49446  0.76483  0.08056  1.0000
  N   N26       1.0  0.49182  0.78043  0.15911  1.0000
  H   H115      1.0  0.50411  0.72049  0.02507  1.0000
  O   O7        1.0  0.49005  0.77940  0.00150  1.0000
  H   H116      1.0  0.48520  0.80197  0.15496  1.0000
  C   C202      1.0  0.71663  0.49812  0.32381  1.0000
  C   C203      1.0  0.73371  0.49715  0.24188  1.0000
  C   C204      1.0  0.76683  0.50082  0.24302  1.0000
  C   C205      1.0  0.78420  0.50093  0.32405  1.0000
  N   N27       1.0  0.78146  0.50409  0.16302  1.0000
  C   C206      1.0  0.76728  0.50213  0.08285  1.0000
  C   C207      1.0  0.73557  0.49478  0.08133  1.0000
  N   N28       1.0  0.72007  0.49220  0.16006  1.0000
  H   H117      1.0  0.77988  0.50423  0.02535  1.0000
  O   O8        1.0  0.72088  0.49041  0.00244  1.0000
  H   H118      1.0  0.69850  0.48566  0.15615  1.0000
  C   C208      1.0  0.94307  0.91955  0.33562  1.0000
  C   C209      1.0  0.92032  0.94202  0.33997  1.0000
  N   N29       1.0  0.96567  0.96503  0.34313  1.0000
  C   C210      1.0  0.97213  0.93407  0.34036  1.0000
  C   C211      1.0  0.00132  0.91816  0.34111  1.0000
  N   N30       1.0  0.53658  0.96462  0.34277  1.0000
  C   C212      1.0  0.56748  0.97090  0.34168  1.0000
  C   C213      1.0  0.58221  0.94194  0.33902  1.0000
  C   C214      1.0  0.55975  0.91921  0.34389  1.0000
  C   C215      1.0  0.58263  0.00041  0.34262  1.0000
  C   C216      1.0  0.56639  0.52939  0.34453  1.0000
  N   N31       1.0  0.53537  0.53552  0.34319  1.0000
  C   C217      1.0  0.52892  0.56648  0.34323  1.0000
  C   C218      1.0  0.55797  0.58109  0.34379  1.0000
  C   C219      1.0  0.58067  0.55858  0.34833  1.0000
  N   N32       1.0  0.96446  0.53594  0.34295  1.0000
  C   C220      1.0  0.93357  0.52972  0.34171  1.0000
  C   C221      1.0  0.91846  0.00022  0.34133  1.0000
  C   C222      1.0  0.88501  0.99990  0.33799  1.0000
  C   C223      1.0  0.86693  0.51332  0.40674  1.0000
  C   C224      1.0  0.83429  0.51489  0.39991  1.0000
  C   C225      1.0  0.81790  0.00076  0.32822  1.0000
  C   C226      1.0  0.51301  0.63391  0.40739  1.0000
  C   C227      1.0  0.51458  0.66653  0.40032  1.0000
  C   C228      1.0  0.00057  0.68285  0.32832  1.0000
  C   C229      1.0  0.61613  0.00088  0.34009  1.0000
  C   C230      1.0  0.68309  0.99924  0.32957  1.0000
  C   C231      1.0  0.66667  0.98416  0.39949  1.0000
  C   C232      1.0  0.63410  0.98623  0.40707  1.0000
  C   C233      1.0  0.00120  0.88464  0.33813  1.0000
  C   C234      1.0  0.98633  0.86686  0.40513  1.0000
  C   C235      1.0  0.98398  0.83429  0.39781  1.0000
  C   C236      1.0  0.99895  0.81768  0.32807  1.0000
  H   H119      1.0  0.97102  0.82284  0.44467  1.0000
  H   H120      1.0  0.97556  0.87768  0.45757  1.0000
  H   H121      1.0  0.89708  0.93709  0.33987  1.0000
  H   H122      1.0  0.98137  0.98089  0.34624  1.0000
  H   H123      1.0  0.51967  0.51965  0.34015  1.0000
  H   H124      1.0  0.56462  0.89597  0.34534  1.0000
  H   H125      1.0  0.60547  0.93727  0.33590  1.0000
  H   H126      1.0  0.62341  0.97536  0.45958  1.0000
  H   H127      1.0  0.67827  0.97124  0.44618  1.0000
  H   H128      1.0  0.60388  0.56350  0.35207  1.0000
  H   H129      1.0  0.52288  0.62334  0.46168  1.0000
  H   H130      1.0  0.52629  0.67819  0.44935  1.0000
  H   H131      1.0  0.82268  0.52672  0.44880  1.0000
  H   H132      1.0  0.87753  0.52340  0.46065  1.0000
  C   C237      1.0  0.49956  0.73418  0.40354  1.0000
  C   C238      1.0  0.49945  0.76679  0.40302  1.0000
  H   H133      1.0  0.50067  0.77773  0.46356  1.0000
  H   H134      1.0  0.49892  0.72353  0.46448  1.0000
  C   C239      1.0  0.76668  0.49988  0.40397  1.0000
  C   C240      1.0  0.73407  0.49985  0.40381  1.0000
  H   H135      1.0  0.72322  0.50110  0.46449  1.0000
  H   H136      1.0  0.77742  0.49925  0.46479  1.0000
