data_image0
_chemical_formula_structural       C2H2C2H2C2H2C2H2C2H2C2H2C2H2C2H2C2H2C2H2C2H2C2H2C8H3NH2C8H3NH2C8H3NH2C8H3NH2C8H3NH2C8H3NH2C8H3NH2C8H3NH2C8H3NH2C8H3NH2C8H3NH2C8H3NH2CNCNCNCNCNCNCNCNCNCNCNCNCNCNCNCNCNCNCNCNCNCNCNCNCNCNCNCNCNCNCNCNCNCNCNCNC8H3NH2C8H3NH2C8H3NH2C8H3NH2C8H3NH2C8H3NH2C2H2C2H2C2H2C2H2C2H2C2H2C2H2C2H2C2H2C2H2C2H2C2H2C2H2C2H2C2H2C2H2C2H2C2H2C2H2C2H2C2H2C2H2C2H2C2H2
_chemical_formula_sum              "C252 H162 N54"
_cell_length_a       56.2403
_cell_length_b       56.2403
_cell_length_c       14.829
_cell_angle_alpha    90
_cell_angle_beta     90
_cell_angle_gamma    120

_space_group_name_H-M_alt    "P 1"
_space_group_IT_number       1

loop_
  _space_group_symop_operation_xyz
  'x, y, z'

loop_
  _atom_site_type_symbol
  _atom_site_label
  _atom_site_symmetry_multiplicity
  _atom_site_fract_x
  _atom_site_fract_y
  _atom_site_fract_z
  _atom_site_occupancy
  C   C1        1.0  0.17365  0.36714  0.29894  1.0000
  C   C2        1.0  0.15864  0.33827  0.29542  1.0000
  H   H1        1.0  0.16954  0.37782  0.25148  1.0000
  H   H2        1.0  0.14416  0.32896  0.24599  1.0000
  C   C3        1.0  0.21191  0.45559  0.35700  1.0000
  C   C4        1.0  0.19663  0.42665  0.36110  1.0000
  H   H3        1.0  0.20136  0.46603  0.35789  1.0000
  H   H4        1.0  0.17569  0.41723  0.36522  1.0000
  C   C5        1.0  0.64164  0.80392  0.29892  1.0000
  C   C6        1.0  0.67051  0.81783  0.29529  1.0000
  H   H5        1.0  0.63096  0.78912  0.25149  1.0000
  H   H6        1.0  0.67983  0.81264  0.24592  1.0000
  C   C7        1.0  0.55320  0.75369  0.35708  1.0000
  C   C8        1.0  0.58214  0.76736  0.36112  1.0000
  H   H7        1.0  0.54277  0.73269  0.35789  1.0000
  H   H8        1.0  0.59157  0.75585  0.36519  1.0000
  C   C9        1.0  0.20488  0.83540  0.29885  1.0000
  C   C10       1.0  0.19092  0.85032  0.29513  1.0000
  H   H9        1.0  0.21982  0.83968  0.25184  1.0000
  H   H10       1.0  0.19621  0.86494  0.24613  1.0000
  C   C11       1.0  0.25496  0.79698  0.35702  1.0000
  C   C12       1.0  0.24129  0.81225  0.36096  1.0000
  H   H11       1.0  0.27595  0.80752  0.35822  1.0000
  H   H12       1.0  0.25281  0.83319  0.36529  1.0000
  C   C13       1.0  0.83948  0.63671  0.29912  1.0000
  C   C14       1.0  0.85442  0.66557  0.29549  1.0000
  H   H13       1.0  0.84364  0.62604  0.25179  1.0000
  H   H14       1.0  0.86892  0.67490  0.24614  1.0000
  C   C15       1.0  0.80134  0.54830  0.35740  1.0000
  C   C16       1.0  0.81658  0.57723  0.36147  1.0000
  H   H15       1.0  0.81191  0.53788  0.35839  1.0000
  H   H16       1.0  0.83751  0.58668  0.36569  1.0000
  C   C17       1.0  0.37160  0.19967  0.29792  1.0000
  C   C18       1.0  0.34273  0.18582  0.29412  1.0000
  H   H17       1.0  0.38232  0.21447  0.25054  1.0000
  H   H18       1.0  0.33346  0.19102  0.24463  1.0000
  C   C19       1.0  0.45996  0.24995  0.35669  1.0000
  C   C20       1.0  0.43102  0.23625  0.36058  1.0000
  H   H19       1.0  0.47037  0.27095  0.35739  1.0000
  H   H20       1.0  0.42157  0.24774  0.36436  1.0000
  C   C21       1.0  0.80864  0.16890  0.29894  1.0000
  C   C22       1.0  0.82254  0.15394  0.29531  1.0000
  H   H21       1.0  0.79383  0.16477  0.25152  1.0000
  H   H22       1.0  0.81736  0.13943  0.24596  1.0000
  C   C23       1.0  0.75840  0.20710  0.35707  1.0000
  C   C24       1.0  0.77207  0.19184  0.36114  1.0000
  H   H23       1.0  0.73740  0.19654  0.35791  1.0000
  H   H24       1.0  0.76056  0.17089  0.36522  1.0000
  C   C25       1.0  0.24085  0.16406  0.33236  1.0000
  C   C26       1.0  0.21850  0.15599  0.27268  1.0000
  C   C27       1.0  0.20395  0.17054  0.26610  1.0000
  C   C28       1.0  0.21087  0.19309  0.32559  1.0000
  C   C29       1.0  0.19591  0.20763  0.32930  1.0000
  C   C30       1.0  0.16713  0.19358  0.34242  1.0000
  C   C31       1.0  0.15240  0.20778  0.34555  1.0000
  C   C32       1.0  0.16582  0.23678  0.33796  1.0000
  H   H25       1.0  0.15654  0.17268  0.34962  1.0000
  H   H26       1.0  0.13160  0.19655  0.35456  1.0000
  H   H27       1.0  0.21346  0.13980  0.23008  1.0000
  N   N1        1.0  0.18455  0.16288  0.20041  1.0000
  H   H28       1.0  0.18091  0.14810  0.15856  1.0000
  H   H29       1.0  0.17589  0.17366  0.18676  1.0000
  C   C33       1.0  0.84488  0.07422  0.33270  1.0000
  C   C34       1.0  0.85299  0.06001  0.27289  1.0000
  C   C35       1.0  0.83847  0.03090  0.26620  1.0000
  C   C36       1.0  0.81594  0.01521  0.32570  1.0000
  C   C37       1.0  0.80137  0.98570  0.32918  1.0000
  C   C38       1.0  0.81538  0.97092  0.34205  1.0000
  C   C39       1.0  0.80112  0.94198  0.34514  1.0000
  C   C40       1.0  0.77211  0.92645  0.33776  1.0000
  H   H30       1.0  0.83628  0.98119  0.34915  1.0000
  H   H31       1.0  0.81232  0.93237  0.35401  1.0000
  H   H32       1.0  0.86914  0.07119  0.23024  1.0000
  N   N2        1.0  0.84615  0.01920  0.20038  1.0000
  H   H33       1.0  0.86098  0.03038  0.15874  1.0000
  H   H34       1.0  0.83548  0.99974  0.18683  1.0000
  C   C41       1.0  0.93409  0.76750  0.33263  1.0000
  C   C42       1.0  0.94831  0.78972  0.27248  1.0000
  C   C43       1.0  0.97742  0.80426  0.26579  1.0000
  C   C44       1.0  0.99308  0.79746  0.32557  1.0000
  C   C45       1.0  0.02257  0.81243  0.32923  1.0000
  C   C46       1.0  0.03727  0.84122  0.34210  1.0000
  C   C47       1.0  0.06621  0.85597  0.34526  1.0000
  C   C48       1.0  0.08180  0.84256  0.33795  1.0000
  H   H35       1.0  0.02694  0.85180  0.34906  1.0000
  H   H36       1.0  0.07575  0.87678  0.35402  1.0000
  H   H37       1.0  0.93714  0.79466  0.22964  1.0000
  N   N3        1.0  0.98913  0.82352  0.19968  1.0000
  H   H38       1.0  0.97800  0.82725  0.15805  1.0000
  H   H39       1.0  0.00861  0.83237  0.18639  1.0000
  C   C49       1.0  0.77255  0.84013  0.33275  1.0000
  C   C50       1.0  0.79484  0.84819  0.27281  1.0000
  C   C51       1.0  0.80940  0.83365  0.26612  1.0000
  C   C52       1.0  0.80258  0.81115  0.32577  1.0000
  C   C53       1.0  0.81749  0.79655  0.32919  1.0000
  C   C54       1.0  0.84628  0.81053  0.34196  1.0000
  C   C55       1.0  0.86092  0.79623  0.34507  1.0000
  C   C56       1.0  0.84740  0.76723  0.33777  1.0000
  H   H40       1.0  0.85693  0.83143  0.34899  1.0000
  H   H41       1.0  0.88174  0.80741  0.35385  1.0000
  H   H42       1.0  0.79976  0.86429  0.22998  1.0000
  N   N4        1.0  0.82870  0.84125  0.20012  1.0000
  H   H43       1.0  0.83244  0.85613  0.15859  1.0000
  H   H44       1.0  0.83757  0.83064  0.18680  1.0000
  C   C57       1.0  0.16776  0.92968  0.33185  1.0000
  C   C58       1.0  0.15780  0.94385  0.27939  1.0000
  C   C59       1.0  0.17194  0.97297  0.27291  1.0000
  C   C60       1.0  0.19625  0.98877  0.32519  1.0000
  C   C61       1.0  0.21097  0.01829  0.32830  1.0000
  C   C62       1.0  0.19756  0.03319  0.34977  1.0000
  C   C63       1.0  0.21200  0.06214  0.35263  1.0000
  C   C64       1.0  0.24069  0.07753  0.33684  1.0000
  H   H45       1.0  0.17697  0.02300  0.36348  1.0000
  H   H46       1.0  0.20126  0.07186  0.36808  1.0000
  H   H47       1.0  0.14041  0.93264  0.24175  1.0000
  N   N5        1.0  0.16211  0.98454  0.21386  1.0000
  H   H48       1.0  0.14607  0.97330  0.17669  1.0000
  H   H49       1.0  0.17231  0.00400  0.19974  1.0000
  C   C65       1.0  0.07896  0.23615  0.33274  1.0000
  C   C66       1.0  0.06477  0.21382  0.27295  1.0000
  C   C67       1.0  0.03566  0.19919  0.26626  1.0000
  C   C68       1.0  0.01995  0.20600  0.32573  1.0000
  C   C69       1.0  0.99044  0.19104  0.32918  1.0000
  C   C70       1.0  0.97567  0.16225  0.34204  1.0000
  C   C71       1.0  0.94673  0.14754  0.34512  1.0000
  C   C72       1.0  0.93119  0.16101  0.33774  1.0000
  H   H50       1.0  0.98596  0.15163  0.34915  1.0000
  H   H51       1.0  0.93714  0.12674  0.35400  1.0000
  H   H52       1.0  0.07598  0.20887  0.23030  1.0000
  N   N6        1.0  0.02399  0.17982  0.20044  1.0000
  H   H53       1.0  0.03519  0.17617  0.15880  1.0000
  H   H54       1.0  0.00453  0.17099  0.18689  1.0000
  C   C73       1.0  0.23894  0.68007  0.35332  1.0000
  C   C74       1.0  0.22720  0.66453  0.27440  1.0000
  C   C75       1.0  0.22215  0.63725  0.26562  1.0000
  C   C76       1.0  0.22882  0.62511  0.33874  1.0000
  C   C77       1.0  0.23195  0.60157  0.32780  1.0000
  C   C78       1.0  0.25236  0.60332  0.26817  1.0000
  C   C79       1.0  0.25994  0.58301  0.26770  1.0000
  C   C80       1.0  0.24728  0.56011  0.32631  1.0000
  H   H55       1.0  0.26322  0.62033  0.22858  1.0000
  H   H56       1.0  0.27583  0.58584  0.22681  1.0000
  H   H57       1.0  0.22443  0.67399  0.21960  1.0000
  N   N7        1.0  0.21190  0.62384  0.18623  1.0000
  H   H58       1.0  0.20737  0.63230  0.13691  1.0000
  H   H59       1.0  0.20721  0.60483  0.17804  1.0000
  C   C81       1.0  0.32881  0.55638  0.35307  1.0000
  C   C82       1.0  0.34432  0.56004  0.27422  1.0000
  C   C83       1.0  0.37163  0.58223  0.26545  1.0000
  C   C84       1.0  0.38378  0.60103  0.33859  1.0000
  C   C85       1.0  0.40733  0.62768  0.32756  1.0000
  C   C86       1.0  0.40555  0.64634  0.26796  1.0000
  C   C87       1.0  0.42581  0.67425  0.26765  1.0000
  C   C88       1.0  0.44872  0.68449  0.32624  1.0000
  H   H60       1.0  0.38852  0.64017  0.22845  1.0000
  H   H61       1.0  0.42299  0.68729  0.22669  1.0000
  H   H62       1.0  0.33483  0.54783  0.21944  1.0000
  N   N8        1.0  0.38505  0.58535  0.18610  1.0000
  H   H63       1.0  0.37656  0.57236  0.13679  1.0000
  H   H64       1.0  0.40407  0.59963  0.17793  1.0000
  C   C89       1.0  0.45230  0.76964  0.35321  1.0000
  C   C90       1.0  0.44848  0.78129  0.27409  1.0000
  C   C91       1.0  0.42628  0.78639  0.26530  1.0000
  C   C92       1.0  0.40752  0.77980  0.33854  1.0000
  C   C93       1.0  0.38091  0.77683  0.32761  1.0000
  C   C94       1.0  0.36219  0.75643  0.26799  1.0000
  C   C95       1.0  0.33431  0.74887  0.26771  1.0000
  C   C96       1.0  0.32413  0.76159  0.32634  1.0000
  H   H65       1.0  0.36828  0.74549  0.22855  1.0000
  H   H66       1.0  0.32123  0.73300  0.22683  1.0000
  H   H67       1.0  0.46066  0.78399  0.21925  1.0000
  N   N9        1.0  0.42309  0.79657  0.18579  1.0000
  H   H68       1.0  0.43616  0.80119  0.13667  1.0000
  H   H69       1.0  0.40891  0.80146  0.17783  1.0000
  C   C97       1.0  0.77447  0.32398  0.35320  1.0000
  C   C98       1.0  0.78617  0.33944  0.27412  1.0000
  C   C99       1.0  0.79131  0.36675  0.26530  1.0000
  C   C100      1.0  0.78476  0.37897  0.33851  1.0000
  C   C101      1.0  0.78165  0.40251  0.32751  1.0000
  C   C102      1.0  0.76116  0.40068  0.26803  1.0000
  C   C103      1.0  0.75348  0.42092  0.26779  1.0000
  C   C104      1.0  0.76615  0.44384  0.32630  1.0000
  H   H70       1.0  0.75023  0.38361  0.22876  1.0000
  H   H71       1.0  0.73753  0.41802  0.22712  1.0000
  H   H72       1.0  0.78884  0.32993  0.21929  1.0000
  N   N10       1.0  0.80149  0.38012  0.18579  1.0000
  H   H73       1.0  0.80601  0.37162  0.13654  1.0000
  H   H74       1.0  0.80632  0.39916  0.17768  1.0000
  C   C105      1.0  0.68453  0.44738  0.35334  1.0000
  C   C106      1.0  0.66902  0.44369  0.27445  1.0000
  C   C107      1.0  0.64171  0.42151  0.26567  1.0000
  C   C108      1.0  0.62954  0.40268  0.33873  1.0000
  C   C109      1.0  0.60597  0.37605  0.32770  1.0000
  C   C110      1.0  0.60767  0.35739  0.26792  1.0000
  C   C111      1.0  0.58734  0.32950  0.26743  1.0000
  C   C112      1.0  0.56447  0.31927  0.32619  1.0000
  H   H75       1.0  0.62467  0.36354  0.22826  1.0000
  H   H76       1.0  0.59015  0.31645  0.22648  1.0000
  H   H77       1.0  0.67849  0.45594  0.21971  1.0000
  N   N11       1.0  0.62829  0.41842  0.18632  1.0000
  H   H78       1.0  0.63678  0.43142  0.13706  1.0000
  H   H79       1.0  0.60928  0.40414  0.17813  1.0000
  C   C113      1.0  0.56097  0.23415  0.35317  1.0000
  C   C114      1.0  0.56472  0.22237  0.27427  1.0000
  C   C115      1.0  0.58697  0.21735  0.26548  1.0000
  C   C116      1.0  0.60576  0.22402  0.33865  1.0000
  C   C117      1.0  0.63243  0.22715  0.32771  1.0000
  C   C118      1.0  0.65111  0.24759  0.26815  1.0000
  C   C119      1.0  0.67901  0.25519  0.26782  1.0000
  C   C120      1.0  0.68922  0.24249  0.32635  1.0000
  H   H80       1.0  0.64495  0.25846  0.22865  1.0000
  H   H81       1.0  0.69206  0.27105  0.22687  1.0000
  H   H82       1.0  0.55251  0.21964  0.21948  1.0000
  N   N12       1.0  0.59014  0.20710  0.18610  1.0000
  H   H83       1.0  0.57715  0.20257  0.13678  1.0000
  H   H84       1.0  0.60447  0.20243  0.17791  1.0000
  C   C121      1.0  0.15081  0.25121  0.34059  1.0000
  N   N13       1.0  0.16388  0.27910  0.34831  1.0000
  C   C122      1.0  0.15011  0.29328  0.34965  1.0000
  N   N14       1.0  0.12224  0.27883  0.34396  1.0000
  C   C123      1.0  0.10816  0.25096  0.33679  1.0000
  N   N15       1.0  0.12286  0.23772  0.33466  1.0000
  C   C124      1.0  0.75762  0.89701  0.34043  1.0000
  N   N16       1.0  0.72972  0.88222  0.34816  1.0000
  C   C125      1.0  0.71550  0.85427  0.34955  1.0000
  N   N17       1.0  0.72992  0.84082  0.34391  1.0000
  C   C126      1.0  0.75778  0.85456  0.33675  1.0000
  N   N18       1.0  0.77107  0.88251  0.33455  1.0000
  C   C127      1.0  0.11124  0.85761  0.34033  1.0000
  N   N19       1.0  0.12617  0.84466  0.34767  1.0000
  C   C128      1.0  0.15412  0.85852  0.34850  1.0000
  N   N20       1.0  0.16740  0.88639  0.34262  1.0000
  C   C129      1.0  0.15355  0.90043  0.33590  1.0000
  N   N21       1.0  0.12560  0.88556  0.33438  1.0000
  C   C130      1.0  0.86232  0.75269  0.34045  1.0000
  N   N22       1.0  0.84918  0.72480  0.34819  1.0000
  C   C131      1.0  0.86288  0.71055  0.34955  1.0000
  N   N23       1.0  0.89075  0.72494  0.34389  1.0000
  C   C132      1.0  0.90490  0.75279  0.33671  1.0000
  N   N24       1.0  0.89027  0.76611  0.33453  1.0000
  C   C133      1.0  0.25538  0.10695  0.33963  1.0000
  N   N25       1.0  0.28329  0.12155  0.34689  1.0000
  C   C134      1.0  0.29766  0.14950  0.34838  1.0000
  N   N26       1.0  0.28337  0.16311  0.34315  1.0000
  C   C135      1.0  0.25550  0.14952  0.33637  1.0000
  N   N27       1.0  0.24205  0.12157  0.33423  1.0000
  C   C136      1.0  0.90175  0.14604  0.34042  1.0000
  N   N28       1.0  0.88695  0.15914  0.34816  1.0000
  C   C137      1.0  0.85900  0.14541  0.34955  1.0000
  N   N29       1.0  0.84556  0.11753  0.34389  1.0000
  C   C138      1.0  0.85930  0.10341  0.33673  1.0000
  N   N30       1.0  0.88725  0.11809  0.33454  1.0000
  C   C139      1.0  0.29987  0.54092  0.34965  1.0000
  N   N31       1.0  0.28472  0.51307  0.35257  1.0000
  C   C140      1.0  0.25664  0.49944  0.34930  1.0000
  N   N32       1.0  0.24417  0.51496  0.34178  1.0000
  C   C141      1.0  0.25885  0.54288  0.33616  1.0000
  N   N33       1.0  0.28657  0.55522  0.34077  1.0000
  C   C142      1.0  0.46782  0.75623  0.34971  1.0000
  N   N34       1.0  0.49567  0.76897  0.35272  1.0000
  C   C143      1.0  0.50933  0.75453  0.34941  1.0000
  N   N35       1.0  0.49384  0.72655  0.34180  1.0000
  C   C144      1.0  0.46593  0.71329  0.33613  1.0000
  N   N36       1.0  0.45355  0.72863  0.34078  1.0000
  C   C145      1.0  0.25236  0.70901  0.34992  1.0000
  N   N37       1.0  0.23965  0.72415  0.35265  1.0000
  C   C146      1.0  0.25410  0.75224  0.34926  1.0000
  N   N38       1.0  0.28209  0.76471  0.34175  1.0000
  C   C147      1.0  0.29533  0.75003  0.33626  1.0000
  N   N39       1.0  0.27996  0.72232  0.34102  1.0000
  C   C148      1.0  0.71346  0.46288  0.34999  1.0000
  N   N40       1.0  0.72856  0.49074  0.35288  1.0000
  C   C149      1.0  0.75665  0.50440  0.34954  1.0000
  N   N41       1.0  0.76916  0.48893  0.34193  1.0000
  C   C150      1.0  0.75452  0.46102  0.33630  1.0000
  N   N42       1.0  0.72681  0.44863  0.34099  1.0000
  C   C151      1.0  0.54543  0.24754  0.34978  1.0000
  N   N43       1.0  0.51757  0.23478  0.35272  1.0000
  C   C152      1.0  0.50389  0.24919  0.34942  1.0000
  N   N44       1.0  0.51936  0.27718  0.34180  1.0000
  C   C153      1.0  0.54727  0.29047  0.33615  1.0000
  N   N45       1.0  0.55967  0.27514  0.34082  1.0000
  C   C154      1.0  0.76101  0.29506  0.34969  1.0000
  N   N46       1.0  0.77370  0.27991  0.35267  1.0000
  C   C155      1.0  0.75924  0.25182  0.34939  1.0000
  N   N47       1.0  0.73126  0.23936  0.34183  1.0000
  C   C156      1.0  0.71802  0.25404  0.33619  1.0000
  N   N48       1.0  0.73340  0.28175  0.34082  1.0000
  C   C157      1.0  0.16452  0.32239  0.35528  1.0000
  C   C158      1.0  0.18514  0.33632  0.42083  1.0000
  C   C159      1.0  0.19954  0.36540  0.42854  1.0000
  C   C160      1.0  0.19435  0.38128  0.36458  1.0000
  C   C161      1.0  0.20976  0.41076  0.36136  1.0000
  C   C162      1.0  0.23874  0.42500  0.35502  1.0000
  C   C163      1.0  0.25399  0.45391  0.35175  1.0000
  C   C164      1.0  0.24101  0.47000  0.35285  1.0000
  H   H85       1.0  0.24908  0.41434  0.35272  1.0000
  H   H86       1.0  0.27490  0.46305  0.34767  1.0000
  H   H87       1.0  0.18898  0.32495  0.46640  1.0000
  N   N49       1.0  0.21713  0.37688  0.49921  1.0000
  H   H88       1.0  0.21974  0.36559  0.54347  1.0000
  H   H89       1.0  0.22569  0.39633  0.51271  1.0000
  C   C165      1.0  0.68639  0.83958  0.35516  1.0000
  C   C166      1.0  0.67246  0.84626  0.42074  1.0000
  C   C167      1.0  0.64339  0.83155  0.42855  1.0000
  C   C168      1.0  0.62749  0.81046  0.36459  1.0000
  C   C169      1.0  0.59801  0.79637  0.36145  1.0000
  C   C170      1.0  0.58376  0.81110  0.35520  1.0000
  C   C171      1.0  0.55485  0.79743  0.35193  1.0000
  C   C172      1.0  0.53878  0.76836  0.35299  1.0000
  H   H90       1.0  0.59440  0.83210  0.35294  1.0000
  H   H91       1.0  0.54569  0.80918  0.34792  1.0000
  H   H92       1.0  0.68383  0.86145  0.46636  1.0000
  N   N50       1.0  0.63191  0.83763  0.49929  1.0000
  H   H93       1.0  0.64319  0.85152  0.54354  1.0000
  H   H94       1.0  0.61246  0.82672  0.51284  1.0000
  C   C173      1.0  0.16894  0.84422  0.35427  1.0000
  C   C174      1.0  0.16214  0.82345  0.41938  1.0000
  C   C175      1.0  0.17689  0.80913  0.42731  1.0000
  C   C176      1.0  0.19817  0.81452  0.36393  1.0000
  C   C177      1.0  0.21228  0.79913  0.36078  1.0000
  C   C178      1.0  0.19755  0.77015  0.35414  1.0000
  C   C179      1.0  0.21122  0.75490  0.35106  1.0000
  C   C180      1.0  0.24028  0.76788  0.35262  1.0000
  H   H95       1.0  0.17655  0.75980  0.35150  1.0000
  H   H96       1.0  0.19946  0.73400  0.34675  1.0000
  H   H97       1.0  0.14679  0.81944  0.46450  1.0000
  N   N51       1.0  0.17063  0.79138  0.49761  1.0000
  H   H98       1.0  0.15675  0.78882  0.54186  1.0000
  H   H99       1.0  0.18172  0.78308  0.51169  1.0000
  C   C181      1.0  0.84846  0.68144  0.35515  1.0000
  C   C182      1.0  0.82783  0.66750  0.42064  1.0000
  C   C183      1.0  0.81349  0.63843  0.42849  1.0000
  C   C184      1.0  0.81876  0.62255  0.36471  1.0000
  C   C185      1.0  0.80341  0.59308  0.36155  1.0000
  C   C186      1.0  0.77443  0.57881  0.35508  1.0000
  C   C187      1.0  0.75921  0.54989  0.35183  1.0000
  C   C188      1.0  0.77224  0.53385  0.35309  1.0000
  H   H100      1.0  0.76405  0.58943  0.35265  1.0000
  H   H101      1.0  0.73831  0.54072  0.34762  1.0000
  H   H102      1.0  0.82394  0.67886  0.46609  1.0000
  N   N52       1.0  0.79587  0.62693  0.49908  1.0000
  H   H103      1.0  0.79330  0.63823  0.54340  1.0000
  H   H104      1.0  0.78744  0.60751  0.51285  1.0000
  C   C189      1.0  0.32677  0.16407  0.35392  1.0000
  C   C190      1.0  0.34064  0.15736  0.41967  1.0000
  C   C191      1.0  0.36971  0.17203  0.42766  1.0000
  C   C192      1.0  0.38568  0.19311  0.36381  1.0000
  C   C193      1.0  0.41517  0.20723  0.36100  1.0000
  C   C194      1.0  0.42947  0.19254  0.35512  1.0000
  C   C195      1.0  0.45839  0.20624  0.35206  1.0000
  C   C196      1.0  0.47443  0.23532  0.35292  1.0000
  H   H105      1.0  0.41885  0.17153  0.35293  1.0000
  H   H106      1.0  0.46757  0.19451  0.34826  1.0000
  H   H107      1.0  0.32922  0.14218  0.46524  1.0000
  N   N53       1.0  0.38112  0.16591  0.49856  1.0000
  H   H108      1.0  0.36979  0.15203  0.54275  1.0000
  H   H109      1.0  0.40055  0.17680  0.51227  1.0000
  C   C197      1.0  0.84430  0.15982  0.35516  1.0000
  C   C198      1.0  0.85099  0.18044  0.42072  1.0000
  C   C199      1.0  0.83627  0.19479  0.42852  1.0000
  C   C200      1.0  0.81518  0.18959  0.36459  1.0000
  C   C201      1.0  0.80108  0.20497  0.36144  1.0000
  C   C202      1.0  0.81581  0.23396  0.35514  1.0000
  C   C203      1.0  0.80214  0.24919  0.35187  1.0000
  C   C204      1.0  0.77307  0.23620  0.35295  1.0000
  H   H110      1.0  0.83681  0.24431  0.35286  1.0000
  H   H111      1.0  0.81389  0.27010  0.34783  1.0000
  H   H112      1.0  0.86618  0.18426  0.46632  1.0000
  N   N54       1.0  0.84236  0.21237  0.49923  1.0000
  H   H113      1.0  0.85627  0.21499  0.54346  1.0000
  H   H114      1.0  0.83146  0.22090  0.51279  1.0000
  C   C205      1.0  0.23323  0.20101  0.38551  1.0000
  C   C206      1.0  0.24823  0.18713  0.38773  1.0000
  H   H115      1.0  0.23867  0.21692  0.42964  1.0000
  H   H116      1.0  0.26402  0.19344  0.43292  1.0000
  C   C207      1.0  0.19476  0.25083  0.32735  1.0000
  C   C208      1.0  0.20946  0.23660  0.32294  1.0000
  H   H117      1.0  0.20557  0.27175  0.32121  1.0000
  H   H118      1.0  0.23026  0.24766  0.31361  1.0000
  C   C209      1.0  0.80803  0.02960  0.38589  1.0000
  C   C210      1.0  0.82185  0.05847  0.38819  1.0000
  H   H119      1.0  0.79216  0.01910  0.43009  1.0000
  H   H120      1.0  0.81555  0.06790  0.43358  1.0000
  C   C211      1.0  0.75811  0.94139  0.32734  1.0000
  C   C212      1.0  0.77239  0.97032  0.32296  1.0000
  H   H121      1.0  0.73719  0.93133  0.32133  1.0000
  H   H122      1.0  0.76137  0.98011  0.31380  1.0000
  C   C213      1.0  0.97867  0.77525  0.38603  1.0000
  C   C214      1.0  0.94980  0.76024  0.38837  1.0000
  H   H123      1.0  0.98916  0.76991  0.43043  1.0000
  H   H124      1.0  0.94034  0.74457  0.43398  1.0000
  C   C215      1.0  0.06694  0.81361  0.32766  1.0000
  C   C216      1.0  0.03801  0.79890  0.32323  1.0000
  H   H125      1.0  0.07707  0.80282  0.32166  1.0000
  H   H126      1.0  0.02827  0.77808  0.31409  1.0000
  C   C217      1.0  0.78034  0.80331  0.38612  1.0000
  C   C218      1.0  0.76531  0.81716  0.38846  1.0000
  H   H127      1.0  0.77498  0.78745  0.43040  1.0000
  H   H128      1.0  0.74958  0.81087  0.43387  1.0000
  C   C219      1.0  0.81846  0.75325  0.32744  1.0000
  C   C220      1.0  0.80385  0.76757  0.32310  1.0000
  H   H129      1.0  0.80758  0.73234  0.32153  1.0000
  H   H130      1.0  0.78303  0.75657  0.31400  1.0000
  C   C221      1.0  0.20601  0.97445  0.37819  1.0000
  C   C222      1.0  0.19236  0.94558  0.38032  1.0000
  H   H131      1.0  0.22319  0.98500  0.41728  1.0000
  H   H132      1.0  0.20012  0.93626  0.42046  1.0000
  C   C223      1.0  0.25419  0.06251  0.31789  1.0000
  C   C224      1.0  0.23965  0.03359  0.31333  1.0000
  H   H133      1.0  0.27484  0.07253  0.30538  1.0000
  H   H134      1.0  0.25026  0.02373  0.29774  1.0000
  C   C225      1.0  0.03431  0.22830  0.38592  1.0000
  C   C226      1.0  0.06318  0.24339  0.38823  1.0000
  H   H135      1.0  0.02379  0.23366  0.43011  1.0000
  H   H136      1.0  0.07260  0.25913  0.43361  1.0000
  C   C227      1.0  0.94611  0.18995  0.32731  1.0000
  C   C228      1.0  0.97504  0.20461  0.32294  1.0000
  H   H137      1.0  0.93603  0.20079  0.32130  1.0000
  H   H138      1.0  0.98481  0.22543  0.31378  1.0000
  C   C229      1.0  0.23917  0.64031  0.41943  1.0000
  C   C230      1.0  0.24441  0.66743  0.42627  1.0000
  H   H139      1.0  0.24563  0.63281  0.47108  1.0000
  H   H140      1.0  0.25448  0.67863  0.48222  1.0000
  C   C231      1.0  0.22592  0.55760  0.38301  1.0000
  C   C232      1.0  0.21873  0.57834  0.38488  1.0000
  H   H141      1.0  0.21714  0.54196  0.42894  1.0000
  H   H142      1.0  0.20458  0.57696  0.43107  1.0000
  C   C233      1.0  0.36861  0.59627  0.41929  1.0000
  C   C234      1.0  0.34144  0.57449  0.42604  1.0000
  H   H143      1.0  0.37614  0.61023  0.47092  1.0000
  H   H144      1.0  0.33023  0.57335  0.48200  1.0000
  C   C235      1.0  0.45125  0.66565  0.38292  1.0000
  C   C236      1.0  0.43058  0.63769  0.38458  1.0000
  H   H145      1.0  0.46695  0.67250  0.42861  1.0000
  H   H146      1.0  0.43196  0.62491  0.43072  1.0000
  C   C237      1.0  0.41242  0.76959  0.41944  1.0000
  C   C238      1.0  0.43425  0.76428  0.42626  1.0000
  H   H147      1.0  0.39852  0.76325  0.47123  1.0000
  H   H148      1.0  0.43548  0.75434  0.48242  1.0000
  C   C239      1.0  0.34301  0.78287  0.38316  1.0000
  C   C240      1.0  0.37093  0.79004  0.38487  1.0000
  H   H149      1.0  0.33620  0.79174  0.42894  1.0000
  H   H150      1.0  0.38374  0.80419  0.43098  1.0000
  C   C241      1.0  0.77448  0.36384  0.41938  1.0000
  C   C242      1.0  0.76914  0.33669  0.42626  1.0000
  H   H151      1.0  0.76810  0.37141  0.47102  1.0000
  H   H152      1.0  0.75910  0.32552  0.48229  1.0000
  C   C243      1.0  0.78758  0.44643  0.38280  1.0000
  C   C244      1.0  0.79487  0.42577  0.38449  1.0000
  H   H153      1.0  0.79640  0.46213  0.42851  1.0000
  H   H154      1.0  0.80908  0.42719  0.43054  1.0000
  C   C245      1.0  0.64474  0.40744  0.41940  1.0000
  C   C246      1.0  0.67189  0.42926  0.42629  1.0000
  H   H155      1.0  0.63721  0.39346  0.47098  1.0000
  H   H156      1.0  0.68309  0.43035  0.48219  1.0000
  C   C247      1.0  0.56200  0.33811  0.38302  1.0000
  C   C248      1.0  0.58276  0.36604  0.38490  1.0000
  H   H157      1.0  0.54639  0.33125  0.42907  1.0000
  H   H158      1.0  0.58142  0.37881  0.43120  1.0000
  C   C249      1.0  0.60095  0.23439  0.41936  1.0000
  C   C250      1.0  0.57910  0.23968  0.42613  1.0000
  H   H159      1.0  0.61490  0.24083  0.47102  1.0000
  H   H160      1.0  0.57791  0.24971  0.48212  1.0000
  C   C251      1.0  0.67037  0.22113  0.38301  1.0000
  C   C252      1.0  0.64242  0.21388  0.38469  1.0000
  H   H161      1.0  0.67720  0.21225  0.42867  1.0000
  H   H162      1.0  0.62963  0.19971  0.43080  1.0000
