data_image0
_chemical_formula_structural       CHC3HCHC3HN4H2C2NCHCH3C2NCHCHC2HC2HCHCNCNCNC4H3C4H3C3H3C2HC2HCHCNCNCNC4H3C4H3C3H3C2H2C2H2C2H2CNCNCNCNCNCNC4HCH3C4HCH3C4HCH3C2H2C2H2C2H2CNCNCNCNCNCNC4HCH3C4HCH3C4HCH3
_chemical_formula_sum              "C108 H72 N24"
_cell_length_a       29.0682
_cell_length_b       29.0682
_cell_length_c       14.7611
_cell_angle_alpha    90
_cell_angle_beta     90
_cell_angle_gamma    120

_space_group_name_H-M_alt    "P 1"
_space_group_IT_number       1

loop_
  _space_group_symop_operation_xyz
  'x, y, z'

loop_
  _atom_site_type_symbol
  _atom_site_label
  _atom_site_symmetry_multiplicity
  _atom_site_fract_x
  _atom_site_fract_y
  _atom_site_fract_z
  _atom_site_occupancy
  C   C1        1.0  0.03979  0.27192  0.26837  1.0000
  H   H1        1.0  0.05915  0.28160  0.20736  1.0000
  C   C2        1.0  0.12454  0.31429  0.34906  1.0000
  C   C3        1.0  0.06876  0.28640  0.35012  1.0000
  C   C4        1.0  0.04066  0.27235  0.43291  1.0000
  H   H2        1.0  0.06167  0.28286  0.49236  1.0000
  C   C5        1.0  0.03979  0.77192  0.26837  1.0000
  H   H3        1.0  0.05915  0.78160  0.20736  1.0000
  C   C6        1.0  0.12454  0.81429  0.34906  1.0000
  C   C7        1.0  0.06876  0.78641  0.35012  1.0000
  C   C8        1.0  0.04066  0.77235  0.43291  1.0000
  H   H4        1.0  0.06167  0.78286  0.49236  1.0000
  N   N1        1.0  0.15190  0.36833  0.34928  1.0000
  N   N2        1.0  0.15190  0.28762  0.34928  1.0000
  N   N3        1.0  0.15190  0.86833  0.34928  1.0000
  N   N4        1.0  0.15190  0.78762  0.34928  1.0000
  H   H5        1.0  0.23863  0.28160  0.20735  1.0000
  H   H6        1.0  0.23863  0.46108  0.20736  1.0000
  C   C9        1.0  0.20594  0.39569  0.34905  1.0000
  C   C10       1.0  0.20593  0.31429  0.34906  1.0000
  N   N5        1.0  0.23261  0.36833  0.34928  1.0000
  C   C11       1.0  0.23382  0.28640  0.35011  1.0000
  H   H7        1.0  0.23737  0.28285  0.49236  1.0000
  C   C12       1.0  0.23382  0.45147  0.35011  1.0000
  H   H8        1.0  0.23737  0.45856  0.49236  1.0000
  H   H9        1.0  0.23863  0.78160  0.20735  1.0000
  H   H10       1.0  0.23863  0.96108  0.20736  1.0000
  C   C13       1.0  0.20594  0.89569  0.34905  1.0000
  C   C14       1.0  0.20594  0.81429  0.34906  1.0000
  N   N6        1.0  0.23261  0.86833  0.34928  1.0000
  C   C15       1.0  0.23382  0.78641  0.35011  1.0000
  H   H11       1.0  0.23737  0.78285  0.49236  1.0000
  C   C16       1.0  0.23382  0.95147  0.35011  1.0000
  H   H12       1.0  0.23737  0.95856  0.49236  1.0000
  C   C17       1.0  0.27626  0.24396  0.26944  1.0000
  C   C18       1.0  0.24831  0.27192  0.26837  1.0000
  H   H13       1.0  0.28621  0.23402  0.20890  1.0000
  C   C19       1.0  0.27626  0.03635  0.26945  1.0000
  C   C20       1.0  0.24831  0.48044  0.26837  1.0000
  H   H14       1.0  0.28621  0.05625  0.20891  1.0000
  C   C21       1.0  0.48388  0.24396  0.26945  1.0000
  H   H15       1.0  0.46398  0.23401  0.20891  1.0000
  C   C22       1.0  0.31834  0.12050  0.34904  1.0000
  N   N7        1.0  0.37237  0.14786  0.34961  1.0000
  C   C23       1.0  0.39973  0.20189  0.34904  1.0000
  N   N8        1.0  0.37237  0.22855  0.34959  1.0000
  C   C24       1.0  0.31834  0.20189  0.34903  1.0000
  N   N9        1.0  0.29168  0.14786  0.34959  1.0000
  C   C25       1.0  0.24788  0.27235  0.43291  1.0000
  C   C26       1.0  0.27605  0.24417  0.43535  1.0000
  C   C27       1.0  0.29041  0.22982  0.35218  1.0000
  C   C28       1.0  0.29001  0.23022  0.52427  1.0000
  H   H16       1.0  0.27628  0.24394  0.58157  1.0000
  H   H17       1.0  0.33305  0.24829  0.52980  1.0000
  H   H18       1.0  0.27194  0.18717  0.52980  1.0000
  C   C29       1.0  0.24788  0.47957  0.43291  1.0000
  C   C30       1.0  0.27605  0.03593  0.43535  1.0000
  C   C31       1.0  0.29041  0.06464  0.35219  1.0000
  C   C32       1.0  0.29000  0.06382  0.52428  1.0000
  H   H19       1.0  0.27628  0.03638  0.58158  1.0000
  H   H20       1.0  0.27194  0.08881  0.52982  1.0000
  H   H21       1.0  0.33305  0.08881  0.52982  1.0000
  C   C33       1.0  0.48430  0.24417  0.43535  1.0000
  C   C34       1.0  0.45559  0.22982  0.35219  1.0000
  C   C35       1.0  0.45640  0.23022  0.52428  1.0000
  H   H22       1.0  0.48385  0.24395  0.58158  1.0000
  H   H23       1.0  0.43142  0.18718  0.52982  1.0000
  H   H24       1.0  0.43142  0.24829  0.52982  1.0000
  C   C36       1.0  0.27626  0.74396  0.26944  1.0000
  C   C37       1.0  0.24831  0.77192  0.26837  1.0000
  H   H25       1.0  0.28621  0.73402  0.20890  1.0000
  C   C38       1.0  0.27627  0.53635  0.26945  1.0000
  C   C39       1.0  0.24831  0.98044  0.26837  1.0000
  H   H26       1.0  0.28621  0.55625  0.20891  1.0000
  C   C40       1.0  0.48388  0.74396  0.26945  1.0000
  H   H27       1.0  0.46398  0.73401  0.20891  1.0000
  C   C41       1.0  0.31834  0.62049  0.34904  1.0000
  N   N10       1.0  0.37237  0.64786  0.34961  1.0000
  C   C42       1.0  0.39973  0.70189  0.34904  1.0000
  N   N11       1.0  0.37237  0.72855  0.34959  1.0000
  C   C43       1.0  0.31834  0.70189  0.34903  1.0000
  N   N12       1.0  0.29168  0.64786  0.34959  1.0000
  C   C44       1.0  0.24788  0.77235  0.43291  1.0000
  C   C45       1.0  0.27605  0.74417  0.43535  1.0000
  C   C46       1.0  0.29041  0.72982  0.35218  1.0000
  C   C47       1.0  0.29001  0.73022  0.52427  1.0000
  H   H28       1.0  0.27629  0.74394  0.58157  1.0000
  H   H29       1.0  0.33305  0.74829  0.52980  1.0000
  H   H30       1.0  0.27194  0.68718  0.52980  1.0000
  C   C48       1.0  0.24788  0.97957  0.43291  1.0000
  C   C49       1.0  0.27605  0.53593  0.43535  1.0000
  C   C50       1.0  0.29041  0.56464  0.35219  1.0000
  C   C51       1.0  0.29000  0.56382  0.52428  1.0000
  H   H31       1.0  0.27628  0.53638  0.58158  1.0000
  H   H32       1.0  0.27194  0.58881  0.52982  1.0000
  H   H33       1.0  0.33305  0.58881  0.52982  1.0000
  C   C52       1.0  0.48430  0.74417  0.43535  1.0000
  C   C53       1.0  0.45559  0.72982  0.35219  1.0000
  C   C54       1.0  0.45640  0.73022  0.52428  1.0000
  H   H34       1.0  0.48385  0.74394  0.58158  1.0000
  H   H35       1.0  0.43142  0.68718  0.52982  1.0000
  H   H36       1.0  0.43142  0.74829  0.52982  1.0000
  C   C55       1.0  0.77626  0.24396  0.26944  1.0000
  C   C56       1.0  0.74831  0.27192  0.26837  1.0000
  H   H37       1.0  0.78621  0.23402  0.20890  1.0000
  H   H38       1.0  0.73863  0.28160  0.20735  1.0000
  C   C57       1.0  0.77626  0.03635  0.26945  1.0000
  C   C58       1.0  0.74831  0.48044  0.26837  1.0000
  H   H39       1.0  0.78621  0.05625  0.20891  1.0000
  H   H40       1.0  0.73863  0.46108  0.20736  1.0000
  C   C59       1.0  0.98388  0.24396  0.26945  1.0000
  C   C60       1.0  0.53979  0.27192  0.26837  1.0000
  H   H41       1.0  0.96398  0.23401  0.20891  1.0000
  H   H42       1.0  0.55915  0.28160  0.20736  1.0000
  C   C61       1.0  0.70593  0.39569  0.34905  1.0000
  N   N13       1.0  0.65190  0.36833  0.34928  1.0000
  C   C62       1.0  0.62454  0.31429  0.34906  1.0000
  N   N14       1.0  0.65190  0.28762  0.34928  1.0000
  C   C63       1.0  0.70593  0.31429  0.34906  1.0000
  N   N15       1.0  0.73261  0.36833  0.34928  1.0000
  C   C64       1.0  0.81834  0.12050  0.34904  1.0000
  N   N16       1.0  0.87237  0.14786  0.34961  1.0000
  C   C65       1.0  0.89973  0.20189  0.34904  1.0000
  N   N17       1.0  0.87237  0.22855  0.34959  1.0000
  C   C66       1.0  0.81834  0.20189  0.34903  1.0000
  N   N18       1.0  0.79168  0.14786  0.34959  1.0000
  C   C67       1.0  0.73382  0.28640  0.35011  1.0000
  C   C68       1.0  0.74788  0.27235  0.43291  1.0000
  C   C69       1.0  0.77606  0.24417  0.43535  1.0000
  C   C70       1.0  0.79041  0.22982  0.35218  1.0000
  H   H43       1.0  0.73737  0.28285  0.49236  1.0000
  C   C71       1.0  0.79000  0.23022  0.52427  1.0000
  H   H44       1.0  0.77629  0.24394  0.58157  1.0000
  H   H45       1.0  0.83305  0.24829  0.52980  1.0000
  H   H46       1.0  0.77194  0.18717  0.52980  1.0000
  C   C72       1.0  0.73382  0.45147  0.35011  1.0000
  C   C73       1.0  0.74788  0.47957  0.43291  1.0000
  C   C74       1.0  0.77605  0.03593  0.43535  1.0000
  C   C75       1.0  0.79041  0.06464  0.35219  1.0000
  H   H47       1.0  0.73737  0.45856  0.49236  1.0000
  C   C76       1.0  0.79001  0.06382  0.52428  1.0000
  H   H48       1.0  0.77628  0.03638  0.58158  1.0000
  H   H49       1.0  0.77194  0.08881  0.52982  1.0000
  H   H50       1.0  0.83305  0.08881  0.52982  1.0000
  C   C77       1.0  0.56876  0.28640  0.35012  1.0000
  C   C78       1.0  0.54065  0.27235  0.43291  1.0000
  C   C79       1.0  0.98430  0.24417  0.43535  1.0000
  C   C80       1.0  0.95559  0.22982  0.35219  1.0000
  H   H51       1.0  0.56167  0.28286  0.49236  1.0000
  C   C81       1.0  0.95640  0.23022  0.52428  1.0000
  H   H52       1.0  0.98385  0.24395  0.58158  1.0000
  H   H53       1.0  0.93142  0.18718  0.52982  1.0000
  H   H54       1.0  0.93142  0.24829  0.52982  1.0000
  C   C82       1.0  0.77627  0.74396  0.26944  1.0000
  C   C83       1.0  0.74831  0.77192  0.26837  1.0000
  H   H55       1.0  0.78622  0.73402  0.20890  1.0000
  H   H56       1.0  0.73863  0.78160  0.20735  1.0000
  C   C84       1.0  0.77627  0.53635  0.26945  1.0000
  C   C85       1.0  0.74831  0.98044  0.26837  1.0000
  H   H57       1.0  0.78622  0.55625  0.20891  1.0000
  H   H58       1.0  0.73863  0.96108  0.20736  1.0000
  C   C86       1.0  0.98388  0.74396  0.26945  1.0000
  C   C87       1.0  0.53979  0.77192  0.26837  1.0000
  H   H59       1.0  0.96398  0.73401  0.20891  1.0000
  H   H60       1.0  0.55915  0.78160  0.20736  1.0000
  C   C88       1.0  0.70594  0.89569  0.34905  1.0000
  N   N19       1.0  0.65190  0.86833  0.34928  1.0000
  C   C89       1.0  0.62454  0.81429  0.34906  1.0000
  N   N20       1.0  0.65190  0.78762  0.34928  1.0000
  C   C90       1.0  0.70593  0.81429  0.34906  1.0000
  N   N21       1.0  0.73261  0.86833  0.34928  1.0000
  C   C91       1.0  0.81834  0.62049  0.34904  1.0000
  N   N22       1.0  0.87237  0.64786  0.34961  1.0000
  C   C92       1.0  0.89973  0.70189  0.34904  1.0000
  N   N23       1.0  0.87237  0.72855  0.34959  1.0000
  C   C93       1.0  0.81834  0.70189  0.34903  1.0000
  N   N24       1.0  0.79168  0.64786  0.34959  1.0000
  C   C94       1.0  0.73382  0.78641  0.35011  1.0000
  C   C95       1.0  0.74788  0.77235  0.43291  1.0000
  C   C96       1.0  0.77605  0.74417  0.43535  1.0000
  C   C97       1.0  0.79041  0.72982  0.35218  1.0000
  H   H61       1.0  0.73737  0.78285  0.49236  1.0000
  C   C98       1.0  0.79001  0.73022  0.52427  1.0000
  H   H62       1.0  0.77628  0.74394  0.58157  1.0000
  H   H63       1.0  0.83306  0.74829  0.52980  1.0000
  H   H64       1.0  0.77194  0.68718  0.52980  1.0000
  C   C99       1.0  0.73382  0.95147  0.35011  1.0000
  C   C100      1.0  0.74788  0.97957  0.43291  1.0000
  C   C101      1.0  0.77605  0.53593  0.43535  1.0000
  C   C102      1.0  0.79041  0.56464  0.35219  1.0000
  H   H65       1.0  0.73737  0.95856  0.49236  1.0000
  C   C103      1.0  0.79000  0.56382  0.52428  1.0000
  H   H66       1.0  0.77628  0.53638  0.58158  1.0000
  H   H67       1.0  0.77194  0.58881  0.52982  1.0000
  H   H68       1.0  0.83305  0.58881  0.52982  1.0000
  C   C104      1.0  0.56876  0.78641  0.35012  1.0000
  C   C105      1.0  0.54066  0.77235  0.43291  1.0000
  C   C106      1.0  0.98430  0.74417  0.43535  1.0000
  C   C107      1.0  0.95559  0.72982  0.35219  1.0000
  H   H69       1.0  0.56167  0.78286  0.49236  1.0000
  C   C108      1.0  0.95640  0.73022  0.52428  1.0000
  H   H70       1.0  0.98385  0.74394  0.58158  1.0000
  H   H71       1.0  0.93142  0.68718  0.52982  1.0000
  H   H72       1.0  0.93142  0.74829  0.52982  1.0000
