data_image0
_chemical_formula_structural       NC2HCH2NC2HCH2NC2HCH2CNCNCNC18H12NHNHNHCNCNCNC18H12NHNHNHCNC2NCH2CNC2NCH2CNC2NCH2
_chemical_formula_sum              "N21 C63 H45"
_cell_length_a       36.3617
_cell_length_b       36.3625
_cell_length_c       15.0416
_cell_angle_alpha    90
_cell_angle_beta     90
_cell_angle_gamma    120

_space_group_name_H-M_alt    "P 1"
_space_group_IT_number       1

loop_
  _space_group_symop_operation_xyz
  'x, y, z'

loop_
  _atom_site_type_symbol
  _atom_site_label
  _atom_site_symmetry_multiplicity
  _atom_site_fract_x
  _atom_site_fract_y
  _atom_site_fract_z
  _atom_site_occupancy
  N   N1        1.0  0.48430  0.51330  0.26774  1.0000
  C   C1        1.0  0.51605  0.50508  0.25054  1.0000
  C   C2        1.0  0.53123  0.49032  0.32012  1.0000
  H   H1        1.0  0.52833  0.50951  0.18780  1.0000
  C   C3        1.0  0.56488  0.47950  0.30457  1.0000
  H   H2        1.0  0.55316  0.45473  0.25352  1.0000
  H   H3        1.0  0.59330  0.50738  0.27894  1.0000
  N   N2        1.0  0.48321  0.97029  0.26768  1.0000
  C   C4        1.0  0.49143  0.01026  0.25048  1.0000
  C   C5        1.0  0.50617  0.04019  0.32006  1.0000
  H   H4        1.0  0.48700  0.01811  0.18773  1.0000
  C   C6        1.0  0.51699  0.08465  0.30451  1.0000
  H   H5        1.0  0.54177  0.09772  0.25346  1.0000
  H   H6        1.0  0.48911  0.08520  0.27887  1.0000
  N   N3        1.0  0.02626  0.51228  0.26770  1.0000
  C   C7        1.0  0.98628  0.48053  0.25050  1.0000
  C   C8        1.0  0.95635  0.46534  0.32008  1.0000
  H   H7        1.0  0.97843  0.46825  0.18775  1.0000
  C   C9        1.0  0.91189  0.43168  0.30453  1.0000
  H   H8        1.0  0.89881  0.44339  0.25350  1.0000
  H   H9        1.0  0.91135  0.40327  0.27887  1.0000
  C   C10       1.0  0.28784  0.64772  0.30938  1.0000
  N   N4        1.0  0.30607  0.62296  0.30894  1.0000
  C   C11       1.0  0.34883  0.63942  0.30935  1.0000
  N   N5        1.0  0.37359  0.68241  0.30892  1.0000
  C   C12       1.0  0.35713  0.70871  0.30935  1.0000
  N   N6        1.0  0.31414  0.69048  0.30894  1.0000
  C   C13       1.0  0.36686  0.61268  0.30423  1.0000
  C   C14       1.0  0.34268  0.56883  0.32491  1.0000
  C   C15       1.0  0.36031  0.54224  0.31708  1.0000
  C   C16       1.0  0.40244  0.55887  0.28713  1.0000
  C   C17       1.0  0.42673  0.60229  0.26610  1.0000
  C   C18       1.0  0.40930  0.62894  0.27529  1.0000
  C   C19       1.0  0.24307  0.62970  0.30426  1.0000
  C   C20       1.0  0.21688  0.58726  0.27531  1.0000
  C   C21       1.0  0.17281  0.56985  0.26608  1.0000
  C   C22       1.0  0.15368  0.59414  0.28711  1.0000
  C   C23       1.0  0.17919  0.63627  0.31708  1.0000
  C   C24       1.0  0.22340  0.65389  0.32492  1.0000
  C   C25       1.0  0.38387  0.75348  0.30418  1.0000
  C   C26       1.0  0.36761  0.77966  0.27521  1.0000
  C   C27       1.0  0.39425  0.82372  0.26604  1.0000
  C   C28       1.0  0.43768  0.84287  0.28706  1.0000
  C   C29       1.0  0.45431  0.81737  0.31701  1.0000
  C   C30       1.0  0.42773  0.77316  0.32484  1.0000
  H   H10       1.0  0.15469  0.53925  0.24420  1.0000
  H   H11       1.0  0.22963  0.56873  0.25834  1.0000
  H   H12       1.0  0.16570  0.65431  0.33234  1.0000
  H   H13       1.0  0.24101  0.68461  0.34642  1.0000
  H   H14       1.0  0.33631  0.76690  0.25835  1.0000
  H   H15       1.0  0.38176  0.84185  0.24419  1.0000
  H   H16       1.0  0.44085  0.75556  0.34636  1.0000
  H   H17       1.0  0.48585  0.83087  0.33226  1.0000
  H   H18       1.0  0.42783  0.66023  0.25834  1.0000
  H   H19       1.0  0.45733  0.61477  0.24422  1.0000
  H   H20       1.0  0.34227  0.51070  0.33234  1.0000
  H   H21       1.0  0.31196  0.55571  0.34640  1.0000
  N   N7        1.0  0.42169  0.53378  0.27704  1.0000
  H   H22       1.0  0.40363  0.50853  0.23579  1.0000
  N   N8        1.0  0.46276  0.88721  0.27698  1.0000
  H   H23       1.0  0.48801  0.89441  0.23573  1.0000
  N   N9        1.0  0.10934  0.57490  0.27701  1.0000
  H   H24       1.0  0.10216  0.59297  0.23577  1.0000
  C   C31       1.0  0.70801  0.34940  0.34628  1.0000
  N   N10       1.0  0.68988  0.37424  0.34678  1.0000
  C   C32       1.0  0.64714  0.35789  0.34621  1.0000
  N   N11       1.0  0.62229  0.31491  0.34674  1.0000
  C   C33       1.0  0.63865  0.28852  0.34621  1.0000
  N   N12       1.0  0.68163  0.30666  0.34678  1.0000
  C   C34       1.0  0.62925  0.38473  0.35253  1.0000
  C   C35       1.0  0.65353  0.42866  0.33271  1.0000
  C   C36       1.0  0.63621  0.45542  0.34271  1.0000
  C   C37       1.0  0.59430  0.43888  0.37402  1.0000
  C   C38       1.0  0.56987  0.39534  0.39394  1.0000
  C   C39       1.0  0.58698  0.36853  0.38257  1.0000
  C   C40       1.0  0.75273  0.36728  0.35258  1.0000
  C   C41       1.0  0.77881  0.40954  0.38268  1.0000
  C   C42       1.0  0.82273  0.42666  0.39399  1.0000
  C   C43       1.0  0.84184  0.40224  0.37403  1.0000
  C   C44       1.0  0.81647  0.36033  0.34268  1.0000
  C   C45       1.0  0.77239  0.34301  0.33271  1.0000
  C   C46       1.0  0.61180  0.24380  0.35251  1.0000
  C   C47       1.0  0.62798  0.21772  0.38256  1.0000
  C   C48       1.0  0.60115  0.17380  0.39393  1.0000
  C   C49       1.0  0.55762  0.15470  0.37397  1.0000
  C   C50       1.0  0.54110  0.18008  0.34260  1.0000
  C   C51       1.0  0.56786  0.22416  0.33262  1.0000
  H   H25       1.0  0.84075  0.45709  0.41690  1.0000
  H   H26       1.0  0.76604  0.42812  0.39915  1.0000
  H   H27       1.0  0.82996  0.34219  0.32822  1.0000
  H   H28       1.0  0.75486  0.31240  0.31053  1.0000
  H   H29       1.0  0.65931  0.23048  0.39911  1.0000
  H   H30       1.0  0.61355  0.15578  0.41686  1.0000
  H   H31       1.0  0.55479  0.24170  0.31046  1.0000
  H   H32       1.0  0.50947  0.16661  0.32814  1.0000
  H   H33       1.0  0.56840  0.33718  0.39904  1.0000
  H   H34       1.0  0.53944  0.38293  0.41682  1.0000
  H   H35       1.0  0.65436  0.48705  0.32828  1.0000
  H   H36       1.0  0.68415  0.44175  0.31056  1.0000
  N   N13       1.0  0.57545  0.46418  0.38683  1.0000
  H   H37       1.0  0.59394  0.48908  0.42852  1.0000
  N   N14       1.0  0.53231  0.11056  0.38677  1.0000
  H   H38       1.0  0.50740  0.10414  0.42843  1.0000
  N   N15       1.0  0.88599  0.42109  0.38681  1.0000
  H   H39       1.0  0.89242  0.40261  0.42846  1.0000
  C   C52       1.0  0.46563  0.50803  0.34888  1.0000
  N   N16       1.0  0.51271  0.48501  0.40130  1.0000
  C   C53       1.0  0.48095  0.49325  0.41898  1.0000
  C   C54       1.0  0.46652  0.48706  0.49995  1.0000
  N   N17       1.0  0.45384  0.48162  0.57149  1.0000
  C   C55       1.0  0.43181  0.51914  0.36092  1.0000
  H   H40       1.0  0.44317  0.54439  0.41088  1.0000
  H   H41       1.0  0.40314  0.49154  0.38657  1.0000
  C   C56       1.0  0.48848  0.95690  0.34882  1.0000
  N   N18       1.0  0.51148  0.02698  0.40125  1.0000
  C   C57       1.0  0.50325  0.98699  0.41893  1.0000
  C   C58       1.0  0.50944  0.97876  0.49990  1.0000
  N   N19       1.0  0.51488  0.97152  0.57145  1.0000
  C   C59       1.0  0.47738  0.91197  0.36087  1.0000
  H   H42       1.0  0.45213  0.89807  0.41081  1.0000
  H   H43       1.0  0.50499  0.91090  0.38652  1.0000
  C   C60       1.0  0.03965  0.53094  0.34884  1.0000
  N   N20       1.0  0.96956  0.48386  0.40127  1.0000
  C   C61       1.0  0.00956  0.51562  0.41894  1.0000
  C   C62       1.0  0.01779  0.53004  0.49992  1.0000
  N   N21       1.0  0.02502  0.54271  0.57147  1.0000
  C   C63       1.0  0.08458  0.56477  0.36089  1.0000
  H   H44       1.0  0.09848  0.55342  0.41085  1.0000
  H   H45       1.0  0.08564  0.59344  0.38654  1.0000
