data_image0
_chemical_formula_structural       C8H6NC2H2C8H6NC2H2C8H6NC2H2C6H5NCHC8H6NC2H2C8H6NC2H2C2ONC3NOCHNC3NOCHNC3NOCHNC3NOCHNC3NOCHNC3NOCHNC3NOCHNC3NOCHNC10H4CNCNHCHCHC10H4CNCNHCHCHC10H4CNCNHCHCHC8H4CNCNHC2HC10H4CNCNHCHCHC10H4CNCNHCHCHCNCHC3NOCHNC3NOCHNC3NOCHNC3NOCHNC3NOCHNC3NOCHNC3NOCHNC3NOCHNC2HCHCNCHC2HC2ON
_chemical_formula_sum              "C216 H108 N54 O18"
_cell_length_a       77.9761
_cell_length_b       77.9761
_cell_length_c       14.8429
_cell_angle_alpha    90
_cell_angle_beta     90
_cell_angle_gamma    120

_space_group_name_H-M_alt    "P 1"
_space_group_IT_number       1

loop_
  _space_group_symop_operation_xyz
  'x, y, z'

loop_
  _atom_site_type_symbol
  _atom_site_label
  _atom_site_symmetry_multiplicity
  _atom_site_fract_x
  _atom_site_fract_y
  _atom_site_fract_z
  _atom_site_occupancy
  C   C1        1.0  0.12544  0.56759  0.34577  1.0000
  C   C2        1.0  0.08289  0.54898  0.36051  1.0000
  C   C3        1.0  0.09512  0.56981  0.36308  1.0000
  C   C4        1.0  0.11584  0.57887  0.35530  1.0000
  C   C5        1.0  0.18369  0.64082  0.37096  1.0000
  C   C6        1.0  0.19683  0.66136  0.38052  1.0000
  C   C7        1.0  0.19319  0.53827  0.30431  1.0000
  C   C8        1.0  0.18075  0.54657  0.31152  1.0000
  H   H1        1.0  0.08905  0.57870  0.37169  1.0000
  H   H2        1.0  0.12386  0.59398  0.35884  1.0000
  H   H3        1.0  0.16944  0.63506  0.39325  1.0000
  H   H4        1.0  0.19163  0.66987  0.40864  1.0000
  H   H5        1.0  0.18742  0.52435  0.27782  1.0000
  H   H6        1.0  0.16647  0.53852  0.28905  1.0000
  N   N1        1.0  0.15790  0.59732  0.34018  1.0000
  C   C9        1.0  0.14667  0.57710  0.34179  1.0000
  C   C10       1.0  0.06257  0.54065  0.37491  1.0000
  H   H7        1.0  0.05816  0.54795  0.41484  1.0000
  H   H8        1.0  0.22228  0.53070  0.27089  1.0000
  C   C11       1.0  0.44566  0.56053  0.34585  1.0000
  C   C12       1.0  0.46427  0.53658  0.36055  1.0000
  C   C13       1.0  0.44344  0.52798  0.36319  1.0000
  C   C14       1.0  0.43438  0.53965  0.35548  1.0000
  C   C15       1.0  0.37242  0.54553  0.37093  1.0000
  C   C16       1.0  0.35189  0.53814  0.38052  1.0000
  C   C17       1.0  0.47498  0.65760  0.30449  1.0000
  C   C18       1.0  0.46667  0.63685  0.31151  1.0000
  H   H9        1.0  0.43455  0.51302  0.37178  1.0000
  H   H10       1.0  0.41927  0.53256  0.35899  1.0000
  H   H11       1.0  0.37818  0.53708  0.39361  1.0000
  H   H12       1.0  0.34338  0.52446  0.40895  1.0000
  H   H13       1.0  0.48892  0.66575  0.27819  1.0000
  H   H14       1.0  0.47474  0.63062  0.28940  1.0000
  N   N2        1.0  0.41592  0.56325  0.34022  1.0000
  C   C19       1.0  0.43615  0.57224  0.34184  1.0000
  C   C20       1.0  0.47259  0.52459  0.37480  1.0000
  H   H15       1.0  0.46530  0.51287  0.41474  1.0000
  H   H16       1.0  0.48258  0.69427  0.27107  1.0000
  C   C21       1.0  0.45272  0.88780  0.34583  1.0000
  C   C22       1.0  0.47668  0.93036  0.36049  1.0000
  C   C23       1.0  0.48527  0.91812  0.36316  1.0000
  C   C24       1.0  0.47360  0.89740  0.35541  1.0000
  C   C25       1.0  0.46769  0.82955  0.37099  1.0000
  C   C26       1.0  0.47508  0.81641  0.38057  1.0000
  C   C27       1.0  0.35565  0.82006  0.30431  1.0000
  C   C28       1.0  0.37639  0.83250  0.31151  1.0000
  H   H17       1.0  0.50022  0.92419  0.37178  1.0000
  H   H18       1.0  0.48068  0.88937  0.35901  1.0000
  H   H19       1.0  0.47615  0.84377  0.39361  1.0000
  H   H20       1.0  0.48876  0.82158  0.40892  1.0000
  H   H21       1.0  0.34750  0.82582  0.27773  1.0000
  H   H22       1.0  0.38263  0.84678  0.28899  1.0000
  N   N3        1.0  0.44998  0.85534  0.34025  1.0000
  C   C29       1.0  0.44100  0.86658  0.34187  1.0000
  C   C30       1.0  0.48867  0.95068  0.37478  1.0000
  H   H23       1.0  0.50039  0.95510  0.41474  1.0000
  H   H24       1.0  0.31899  0.79097  0.27086  1.0000
  C   C31       1.0  0.89044  0.44297  0.33884  1.0000
  C   C32       1.0  0.89998  0.43169  0.32710  1.0000
  C   C33       1.0  0.83219  0.36977  0.37586  1.0000
  C   C34       1.0  0.81907  0.34922  0.38498  1.0000
  C   C35       1.0  0.82262  0.47220  0.31008  1.0000
  C   C36       1.0  0.83511  0.46398  0.31773  1.0000
  H   H25       1.0  0.89192  0.41659  0.32214  1.0000
  H   H26       1.0  0.84652  0.37547  0.39677  1.0000
  H   H27       1.0  0.82435  0.34064  0.41148  1.0000
  H   H28       1.0  0.82821  0.48588  0.28120  1.0000
  H   H29       1.0  0.84923  0.47182  0.29308  1.0000
  N   N4        1.0  0.85792  0.41327  0.34294  1.0000
  C   C37       1.0  0.86922  0.43349  0.34325  1.0000
  H   H30       1.0  0.79351  0.47970  0.27768  1.0000
  C   C38       1.0  0.57029  0.45015  0.33887  1.0000
  C   C39       1.0  0.55172  0.47413  0.32378  1.0000
  C   C40       1.0  0.57253  0.48265  0.31925  1.0000
  C   C41       1.0  0.58157  0.47098  0.32717  1.0000
  C   C42       1.0  0.64349  0.46511  0.37582  1.0000
  C   C43       1.0  0.66404  0.47254  0.38494  1.0000
  C   C44       1.0  0.54105  0.35310  0.31015  1.0000
  C   C45       1.0  0.54929  0.37382  0.31769  1.0000
  H   H31       1.0  0.58141  0.49757  0.30913  1.0000
  H   H32       1.0  0.59666  0.47801  0.32223  1.0000
  H   H33       1.0  0.63779  0.47375  0.39663  1.0000
  H   H34       1.0  0.67263  0.48642  0.41133  1.0000
  H   H35       1.0  0.52735  0.34500  0.28145  1.0000
  H   H36       1.0  0.54142  0.38009  0.29335  1.0000
  N   N5        1.0  0.59999  0.44733  0.34295  1.0000
  C   C46       1.0  0.57976  0.43841  0.34325  1.0000
  C   C47       1.0  0.54338  0.48611  0.30939  1.0000
  H   H37       1.0  0.55064  0.49780  0.26923  1.0000
  H   H38       1.0  0.53352  0.31647  0.27786  1.0000
  C   C48       1.0  0.56309  0.12281  0.33882  1.0000
  C   C49       1.0  0.53911  0.08026  0.32381  1.0000
  C   C50       1.0  0.53059  0.09254  0.31928  1.0000
  C   C51       1.0  0.54227  0.11326  0.32713  1.0000
  C   C52       1.0  0.54813  0.18104  0.37572  1.0000
  C   C53       1.0  0.54070  0.19417  0.38491  1.0000
  C   C54       1.0  0.66015  0.19063  0.31021  1.0000
  C   C55       1.0  0.63943  0.17815  0.31765  1.0000
  H   H39       1.0  0.51568  0.08651  0.30923  1.0000
  H   H40       1.0  0.53524  0.12132  0.32227  1.0000
  H   H41       1.0  0.53952  0.16673  0.39688  1.0000
  H   H42       1.0  0.52685  0.18890  0.41158  1.0000
  H   H43       1.0  0.66826  0.18502  0.28153  1.0000
  H   H44       1.0  0.63316  0.16400  0.29337  1.0000
  N   N6        1.0  0.56591  0.15532  0.34288  1.0000
  C   C56       1.0  0.57484  0.14403  0.34319  1.0000
  C   C57       1.0  0.52712  0.05993  0.30956  1.0000
  H   H45       1.0  0.51543  0.05550  0.26944  1.0000
  H   H46       1.0  0.69679  0.21971  0.27795  1.0000
  C   C58       1.0  0.02949  0.51567  0.34073  1.0000
  C   C59       1.0  0.01807  0.50565  0.26423  1.0000
  O   O1        1.0  0.02510  0.50462  0.18162  1.0000
  N   N7        1.0  0.04928  0.52487  0.33514  1.0000
  C   C60       1.0  0.49760  0.51652  0.34074  1.0000
  C   C61       1.0  0.50761  0.51511  0.26423  1.0000
  C   C62       1.0  0.51748  0.50423  0.26567  1.0000
  N   N8        1.0  0.52469  0.50536  0.18322  1.0000
  O   O2        1.0  0.50864  0.52318  0.18163  1.0000
  C   C63       1.0  0.51938  0.51656  0.13533  1.0000
  H   H47       1.0  0.52303  0.51984  0.06901  1.0000
  N   N9        1.0  0.48839  0.52709  0.33514  1.0000
  C   C64       1.0  0.49675  0.98376  0.34072  1.0000
  C   C65       1.0  0.49816  0.99518  0.26423  1.0000
  C   C66       1.0  0.50904  0.01592  0.26568  1.0000
  N   N10       1.0  0.50791  0.02201  0.18325  1.0000
  O   O3        1.0  0.49009  0.98815  0.18161  1.0000
  C   C67       1.0  0.49671  0.00551  0.13534  1.0000
  H   H48       1.0  0.49343  0.00588  0.06902  1.0000
  N   N11       1.0  0.48617  0.96397  0.33510  1.0000
  C   C68       1.0  0.29520  0.54583  0.33566  1.0000
  C   C69       1.0  0.28276  0.54175  0.26004  1.0000
  C   C70       1.0  0.26488  0.54180  0.26626  1.0000
  N   N12       1.0  0.25741  0.53887  0.18340  1.0000
  O   O4        1.0  0.28668  0.53880  0.17383  1.0000
  C   C71       1.0  0.27026  0.53681  0.13074  1.0000
  H   H49       1.0  0.26827  0.53462  0.06286  1.0000
  N   N13       1.0  0.31339  0.54883  0.32487  1.0000
  C   C72       1.0  0.46740  0.75204  0.33574  1.0000
  C   C73       1.0  0.47149  0.74369  0.26010  1.0000
  C   C74       1.0  0.47144  0.72576  0.26629  1.0000
  N   N14       1.0  0.47437  0.72122  0.18342  1.0000
  O   O5        1.0  0.47443  0.75055  0.17390  1.0000
  C   C75       1.0  0.47643  0.73613  0.13079  1.0000
  H   H50       1.0  0.47861  0.73633  0.06290  1.0000
  N   N15       1.0  0.46438  0.76721  0.32498  1.0000
  C   C76       1.0  0.26120  0.71804  0.33575  1.0000
  C   C77       1.0  0.26955  0.73047  0.26012  1.0000
  C   C78       1.0  0.28748  0.74836  0.26632  1.0000
  N   N16       1.0  0.29202  0.75583  0.18345  1.0000
  O   O6        1.0  0.26269  0.72655  0.17391  1.0000
  C   C79       1.0  0.27711  0.74298  0.13081  1.0000
  H   H51       1.0  0.27691  0.74496  0.06293  1.0000
  N   N17       1.0  0.24603  0.69985  0.32500  1.0000
  C   C80       1.0  0.72061  0.46461  0.34226  1.0000
  C   C81       1.0  0.73307  0.46867  0.26675  1.0000
  C   C82       1.0  0.75097  0.46865  0.27324  1.0000
  N   N18       1.0  0.75849  0.47160  0.19046  1.0000
  O   O7        1.0  0.72919  0.47160  0.18047  1.0000
  C   C83       1.0  0.74565  0.47363  0.13760  1.0000
  H   H52       1.0  0.74767  0.47582  0.06974  1.0000
  N   N19       1.0  0.70240  0.46156  0.33141  1.0000
  C   C84       1.0  0.54863  0.25867  0.34218  1.0000
  C   C85       1.0  0.54457  0.26707  0.26669  1.0000
  C   C86       1.0  0.54460  0.28499  0.27317  1.0000
  N   N20       1.0  0.54166  0.28957  0.19039  1.0000
  O   O8        1.0  0.54163  0.26026  0.18040  1.0000
  C   C87       1.0  0.53961  0.27470  0.13753  1.0000
  H   H53       1.0  0.53742  0.27453  0.06967  1.0000
  N   N21       1.0  0.55166  0.24350  0.33129  1.0000
  C   C88       1.0  0.75457  0.29264  0.34232  1.0000
  C   C89       1.0  0.74618  0.28018  0.26679  1.0000
  C   C90       1.0  0.72826  0.26229  0.27324  1.0000
  N   N22       1.0  0.72369  0.25478  0.19044  1.0000
  O   O9        1.0  0.75299  0.28408  0.18051  1.0000
  C   C91       1.0  0.73857  0.26762  0.13761  1.0000
  H   H54       1.0  0.73874  0.26561  0.06974  1.0000
  N   N23       1.0  0.76971  0.31085  0.33150  1.0000
  C   C92       1.0  0.19036  0.62818  0.33741  1.0000
  C   C93       1.0  0.18819  0.56616  0.34290  1.0000
  C   C94       1.0  0.11309  0.54670  0.34238  1.0000
  C   C95       1.0  0.09225  0.53756  0.34936  1.0000
  C   C96       1.0  0.21696  0.67003  0.35490  1.0000
  C   C97       1.0  0.22344  0.65751  0.31810  1.0000
  C   C98       1.0  0.21042  0.63704  0.30973  1.0000
  C   C99       1.0  0.20826  0.57665  0.37121  1.0000
  C   C100      1.0  0.22057  0.56836  0.36490  1.0000
  C   C101      1.0  0.21340  0.54908  0.32997  1.0000
  H   H55       1.0  0.21602  0.62862  0.28482  1.0000
  H   H56       1.0  0.23796  0.66300  0.30059  1.0000
  H   H57       1.0  0.21444  0.59081  0.39523  1.0000
  H   H58       1.0  0.23510  0.57696  0.38325  1.0000
  C   C102      1.0  0.17673  0.57583  0.34133  1.0000
  N   N24       1.0  0.18670  0.59587  0.33842  1.0000
  C   C103      1.0  0.17803  0.60715  0.33713  1.0000
  N   N25       1.0  0.15654  0.56667  0.34206  1.0000
  H   H59       1.0  0.11917  0.53779  0.33586  1.0000
  C   C104      1.0  0.22610  0.54158  0.31523  1.0000
  H   H60       1.0  0.08401  0.52243  0.34874  1.0000
  C   C105      1.0  0.23036  0.68985  0.37306  1.0000
  H   H61       1.0  0.22824  0.69607  0.42734  1.0000
  C   C106      1.0  0.38506  0.56483  0.33727  1.0000
  C   C107      1.0  0.44706  0.62470  0.34272  1.0000
  C   C108      1.0  0.46655  0.56907  0.34239  1.0000
  C   C109      1.0  0.47568  0.55736  0.34937  1.0000
  C   C110      1.0  0.34320  0.54958  0.35471  1.0000
  C   C111      1.0  0.35572  0.56857  0.31778  1.0000
  C   C112      1.0  0.37619  0.57601  0.30943  1.0000
  C   C113      1.0  0.43655  0.63427  0.37082  1.0000
  C   C114      1.0  0.44485  0.65488  0.36450  1.0000
  C   C115      1.0  0.46415  0.66699  0.32987  1.0000
  H   H62       1.0  0.38462  0.59004  0.28446  1.0000
  H   H63       1.0  0.35024  0.57760  0.30018  1.0000
  H   H64       1.0  0.42239  0.62628  0.39479  1.0000
  H   H65       1.0  0.43624  0.66080  0.38282  1.0000
  C   C116      1.0  0.43740  0.60357  0.34126  1.0000
  N   N26       1.0  0.41736  0.59349  0.33835  1.0000
  C   C117      1.0  0.40609  0.57354  0.33716  1.0000
  N   N27       1.0  0.44657  0.59254  0.34205  1.0000
  H   H66       1.0  0.47545  0.58405  0.33580  1.0000
  C   C118      1.0  0.47167  0.68720  0.31525  1.0000
  H   H67       1.0  0.49081  0.56424  0.34862  1.0000
  C   C119      1.0  0.32339  0.54318  0.37300  1.0000
  H   H68       1.0  0.31720  0.53489  0.42742  1.0000
  C   C120      1.0  0.44838  0.82289  0.33741  1.0000
  C   C121      1.0  0.38853  0.82506  0.34295  1.0000
  C   C122      1.0  0.44418  0.90016  0.34238  1.0000
  C   C123      1.0  0.45589  0.92100  0.34930  1.0000
  C   C124      1.0  0.46363  0.79627  0.35485  1.0000
  C   C125      1.0  0.44464  0.78981  0.31800  1.0000
  C   C126      1.0  0.43720  0.80284  0.30957  1.0000
  C   C127      1.0  0.37896  0.80499  0.37127  1.0000
  C   C128      1.0  0.35835  0.79268  0.36502  1.0000
  C   C129      1.0  0.34624  0.79985  0.33002  1.0000
  H   H69       1.0  0.42317  0.79724  0.28462  1.0000
  H   H70       1.0  0.43561  0.77530  0.30032  1.0000
  H   H71       1.0  0.38694  0.79882  0.39538  1.0000
  H   H72       1.0  0.35242  0.77815  0.38337  1.0000
  C   C130      1.0  0.40967  0.83651  0.34139  1.0000
  N   N28       1.0  0.41974  0.82654  0.33849  1.0000
  C   C131      1.0  0.43969  0.83522  0.33725  1.0000
  N   N29       1.0  0.42070  0.85671  0.34213  1.0000
  H   H73       1.0  0.42920  0.89408  0.33578  1.0000
  C   C132      1.0  0.32604  0.78714  0.31523  1.0000
  H   H74       1.0  0.44901  0.92925  0.34858  1.0000
  C   C133      1.0  0.47004  0.78287  0.37307  1.0000
  H   H75       1.0  0.47836  0.78499  0.42740  1.0000
  C   C134      1.0  0.82541  0.38249  0.34470  1.0000
  C   C135      1.0  0.82787  0.44464  0.35215  1.0000
  C   C136      1.0  0.79883  0.34062  0.36120  1.0000
  C   C137      1.0  0.79223  0.35323  0.32681  1.0000
  C   C138      1.0  0.80524  0.37371  0.31884  1.0000
  C   C139      1.0  0.80799  0.43438  0.38308  1.0000
  C   C140      1.0  0.79563  0.44261  0.37633  1.0000
  C   C141      1.0  0.80256  0.46159  0.33819  1.0000
  H   H76       1.0  0.79957  0.38220  0.29557  1.0000
  H   H77       1.0  0.77765  0.34779  0.31054  1.0000
  H   H78       1.0  0.80198  0.42041  0.40924  1.0000
  H   H79       1.0  0.78122  0.43415  0.39657  1.0000
  C   C142      1.0  0.83925  0.43489  0.34998  1.0000
  N   N30       1.0  0.82919  0.41484  0.34834  1.0000
  C   C143      1.0  0.83779  0.40350  0.34455  1.0000
  N   N31       1.0  0.85942  0.44398  0.34616  1.0000
  H   H80       1.0  0.89680  0.47273  0.35240  1.0000
  C   C144      1.0  0.78976  0.46896  0.32273  1.0000
  C   C145      1.0  0.78548  0.32077  0.37903  1.0000
  H   H81       1.0  0.78772  0.31447  0.43262  1.0000
  C   C146      1.0  0.63077  0.44560  0.34470  1.0000
  C   C147      1.0  0.56862  0.38591  0.35210  1.0000
  C   C148      1.0  0.54943  0.44169  0.34420  1.0000
  C   C149      1.0  0.54031  0.45341  0.33704  1.0000
  C   C150      1.0  0.67265  0.46091  0.36115  1.0000
  C   C151      1.0  0.66004  0.44170  0.32674  1.0000
  C   C152      1.0  0.63955  0.43422  0.31891  1.0000
  C   C153      1.0  0.57889  0.37630  0.38294  1.0000
  C   C154      1.0  0.57067  0.35570  0.37610  1.0000
  C   C155      1.0  0.55168  0.34365  0.33811  1.0000
  H   H82       1.0  0.63106  0.42005  0.29568  1.0000
  H   H83       1.0  0.66547  0.43255  0.31065  1.0000
  H   H84       1.0  0.59288  0.38426  0.40897  1.0000
  H   H85       1.0  0.57914  0.34975  0.39626  1.0000
  C   C156      1.0  0.57837  0.40704  0.34996  1.0000
  N   N32       1.0  0.59842  0.41703  0.34831  1.0000
  C   C157      1.0  0.60975  0.43697  0.34452  1.0000
  N   N33       1.0  0.56928  0.41813  0.34615  1.0000
  H   H86       1.0  0.54052  0.42675  0.35234  1.0000
  C   C158      1.0  0.54431  0.32349  0.32269  1.0000
  H   H87       1.0  0.52519  0.44657  0.33918  1.0000
  C   C159      1.0  0.69249  0.46741  0.37893  1.0000
  H   H88       1.0  0.69878  0.47592  0.43266  1.0000
  C   C160      1.0  0.56763  0.18783  0.34451  1.0000
  C   C161      1.0  0.62733  0.18540  0.35190  1.0000
  C   C162      1.0  0.57156  0.11041  0.34416  1.0000
  C   C163      1.0  0.55984  0.08958  0.33702  1.0000
  C   C164      1.0  0.55232  0.21440  0.36097  1.0000
  C   C165      1.0  0.57152  0.22099  0.32644  1.0000
  C   C166      1.0  0.57900  0.20799  0.31860  1.0000
  C   C167      1.0  0.63694  0.20529  0.38269  1.0000
  C   C168      1.0  0.65754  0.21765  0.37586  1.0000
  C   C169      1.0  0.66959  0.21070  0.33803  1.0000
  H   H89       1.0  0.59316  0.21367  0.29532  1.0000
  H   H90       1.0  0.58066  0.23558  0.31029  1.0000
  H   H91       1.0  0.62898  0.21131  0.40873  1.0000
  H   H92       1.0  0.66349  0.23207  0.39609  1.0000
  C   C170      1.0  0.60620  0.17401  0.34977  1.0000
  N   N34       1.0  0.59620  0.18406  0.34815  1.0000
  C   C171      1.0  0.57627  0.17546  0.34443  1.0000
  N   N35       1.0  0.59512  0.15383  0.34604  1.0000
  H   H93       1.0  0.58650  0.11645  0.35230  1.0000
  C   C172      1.0  0.68976  0.22349  0.32268  1.0000
  H   H94       1.0  0.56668  0.08130  0.33923  1.0000
  C   C173      1.0  0.54583  0.22775  0.37889  1.0000
  H   H95       1.0  0.53738  0.22555  0.43277  1.0000
  C   C174      1.0  0.01857  0.51473  0.41877  1.0000
  N   N36       1.0  0.02466  0.52196  0.50119  1.0000
  C   C175      1.0  0.00815  0.51666  0.54908  1.0000
  H   H96       1.0  0.00852  0.52032  0.61537  1.0000
  C   C176      1.0  0.51842  0.49424  0.34370  1.0000
  C   C177      1.0  0.50840  0.49565  0.42021  1.0000
  C   C178      1.0  0.49854  0.50653  0.41877  1.0000
  N   N37       1.0  0.49130  0.50539  0.50119  1.0000
  O   O10       1.0  0.50736  0.48757  0.50280  1.0000
  C   C179      1.0  0.49661  0.49418  0.54908  1.0000
  H   H97       1.0  0.49294  0.49089  0.61537  1.0000
  N   N38       1.0  0.52763  0.48367  0.34932  1.0000
  C   C180      1.0  0.51903  0.02685  0.34371  1.0000
  C   C181      1.0  0.51762  0.01542  0.42021  1.0000
  C   C182      1.0  0.50674  0.99468  0.41877  1.0000
  N   N39       1.0  0.50788  0.98859  0.50117  1.0000
  O   O11       1.0  0.52569  0.02245  0.50281  1.0000
  C   C183      1.0  0.51908  0.00509  0.54908  1.0000
  H   H98       1.0  0.52238  0.00472  0.61537  1.0000
  N   N40       1.0  0.52960  0.04663  0.34936  1.0000
  C   C184      1.0  0.25820  0.54582  0.34795  1.0000
  C   C185      1.0  0.27082  0.55022  0.42319  1.0000
  C   C186      1.0  0.28873  0.55025  0.41685  1.0000
  N   N41       1.0  0.29788  0.55654  0.49576  1.0000
  O   O12       1.0  0.26852  0.55637  0.50590  1.0000
  C   C187      1.0  0.28556  0.55961  0.54749  1.0000
  H   H99       1.0  0.28924  0.56525  0.61115  1.0000
  N   N42       1.0  0.24309  0.54908  0.35424  1.0000
  C   C188      1.0  0.46742  0.71505  0.34796  1.0000
  C   C189      1.0  0.46302  0.72326  0.42323  1.0000
  C   C190      1.0  0.46298  0.74114  0.41691  1.0000
  N   N43       1.0  0.45668  0.74400  0.49581  1.0000
  O   O13       1.0  0.45686  0.71480  0.50591  1.0000
  C   C191      1.0  0.45361  0.72859  0.54751  1.0000
  H   H100      1.0  0.44797  0.72663  0.61116  1.0000
  N   N44       1.0  0.46415  0.69668  0.35420  1.0000
  C   C192      1.0  0.29818  0.75505  0.34800  1.0000
  C   C193      1.0  0.28997  0.74243  0.42326  1.0000
  C   C194      1.0  0.27209  0.72452  0.41694  1.0000
  N   N45       1.0  0.26923  0.71537  0.49584  1.0000
  O   O14       1.0  0.29843  0.74474  0.50596  1.0000
  C   C195      1.0  0.28463  0.72770  0.54756  1.0000
  H   H101      1.0  0.28659  0.72402  0.61121  1.0000
  N   N46       1.0  0.31655  0.77016  0.35428  1.0000
  C   C196      1.0  0.75763  0.46467  0.35508  1.0000
  C   C197      1.0  0.74498  0.46028  0.43020  1.0000
  C   C198      1.0  0.72707  0.46023  0.42360  1.0000
  N   N47       1.0  0.71788  0.45397  0.50248  1.0000
  O   O15       1.0  0.74727  0.45418  0.51307  1.0000
  C   C199      1.0  0.73021  0.45094  0.55443  1.0000
  H   H102      1.0  0.72651  0.44533  0.61813  1.0000
  N   N48       1.0  0.77279  0.46150  0.36185  1.0000
  C   C200      1.0  0.54859  0.29564  0.35502  1.0000
  C   C201      1.0  0.55297  0.28737  0.43013  1.0000
  C   C202      1.0  0.55301  0.26950  0.42352  1.0000
  N   N49       1.0  0.55928  0.26658  0.50238  1.0000
  O   O16       1.0  0.55908  0.29576  0.51299  1.0000
  C   C203      1.0  0.56232  0.28194  0.55434  1.0000
  H   H103      1.0  0.56793  0.28385  0.61804  1.0000
  N   N50       1.0  0.55177  0.31397  0.36174  1.0000
  C   C204      1.0  0.71761  0.25562  0.35506  1.0000
  C   C205      1.0  0.72586  0.26826  0.43020  1.0000
  C   C206      1.0  0.74373  0.28618  0.42364  1.0000
  N   N51       1.0  0.74663  0.29536  0.50250  1.0000
  O   O17       1.0  0.71746  0.26598  0.51303  1.0000
  C   C207      1.0  0.73127  0.28304  0.55443  1.0000
  H   H104      1.0  0.72935  0.28673  0.61811  1.0000
  N   N52       1.0  0.69927  0.24048  0.36171  1.0000
  C   C208      1.0  0.93299  0.46153  0.32378  1.0000
  C   C209      1.0  0.92070  0.44073  0.31922  1.0000
  H   H105      1.0  0.92673  0.43184  0.30906  1.0000
  C   C210      1.0  0.95332  0.46987  0.30947  1.0000
  H   H106      1.0  0.95774  0.46262  0.26927  1.0000
  C   C211      1.0  0.99733  0.49579  0.26567  1.0000
  N   N53       1.0  0.99124  0.48857  0.18322  1.0000
  C   C212      1.0  0.00775  0.49388  0.13533  1.0000
  H   H107      1.0  0.00738  0.49023  0.06902  1.0000
  C   C213      1.0  0.90284  0.46383  0.34422  1.0000
  C   C214      1.0  0.92367  0.47294  0.33707  1.0000
  H   H108      1.0  0.93195  0.48806  0.33927  1.0000
  C   C215      1.0  0.98640  0.49485  0.34369  1.0000
  C   C216      1.0  0.99782  0.50487  0.42020  1.0000
  O   O18       1.0  0.99079  0.50591  0.50280  1.0000
  N   N54       1.0  0.96662  0.48563  0.34934  1.0000
