data_image0
_chemical_formula_structural       CH2C2HCNC4H2CH3CH4C2H2CH3CH4CHCH5C24H15C24H15C4NC2NCH2CHC4NC2NCH2CHC2NC2H3
_chemical_formula_sum              "C84 H66 N6"
_cell_length_a       30.0926
_cell_length_b       30.0926
_cell_length_c       14.9324
_cell_angle_alpha    90
_cell_angle_beta     90
_cell_angle_gamma    120

_space_group_name_H-M_alt    "P 1"
_space_group_IT_number       1

loop_
  _space_group_symop_operation_xyz
  'x, y, z'

loop_
  _atom_site_type_symbol
  _atom_site_label
  _atom_site_symmetry_multiplicity
  _atom_site_fract_x
  _atom_site_fract_y
  _atom_site_fract_z
  _atom_site_occupancy
  C   C1        1.0  0.03096  0.49713  0.27465  1.0000
  H   H1        1.0  0.03595  0.61072  0.06622  1.0000
  H   H2        1.0  0.02168  0.55128  0.11691  1.0000
  C   C2        1.0  0.03050  0.52218  0.42809  1.0000
  C   C3        1.0  0.02960  0.54382  0.58478  1.0000
  H   H3        1.0  0.04941  0.49744  0.21691  1.0000
  C   C4        1.0  0.05051  0.58479  0.08086  1.0000
  N   N1        1.0  0.05333  0.54323  0.50751  1.0000
  C   C5        1.0  0.05934  0.52438  0.35111  1.0000
  C   C6        1.0  0.06633  0.56885  0.66033  1.0000
  C   C7        1.0  0.53525  0.50766  0.27393  1.0000
  C   C8        1.0  0.50855  0.53496  0.27462  1.0000
  H   H4        1.0  0.50823  0.55309  0.21688  1.0000
  H   H5        1.0  0.55372  0.50811  0.21654  1.0000
  C   C9        1.0  0.54584  0.46492  0.03841  1.0000
  H   H6        1.0  0.46338  0.41163  0.03401  1.0000
  H   H7        1.0  0.54618  0.49963  0.06056  1.0000
  H   H8        1.0  0.54948  0.44501  0.09659  1.0000
  C   C10       1.0  0.42087  0.46682  0.08081  1.0000
  H   H9        1.0  0.46201  0.53871  0.01207  1.0000
  H   H10       1.0  0.39497  0.42632  0.06620  1.0000
  H   H11       1.0  0.40076  0.48010  0.12449  1.0000
  H   H12       1.0  0.45440  0.47155  0.11687  1.0000
  C   C11       1.0  0.49802  0.02871  0.27393  1.0000
  C   C12       1.0  0.47075  0.97470  0.27462  1.0000
  H   H13       1.0  0.45262  0.95625  0.21688  1.0000
  H   H14       1.0  0.49758  0.04672  0.21653  1.0000
  C   C13       1.0  0.54030  0.08174  0.03837  1.0000
  H   H15       1.0  0.59401  0.05307  0.03406  1.0000
  H   H16       1.0  0.50574  0.04723  0.06052  1.0000
  H   H17       1.0  0.56009  0.10538  0.09653  1.0000
  C   C14       1.0  0.53904  0.95523  0.08064  1.0000
  H   H18       1.0  0.46691  0.92515  0.01281  1.0000
  H   H19       1.0  0.57945  0.96970  0.06539  1.0000
  H   H20       1.0  0.52585  0.92183  0.12427  1.0000
  H   H21       1.0  0.53460  0.98410  0.11706  1.0000
  C   C15       1.0  0.97696  0.47042  0.27395  1.0000
  H   H22       1.0  0.95894  0.45196  0.21656  1.0000
  C   C16       1.0  0.92357  0.45983  0.03845  1.0000
  H   H23       1.0  0.95283  0.54230  0.03403  1.0000
  H   H24       1.0  0.95792  0.45944  0.06060  1.0000
  H   H25       1.0  0.90004  0.45623  0.09664  1.0000
  H   H26       1.0  0.08113  0.54352  0.01214  1.0000
  H   H27       1.0  0.08390  0.60487  0.12454  1.0000
  C   C17       1.0  0.28144  0.64030  0.33906  1.0000
  C   C18       1.0  0.31093  0.61543  0.33890  1.0000
  C   C19       1.0  0.36537  0.64226  0.33907  1.0000
  C   C20       1.0  0.39024  0.69662  0.33891  1.0000
  C   C21       1.0  0.36342  0.72423  0.33906  1.0000
  C   C22       1.0  0.30905  0.69474  0.33890  1.0000
  C   C23       1.0  0.39419  0.61554  0.34109  1.0000
  C   C24       1.0  0.37537  0.56773  0.38540  1.0000
  C   C25       1.0  0.40323  0.54158  0.38724  1.0000
  C   C26       1.0  0.45257  0.56267  0.34813  1.0000
  C   C27       1.0  0.47155  0.61038  0.30373  1.0000
  C   C28       1.0  0.44292  0.63574  0.29944  1.0000
  C   C29       1.0  0.22590  0.61148  0.34109  1.0000
  C   C30       1.0  0.19737  0.56275  0.29946  1.0000
  C   C31       1.0  0.14337  0.53412  0.30375  1.0000
  C   C32       1.0  0.11465  0.55310  0.34817  1.0000
  C   C33       1.0  0.14290  0.60244  0.38726  1.0000
  C   C34       1.0  0.19691  0.63030  0.38540  1.0000
  C   C35       1.0  0.39013  0.77977  0.34110  1.0000
  C   C36       1.0  0.36995  0.80830  0.29943  1.0000
  C   C37       1.0  0.39531  0.86230  0.30373  1.0000
  C   C38       1.0  0.44300  0.89102  0.34819  1.0000
  C   C39       1.0  0.46408  0.86277  0.38732  1.0000
  C   C40       1.0  0.43793  0.80875  0.38543  1.0000
  H   H28       1.0  0.12519  0.49870  0.27425  1.0000
  H   H29       1.0  0.21556  0.54738  0.26417  1.0000
  H   H30       1.0  0.12439  0.61915  0.41738  1.0000
  H   H31       1.0  0.21477  0.66466  0.41834  1.0000
  H   H32       1.0  0.33639  0.79011  0.26414  1.0000
  H   H33       1.0  0.37808  0.88048  0.27420  1.0000
  H   H34       1.0  0.45442  0.79089  0.41842  1.0000
  H   H35       1.0  0.49929  0.88128  0.41746  1.0000
  H   H36       1.0  0.45829  0.66930  0.26416  1.0000
  H   H37       1.0  0.50697  0.62762  0.27422  1.0000
  H   H38       1.0  0.38653  0.50636  0.41736  1.0000
  H   H39       1.0  0.34101  0.55122  0.41834  1.0000
  H   H40       1.0  0.29204  0.57629  0.33924  1.0000
  H   H41       1.0  0.28881  0.71364  0.33924  1.0000
  H   H42       1.0  0.42938  0.71687  0.33926  1.0000
  C   C41       1.0  0.72544  0.36274  0.33586  1.0000
  C   C42       1.0  0.69734  0.38909  0.33577  1.0000
  C   C43       1.0  0.64294  0.36383  0.33587  1.0000
  C   C44       1.0  0.61659  0.30938  0.33576  1.0000
  C   C45       1.0  0.64185  0.28023  0.33585  1.0000
  C   C46       1.0  0.69630  0.30834  0.33574  1.0000
  C   C47       1.0  0.61574  0.39226  0.33745  1.0000
  C   C48       1.0  0.63592  0.44128  0.29688  1.0000
  C   C49       1.0  0.61019  0.46959  0.30109  1.0000
  C   C50       1.0  0.56201  0.44995  0.34411  1.0000
  C   C51       1.0  0.54081  0.40021  0.38162  1.0000
  C   C52       1.0  0.56738  0.37274  0.38012  1.0000
  C   C53       1.0  0.78107  0.38993  0.33745  1.0000
  C   C54       1.0  0.80991  0.43830  0.38012  1.0000
  C   C55       1.0  0.86395  0.46485  0.38165  1.0000
  C   C56       1.0  0.89249  0.44365  0.34414  1.0000
  C   C57       1.0  0.86395  0.39548  0.30110  1.0000
  C   C58       1.0  0.80992  0.36976  0.29686  1.0000
  C   C59       1.0  0.61342  0.22460  0.33743  1.0000
  C   C60       1.0  0.63296  0.19576  0.38005  1.0000
  C   C61       1.0  0.60549  0.14173  0.38154  1.0000
  C   C62       1.0  0.55575  0.11318  0.34408  1.0000
  C   C63       1.0  0.53610  0.14172  0.30107  1.0000
  C   C64       1.0  0.56439  0.19575  0.29688  1.0000
  H   H43       1.0  0.88226  0.50037  0.41068  1.0000
  H   H44       1.0  0.79196  0.45492  0.41236  1.0000
  H   H45       1.0  0.88228  0.37806  0.27282  1.0000
  H   H46       1.0  0.79195  0.33584  0.26262  1.0000
  H   H47       1.0  0.66754  0.21372  0.41227  1.0000
  H   H48       1.0  0.62272  0.12343  0.41055  1.0000
  H   H49       1.0  0.54842  0.21372  0.26267  1.0000
  H   H50       1.0  0.50034  0.12338  0.27285  1.0000
  H   H51       1.0  0.55075  0.33816  0.41234  1.0000
  H   H52       1.0  0.50529  0.38300  0.41065  1.0000
  H   H53       1.0  0.62761  0.50534  0.27283  1.0000
  H   H54       1.0  0.66985  0.45724  0.26264  1.0000
  H   H55       1.0  0.71727  0.42821  0.33602  1.0000
  H   H56       1.0  0.71549  0.28841  0.33598  1.0000
  H   H57       1.0  0.57747  0.29019  0.33601  1.0000
  C   C65       1.0  0.48129  0.53608  0.35109  1.0000
  C   C66       1.0  0.48351  0.50946  0.42807  1.0000
  C   C67       1.0  0.50947  0.48097  0.42624  1.0000
  C   C68       1.0  0.53563  0.47891  0.34858  1.0000
  N   N2        1.0  0.50955  0.45711  0.50310  1.0000
  C   C69       1.0  0.48648  0.45696  0.58130  1.0000
  C   C70       1.0  0.46189  0.48694  0.58477  1.0000
  N   N3        1.0  0.46246  0.51124  0.50749  1.0000
  C   C71       1.0  0.49558  0.42927  0.65472  1.0000
  H   H58       1.0  0.49899  0.39742  0.62700  1.0000
  H   H59       1.0  0.57888  0.47601  0.66143  1.0000
  C   C72       1.0  0.43676  0.49856  0.66026  1.0000
  H   H60       1.0  0.40139  0.49560  0.63407  1.0000
  C   C73       1.0  0.46962  0.94633  0.35110  1.0000
  C   C74       1.0  0.49626  0.97517  0.42806  1.0000
  C   C75       1.0  0.52477  0.02963  0.42619  1.0000
  C   C76       1.0  0.52680  0.05784  0.34855  1.0000
  N   N4        1.0  0.54863  0.05358  0.50304  1.0000
  C   C77       1.0  0.54882  0.03068  0.58124  1.0000
  C   C78       1.0  0.51873  0.97612  0.58480  1.0000
  N   N5        1.0  0.49441  0.95236  0.50755  1.0000
  C   C79       1.0  0.57624  0.06749  0.65476  1.0000
  H   H61       1.0  0.60796  0.10288  0.62716  1.0000
  H   H62       1.0  0.52899  0.10349  0.66133  1.0000
  C   C80       1.0  0.50689  0.93947  0.66054  1.0000
  H   H63       1.0  0.50920  0.90668  0.63446  1.0000
  C   C81       1.0  0.97604  0.49619  0.42627  1.0000
  C   C82       1.0  0.94783  0.47003  0.34861  1.0000
  N   N6        1.0  0.95211  0.49609  0.50313  1.0000
  C   C83       1.0  0.97502  0.51914  0.58134  1.0000
  C   C84       1.0  0.93823  0.51009  0.65475  1.0000
  H   H64       1.0  0.90300  0.50673  0.62701  1.0000
  H   H65       1.0  0.90159  0.42679  0.66149  1.0000
  H   H66       1.0  0.09881  0.60419  0.63418  1.0000
