data_image0
_chemical_formula_structural       C12H6CH2C2O2C12H6CH2C2O2C12H6CH2C2O2CNCHNHCNCHNHCNCHNHCNCHNHCNCHNHCNCHNHC12H6C2H2C2O2C12H6C2H2C2O2C12H6C2H2C2O2NC3H3NHNC3H3NHNC3H3NHNC3H3NHNC3H3NHNC3H3NH
_chemical_formula_sum              "C123 H84 O12 N24"
_cell_length_a       34.312
_cell_length_b       34.3121
_cell_length_c       15.0911
_cell_angle_alpha    90
_cell_angle_beta     90
_cell_angle_gamma    120

_space_group_name_H-M_alt    "P 1"
_space_group_IT_number       1

loop_
  _space_group_symop_operation_xyz
  'x, y, z'

loop_
  _atom_site_type_symbol
  _atom_site_label
  _atom_site_symmetry_multiplicity
  _atom_site_fract_x
  _atom_site_fract_y
  _atom_site_fract_z
  _atom_site_occupancy
  C   C1        1.0  0.96605  0.50929  0.27201  1.0000
  C   C2        1.0  0.96854  0.51147  0.17796  1.0000
  C   C3        1.0  0.02245  0.48247  0.17795  1.0000
  C   C4        1.0  0.02491  0.48462  0.27201  1.0000
  C   C5        1.0  0.05670  0.47559  0.31361  1.0000
  C   C6        1.0  0.08520  0.46505  0.26404  1.0000
  C   C7        1.0  0.07854  0.45892  0.17169  1.0000
  C   C8        1.0  0.04785  0.46797  0.12897  1.0000
  C   C9        1.0  0.94311  0.52593  0.12898  1.0000
  C   C10       1.0  0.91240  0.53496  0.17169  1.0000
  C   C11       1.0  0.90575  0.52885  0.26405  1.0000
  C   C12       1.0  0.93427  0.51833  0.31362  1.0000
  H   H1        1.0  0.06222  0.57933  0.27220  1.0000
  H   H2        1.0  0.92866  0.41461  0.27209  1.0000
  H   H3        1.0  0.09735  0.44973  0.13371  1.0000
  H   H4        1.0  0.04573  0.46585  0.06122  1.0000
  H   H5        1.0  0.94527  0.52811  0.06123  1.0000
  H   H6        1.0  0.89363  0.54420  0.13371  1.0000
  C   C13       1.0  0.99549  0.49696  0.12646  1.0000
  H   H7        1.0  0.01851  0.52497  0.08402  1.0000
  H   H8        1.0  0.97246  0.46894  0.08404  1.0000
  C   C14       1.0  0.86903  0.52992  0.30456  1.0000
  C   C15       1.0  0.12194  0.46400  0.30454  1.0000
  O   O1        1.0  0.11729  0.66926  0.27024  1.0000
  O   O2        1.0  0.87346  0.32464  0.27012  1.0000
  C   C16       1.0  0.48311  0.45518  0.27206  1.0000
  C   C17       1.0  0.48094  0.45549  0.17800  1.0000
  C   C18       1.0  0.50993  0.53841  0.17803  1.0000
  C   C19       1.0  0.50780  0.53872  0.27209  1.0000
  C   C20       1.0  0.51686  0.57954  0.31371  1.0000
  C   C21       1.0  0.52738  0.61857  0.26415  1.0000
  C   C22       1.0  0.53352  0.61806  0.17180  1.0000
  C   C23       1.0  0.52440  0.57830  0.12905  1.0000
  C   C24       1.0  0.46647  0.41560  0.12901  1.0000
  C   C25       1.0  0.45743  0.37586  0.17172  1.0000
  C   C26       1.0  0.46355  0.37532  0.26407  1.0000
  C   C27       1.0  0.47407  0.41435  0.31366  1.0000
  H   H9        1.0  0.41311  0.48141  0.27221  1.0000
  H   H10       1.0  0.57782  0.51253  0.27219  1.0000
  H   H11       1.0  0.54270  0.64605  0.13380  1.0000
  H   H12       1.0  0.52656  0.57831  0.06131  1.0000
  H   H13       1.0  0.46429  0.41559  0.06127  1.0000
  H   H14       1.0  0.44820  0.34785  0.13373  1.0000
  C   C28       1.0  0.49543  0.49695  0.12652  1.0000
  H   H15       1.0  0.46740  0.49195  0.08412  1.0000
  H   H16       1.0  0.52343  0.50195  0.08405  1.0000
  C   C29       1.0  0.46249  0.33753  0.30455  1.0000
  C   C30       1.0  0.52846  0.65637  0.30465  1.0000
  O   O3        1.0  0.32317  0.44662  0.27022  1.0000
  O   O4        1.0  0.66775  0.54734  0.27019  1.0000
  C   C31       1.0  0.53724  0.02641  0.27204  1.0000
  C   C32       1.0  0.53695  0.02393  0.17798  1.0000
  C   C33       1.0  0.45404  0.96998  0.17793  1.0000
  C   C34       1.0  0.45371  0.96751  0.27198  1.0000
  C   C35       1.0  0.41288  0.93573  0.31356  1.0000
  C   C36       1.0  0.37385  0.90725  0.26398  1.0000
  C   C37       1.0  0.37439  0.91391  0.17162  1.0000
  C   C38       1.0  0.41416  0.94453  0.12891  1.0000
  C   C39       1.0  0.57685  0.04939  0.12903  1.0000
  C   C40       1.0  0.61658  0.08006  0.17178  1.0000
  C   C41       1.0  0.61706  0.08674  0.26411  1.0000
  C   C42       1.0  0.57805  0.05819  0.31369  1.0000
  H   H17       1.0  0.51108  0.93020  0.27219  1.0000
  H   H18       1.0  0.47992  0.06376  0.27210  1.0000
  H   H19       1.0  0.34640  0.89511  0.13360  1.0000
  H   H20       1.0  0.41416  0.94671  0.06117  1.0000
  H   H21       1.0  0.57688  0.04720  0.06129  1.0000
  H   H22       1.0  0.64458  0.09890  0.13380  1.0000
  C   C43       1.0  0.49551  0.99694  0.12646  1.0000
  H   H23       1.0  0.50053  0.97392  0.08409  1.0000
  H   H24       1.0  0.49051  0.01994  0.08396  1.0000
  C   C44       1.0  0.65483  0.12350  0.30462  1.0000
  C   C45       1.0  0.33602  0.87055  0.30446  1.0000
  O   O5        1.0  0.54593  0.87511  0.27024  1.0000
  O   O6        1.0  0.44516  0.11894  0.27009  1.0000
  C   C46       1.0  0.20029  0.48313  0.29494  1.0000
  N   N1        1.0  0.27098  0.48757  0.27162  1.0000
  C   C47       1.0  0.23409  0.48646  0.23711  1.0000
  H   H25       1.0  0.23084  0.48694  0.16985  1.0000
  N   N2        1.0  0.16252  0.48161  0.26271  1.0000
  H   H26       1.0  0.16554  0.49498  0.20428  1.0000
  C   C48       1.0  0.50946  0.71568  0.29503  1.0000
  N   N3        1.0  0.50508  0.78197  0.27171  1.0000
  C   C49       1.0  0.50621  0.74621  0.23720  1.0000
  H   H27       1.0  0.50567  0.74244  0.16995  1.0000
  N   N4        1.0  0.51092  0.67941  0.26282  1.0000
  H   H28       1.0  0.49755  0.66907  0.20438  1.0000
  C   C50       1.0  0.27671  0.79224  0.29489  1.0000
  N   N5        1.0  0.21042  0.72157  0.27162  1.0000
  C   C51       1.0  0.24617  0.75845  0.23708  1.0000
  H   H29       1.0  0.24992  0.76167  0.16982  1.0000
  N   N6        1.0  0.31297  0.82997  0.26264  1.0000
  H   H30       1.0  0.32330  0.82693  0.20419  1.0000
  C   C52       1.0  0.79070  0.51088  0.29492  1.0000
  N   N7        1.0  0.72002  0.50646  0.27160  1.0000
  C   C53       1.0  0.75691  0.50759  0.23709  1.0000
  H   H31       1.0  0.76015  0.50708  0.16983  1.0000
  N   N8        1.0  0.82845  0.51237  0.26270  1.0000
  H   H32       1.0  0.82543  0.49901  0.20425  1.0000
  C   C54       1.0  0.48166  0.27833  0.29492  1.0000
  N   N9        1.0  0.48612  0.21209  0.27156  1.0000
  C   C55       1.0  0.48498  0.24785  0.23707  1.0000
  H   H33       1.0  0.48551  0.25162  0.16982  1.0000
  N   N10       1.0  0.48012  0.31456  0.26271  1.0000
  H   H34       1.0  0.49346  0.32491  0.20426  1.0000
  C   C56       1.0  0.71403  0.20186  0.29496  1.0000
  N   N11       1.0  0.78028  0.27253  0.27156  1.0000
  C   C57       1.0  0.74450  0.23565  0.23710  1.0000
  H   H35       1.0  0.74073  0.23240  0.16985  1.0000
  N   N12       1.0  0.67779  0.16409  0.26278  1.0000
  H   H36       1.0  0.66742  0.16708  0.20434  1.0000
  C   C58       1.0  0.96508  0.45548  0.38113  1.0000
  C   C59       1.0  0.96727  0.45578  0.47525  1.0000
  C   C60       1.0  0.02365  0.53805  0.47530  1.0000
  C   C61       1.0  0.02586  0.53839  0.38119  1.0000
  C   C62       1.0  0.05046  0.57754  0.52451  1.0000
  C   C63       1.0  0.08201  0.61687  0.48186  1.0000
  C   C64       1.0  0.08788  0.61738  0.38929  1.0000
  C   C65       1.0  0.05835  0.57886  0.33954  1.0000
  C   C66       1.0  0.93260  0.41502  0.33941  1.0000
  C   C67       1.0  0.90300  0.37652  0.38912  1.0000
  C   C68       1.0  0.90888  0.37697  0.48169  1.0000
  C   C69       1.0  0.94048  0.41626  0.52439  1.0000
  H   H37       1.0  0.88900  0.34925  0.51964  1.0000
  H   H38       1.0  0.94229  0.41628  0.59218  1.0000
  H   H39       1.0  0.04858  0.57750  0.59230  1.0000
  H   H40       1.0  0.10180  0.64460  0.51984  1.0000
  H   H41       1.0  0.06088  0.47941  0.38085  1.0000
  H   H42       1.0  0.93004  0.51445  0.38085  1.0000
  C   C70       1.0  0.99547  0.49694  0.32659  1.0000
  C   C71       1.0  0.99547  0.49690  0.52675  1.0000
  H   H43       1.0  0.97322  0.50306  0.56920  1.0000
  H   H44       1.0  0.01770  0.49072  0.56916  1.0000
  C   C72       1.0  0.12467  0.65494  0.34876  1.0000
  C   C73       1.0  0.86612  0.33905  0.34858  1.0000
  O   O7        1.0  0.11589  0.44667  0.38735  1.0000
  O   O8        1.0  0.87508  0.54723  0.38738  1.0000
  C   C74       1.0  0.53690  0.50799  0.38122  1.0000
  C   C75       1.0  0.53658  0.50986  0.47533  1.0000
  C   C76       1.0  0.45433  0.48402  0.47534  1.0000
  C   C77       1.0  0.45400  0.48589  0.38122  1.0000
  C   C78       1.0  0.41483  0.47136  0.52452  1.0000
  C   C79       1.0  0.37552  0.46361  0.48184  1.0000
  C   C80       1.0  0.37504  0.46900  0.38926  1.0000
  C   C81       1.0  0.41353  0.47791  0.33953  1.0000
  C   C82       1.0  0.57736  0.51594  0.33953  1.0000
  C   C83       1.0  0.61588  0.52492  0.38924  1.0000
  C   C84       1.0  0.61541  0.53030  0.48182  1.0000
  C   C85       1.0  0.57608  0.52251  0.52451  1.0000
  H   H45       1.0  0.64313  0.53821  0.51978  1.0000
  H   H46       1.0  0.57607  0.52438  0.59229  1.0000
  H   H47       1.0  0.41484  0.46949  0.59230  1.0000
  H   H48       1.0  0.34779  0.45571  0.51980  1.0000
  H   H49       1.0  0.51299  0.57987  0.38093  1.0000
  H   H50       1.0  0.47793  0.41400  0.38088  1.0000
  C   C86       1.0  0.49545  0.49694  0.32665  1.0000
  C   C87       1.0  0.49545  0.49693  0.52681  1.0000
  H   H51       1.0  0.48926  0.46850  0.56922  1.0000
  H   H52       1.0  0.50165  0.52534  0.56926  1.0000
  C   C88       1.0  0.33753  0.46833  0.34873  1.0000
  C   C89       1.0  0.65342  0.52564  0.34871  1.0000
  O   O9        1.0  0.54579  0.66765  0.38746  1.0000
  O   O10       1.0  0.44524  0.32628  0.38742  1.0000
  C   C90       1.0  0.48437  0.02734  0.38113  1.0000
  C   C91       1.0  0.48246  0.02513  0.47525  1.0000
  C   C92       1.0  0.50838  0.96877  0.47530  1.0000
  C   C93       1.0  0.50653  0.96658  0.38118  1.0000
  C   C94       1.0  0.52110  0.94198  0.52451  1.0000
  C   C95       1.0  0.52893  0.91047  0.48185  1.0000
  C   C96       1.0  0.52351  0.90456  0.38928  1.0000
  C   C97       1.0  0.51454  0.93410  0.33953  1.0000
  C   C98       1.0  0.47640  0.05982  0.33942  1.0000
  C   C99       1.0  0.46750  0.08942  0.38914  1.0000
  C   C100      1.0  0.46207  0.08354  0.48171  1.0000
  C   C101      1.0  0.46975  0.05193  0.52440  1.0000
  H   H53       1.0  0.45421  0.10340  0.51967  1.0000
  H   H54       1.0  0.46795  0.05011  0.59219  1.0000
  H   H55       1.0  0.52293  0.94386  0.59229  1.0000
  H   H56       1.0  0.53680  0.89063  0.51985  1.0000
  H   H57       1.0  0.41251  0.93155  0.38080  1.0000
  H   H58       1.0  0.57835  0.06244  0.38089  1.0000
  C   C102      1.0  0.49546  0.99696  0.32659  1.0000
  C   C103      1.0  0.49542  0.99695  0.52675  1.0000
  H   H59       1.0  0.52382  0.01920  0.56919  1.0000
  H   H60       1.0  0.46700  0.97471  0.56917  1.0000
  C   C104      1.0  0.52424  0.86775  0.34877  1.0000
  C   C105      1.0  0.46686  0.12628  0.34861  1.0000
  O   O11       1.0  0.32477  0.87661  0.38729  1.0000
  O   O12       1.0  0.66612  0.11748  0.38744  1.0000
  N   N13       1.0  0.20770  0.48296  0.38330  1.0000
  C   C106      1.0  0.24496  0.48503  0.41910  1.0000
  C   C107      1.0  0.27794  0.48658  0.36007  1.0000
  C   C108      1.0  0.24801  0.48393  0.51673  1.0000
  H   H61       1.0  0.21796  0.48077  0.54849  1.0000
  H   H62       1.0  0.27706  0.51492  0.54022  1.0000
  H   H63       1.0  0.25154  0.45527  0.53674  1.0000
  N   N14       1.0  0.31616  0.48800  0.38907  1.0000
  H   H64       1.0  0.32874  0.50427  0.44417  1.0000
  N   N15       1.0  0.50962  0.72327  0.38339  1.0000
  C   C109      1.0  0.50757  0.75847  0.41919  1.0000
  C   C110      1.0  0.50605  0.78992  0.36016  1.0000
  C   C111      1.0  0.50865  0.76262  0.51682  1.0000
  H   H65       1.0  0.51179  0.73571  0.54859  1.0000
  H   H66       1.0  0.47766  0.76068  0.54028  1.0000
  H   H67       1.0  0.53730  0.79478  0.53686  1.0000
  N   N16       1.0  0.50462  0.82671  0.38915  1.0000
  H   H68       1.0  0.48835  0.82302  0.44426  1.0000
  N   N17       1.0  0.26914  0.78483  0.38325  1.0000
  C   C112      1.0  0.23395  0.74759  0.41907  1.0000
  C   C113      1.0  0.20250  0.71461  0.36008  1.0000
  C   C114      1.0  0.22983  0.74454  0.51671  1.0000
  H   H69       1.0  0.25673  0.77458  0.54845  1.0000
  H   H70       1.0  0.23178  0.71548  0.54017  1.0000
  H   H71       1.0  0.19765  0.74101  0.53678  1.0000
  N   N18       1.0  0.16572  0.67638  0.38910  1.0000
  H   H72       1.0  0.16942  0.66381  0.44421  1.0000
  N   N19       1.0  0.78329  0.51105  0.38328  1.0000
  C   C115      1.0  0.74603  0.50899  0.41907  1.0000
  C   C116      1.0  0.71305  0.50744  0.36004  1.0000
  C   C117      1.0  0.74297  0.51007  0.51671  1.0000
  H   H73       1.0  0.77302  0.51323  0.54847  1.0000
  H   H74       1.0  0.71392  0.47907  0.54018  1.0000
  H   H75       1.0  0.73943  0.53872  0.53674  1.0000
  N   N20       1.0  0.67482  0.50599  0.38904  1.0000
  H   H76       1.0  0.66224  0.48972  0.44415  1.0000
  N   N21       1.0  0.48147  0.27072  0.38327  1.0000
  C   C118      1.0  0.48355  0.23553  0.41905  1.0000
  C   C119      1.0  0.48512  0.20412  0.36000  1.0000
  C   C120      1.0  0.48241  0.23134  0.51667  1.0000
  H   H77       1.0  0.47923  0.25822  0.54846  1.0000
  H   H78       1.0  0.51339  0.23328  0.54020  1.0000
  H   H79       1.0  0.45375  0.19915  0.53663  1.0000
  N   N22       1.0  0.48654  0.16732  0.38897  1.0000
  H   H80       1.0  0.50279  0.17099  0.44408  1.0000
  N   N23       1.0  0.72165  0.20927  0.38331  1.0000
  C   C121      1.0  0.75686  0.24654  0.41907  1.0000
  C   C122      1.0  0.78827  0.27950  0.36001  1.0000
  C   C123      1.0  0.76106  0.24959  0.51669  1.0000
  H   H81       1.0  0.73417  0.21954  0.54849  1.0000
  H   H82       1.0  0.75914  0.27864  0.54023  1.0000
  H   H83       1.0  0.79324  0.25310  0.53663  1.0000
  N   N24       1.0  0.82508  0.31772  0.38896  1.0000
  H   H84       1.0  0.82142  0.33032  0.44405  1.0000
