data_image0
_chemical_formula_structural       C2H3C2HCH2NHC3HCH3CH2C3HCH3CH2C2HCH2NC18H12NHNHNC18H12NHNHNHC3HCH3CH2C3HCH3CH2C2H3
_chemical_formula_sum              "C66 H66 N8"
_cell_length_a       32.507
_cell_length_b       32.5082
_cell_length_c       14.8344
_cell_angle_alpha    90
_cell_angle_beta     90
_cell_angle_gamma    119.999

_space_group_name_H-M_alt    "P 1"
_space_group_IT_number       1

loop_
  _space_group_symop_operation_xyz
  'x, y, z'

loop_
  _atom_site_type_symbol
  _atom_site_label
  _atom_site_symmetry_multiplicity
  _atom_site_fract_x
  _atom_site_fract_y
  _atom_site_fract_z
  _atom_site_occupancy
  C   C1        1.0  0.03819  0.52457  0.26714  1.0000
  C   C2        1.0  0.06742  0.54368  0.18398  1.0000
  H   H1        1.0  0.08424  0.52284  0.16724  1.0000
  H   H2        1.0  0.09486  0.58060  0.19438  1.0000
  H   H3        1.0  0.04651  0.54270  0.12557  1.0000
  C   C3        1.0  0.05830  0.52172  0.35054  1.0000
  C   C4        1.0  0.02786  0.50259  0.42605  1.0000
  H   H4        1.0  0.04210  0.50055  0.48628  1.0000
  C   C5        1.0  0.11001  0.53730  0.36094  1.0000
  H   H5        1.0  0.11957  0.51929  0.30990  1.0000
  H   H6        1.0  0.11694  0.52641  0.42637  1.0000
  N   N1        1.0  0.14088  0.58963  0.35167  1.0000
  H   H7        1.0  0.13318  0.60656  0.40176  1.0000
  C   C6        1.0  0.48921  0.51626  0.26728  1.0000
  C   C7        1.0  0.50540  0.48316  0.26294  1.0000
  C   C8        1.0  0.52453  0.47186  0.33846  1.0000
  H   H8        1.0  0.50336  0.46686  0.20271  1.0000
  C   C9        1.0  0.47008  0.52635  0.18412  1.0000
  H   H9        1.0  0.49092  0.56401  0.16734  1.0000
  H   H10       1.0  0.43317  0.51688  0.19453  1.0000
  H   H11       1.0  0.47106  0.50640  0.12573  1.0000
  C   C10       1.0  0.54010  0.43572  0.32810  1.0000
  H   H12       1.0  0.52919  0.41788  0.26269  1.0000
  H   H13       1.0  0.52210  0.40817  0.37918  1.0000
  C   C11       1.0  0.49777  0.97582  0.26730  1.0000
  C   C12       1.0  0.53086  0.02512  0.26291  1.0000
  C   C13       1.0  0.54216  0.05556  0.33841  1.0000
  H   H14       1.0  0.54715  0.03936  0.20268  1.0000
  C   C14       1.0  0.48769  0.94658  0.18415  1.0000
  H   H15       1.0  0.45003  0.92976  0.16737  1.0000
  H   H16       1.0  0.49717  0.91915  0.19460  1.0000
  H   H17       1.0  0.50764  0.96750  0.12575  1.0000
  C   C15       1.0  0.57828  0.10727  0.32802  1.0000
  H   H18       1.0  0.59610  0.11420  0.26259  1.0000
  H   H19       1.0  0.60584  0.11682  0.37906  1.0000
  C   C16       1.0  0.98889  0.50837  0.26275  1.0000
  C   C17       1.0  0.95845  0.48926  0.33826  1.0000
  H   H20       1.0  0.97465  0.51042  0.20252  1.0000
  C   C18       1.0  0.90675  0.47374  0.32789  1.0000
  H   H21       1.0  0.89984  0.48464  0.26246  1.0000
  H   H22       1.0  0.89724  0.49179  0.37893  1.0000
  N   N2        1.0  0.34170  0.67229  0.34531  1.0000
  C   C19       1.0  0.36403  0.64433  0.34683  1.0000
  C   C20       1.0  0.29140  0.64995  0.34684  1.0000
  C   C21       1.0  0.36967  0.72259  0.34685  1.0000
  C   C22       1.0  0.39610  0.74765  0.27026  1.0000
  C   C23       1.0  0.42497  0.79748  0.27235  1.0000
  C   C24       1.0  0.42799  0.82334  0.35091  1.0000
  C   C25       1.0  0.40132  0.79821  0.42748  1.0000
  C   C26       1.0  0.37232  0.74840  0.42531  1.0000
  C   C27       1.0  0.36269  0.61792  0.27021  1.0000
  C   C28       1.0  0.38367  0.58907  0.27227  1.0000
  C   C29       1.0  0.40646  0.58600  0.35085  1.0000
  C   C30       1.0  0.40796  0.61263  0.42746  1.0000
  C   C31       1.0  0.38717  0.64165  0.42530  1.0000
  C   C32       1.0  0.26559  0.62676  0.42529  1.0000
  C   C33       1.0  0.21577  0.60593  0.42744  1.0000
  C   C34       1.0  0.19064  0.60744  0.35085  1.0000
  C   C35       1.0  0.21650  0.63029  0.27231  1.0000
  C   C36       1.0  0.26634  0.65130  0.27024  1.0000
  H   H23       1.0  0.38156  0.56961  0.21648  1.0000
  H   H24       1.0  0.34593  0.61924  0.21284  1.0000
  H   H25       1.0  0.38807  0.66007  0.48185  1.0000
  H   H26       1.0  0.42340  0.61022  0.48576  1.0000
  H   H27       1.0  0.39483  0.72959  0.21292  1.0000
  H   H28       1.0  0.44446  0.81484  0.21660  1.0000
  H   H29       1.0  0.28313  0.62587  0.48183  1.0000
  H   H30       1.0  0.19794  0.59047  0.48574  1.0000
  H   H31       1.0  0.19914  0.63237  0.21651  1.0000
  H   H32       1.0  0.28440  0.66807  0.21288  1.0000
  H   H33       1.0  0.35387  0.73087  0.48184  1.0000
  H   H34       1.0  0.40372  0.81604  0.48579  1.0000
  N   N3        1.0  0.42422  0.55400  0.35169  1.0000
  H   H35       1.0  0.40724  0.52937  0.40176  1.0000
  N   N4        1.0  0.46000  0.87308  0.35177  1.0000
  H   H36       1.0  0.48462  0.88074  0.40188  1.0000
  N   N5        1.0  0.67503  0.33895  0.34367  1.0000
  C   C37       1.0  0.65269  0.36691  0.34215  1.0000
  C   C38       1.0  0.72532  0.36127  0.34212  1.0000
  C   C39       1.0  0.64706  0.28865  0.34214  1.0000
  C   C40       1.0  0.62068  0.26359  0.41877  1.0000
  C   C41       1.0  0.59183  0.21375  0.41670  1.0000
  C   C42       1.0  0.58878  0.18790  0.33813  1.0000
  C   C43       1.0  0.61542  0.21303  0.26153  1.0000
  C   C44       1.0  0.64441  0.26284  0.26367  1.0000
  C   C45       1.0  0.65407  0.39334  0.41875  1.0000
  C   C46       1.0  0.63308  0.42219  0.41670  1.0000
  C   C47       1.0  0.61023  0.42520  0.33816  1.0000
  C   C48       1.0  0.60868  0.39854  0.26157  1.0000
  C   C49       1.0  0.62949  0.36953  0.26372  1.0000
  C   C50       1.0  0.75113  0.38443  0.26366  1.0000
  C   C51       1.0  0.80095  0.40524  0.26149  1.0000
  C   C52       1.0  0.82608  0.40370  0.33807  1.0000
  C   C53       1.0  0.80022  0.38086  0.41662  1.0000
  C   C54       1.0  0.75039  0.35991  0.41872  1.0000
  H   H37       1.0  0.63519  0.44166  0.47248  1.0000
  H   H38       1.0  0.67086  0.39206  0.47609  1.0000
  H   H39       1.0  0.62857  0.35109  0.20719  1.0000
  H   H40       1.0  0.59321  0.40090  0.20329  1.0000
  H   H41       1.0  0.62200  0.28165  0.47615  1.0000
  H   H42       1.0  0.57240  0.19639  0.47251  1.0000
  H   H43       1.0  0.73360  0.38535  0.20713  1.0000
  H   H44       1.0  0.81878  0.42065  0.20317  1.0000
  H   H45       1.0  0.81758  0.37873  0.47238  1.0000
  H   H46       1.0  0.73233  0.34313  0.47607  1.0000
  H   H47       1.0  0.66281  0.28037  0.20711  1.0000
  H   H48       1.0  0.61299  0.19520  0.20320  1.0000
  N   N6        1.0  0.59243  0.45716  0.33733  1.0000
  H   H49       1.0  0.60937  0.48179  0.28722  1.0000
  N   N7        1.0  0.55683  0.13815  0.33730  1.0000
  H   H50       1.0  0.53219  0.13045  0.28722  1.0000
  N   N8        1.0  0.87582  0.42142  0.33719  1.0000
  H   H51       1.0  0.88347  0.40445  0.28708  1.0000
  C   C55       1.0  0.49208  0.53925  0.35066  1.0000
  C   C56       1.0  0.52740  0.49485  0.42184  1.0000
  C   C57       1.0  0.51120  0.52795  0.42619  1.0000
  H   H52       1.0  0.51326  0.54425  0.48641  1.0000
  C   C58       1.0  0.54654  0.48476  0.50500  1.0000
  H   H53       1.0  0.52569  0.44710  0.52179  1.0000
  H   H54       1.0  0.54557  0.50472  0.56339  1.0000
  H   H55       1.0  0.58344  0.49423  0.49458  1.0000
  C   C59       1.0  0.47654  0.57541  0.36101  1.0000
  H   H56       1.0  0.49458  0.60297  0.30996  1.0000
  H   H57       1.0  0.48743  0.59324  0.42643  1.0000
  C   C60       1.0  0.47478  0.95571  0.35068  1.0000
  C   C61       1.0  0.51918  0.03545  0.42180  1.0000
  C   C62       1.0  0.48608  0.98615  0.42619  1.0000
  H   H58       1.0  0.46979  0.97191  0.48641  1.0000
  C   C63       1.0  0.52926  0.06469  0.50495  1.0000
  H   H59       1.0  0.56693  0.08152  0.52171  1.0000
  H   H60       1.0  0.50933  0.04377  0.56336  1.0000
  H   H61       1.0  0.51977  0.09211  0.49452  1.0000
  C   C64       1.0  0.43861  0.90401  0.36105  1.0000
  H   H62       1.0  0.41106  0.89450  0.31000  1.0000
  H   H63       1.0  0.42078  0.89709  0.42647  1.0000
  C   C65       1.0  0.97856  0.48639  0.42166  1.0000
  C   C66       1.0  0.94933  0.46727  0.50481  1.0000
  H   H64       1.0  0.93251  0.48812  0.52157  1.0000
  H   H65       1.0  0.97024  0.46824  0.56322  1.0000
  H   H66       1.0  0.92189  0.43036  0.49438  1.0000
