data_image0
_chemical_formula_structural       NC5H2C10H7NH2C4H2CNC5H8C9H9C4NC2NHOHC3NC2NHOHC5NC29H15C2HC3
_chemical_formula_sum              "N8 C84 H50 O2"
_cell_length_a       29.9665
_cell_length_b       29.9662
_cell_length_c       14.8425
_cell_angle_alpha    90
_cell_angle_beta     90
_cell_angle_gamma    89.9285

_space_group_name_H-M_alt    "P 1"
_space_group_IT_number       1

loop_
  _space_group_symop_operation_xyz
  'x, y, z'

loop_
  _atom_site_type_symbol
  _atom_site_label
  _atom_site_symmetry_multiplicity
  _atom_site_fract_x
  _atom_site_fract_y
  _atom_site_fract_z
  _atom_site_occupancy
  N   N1        1.0  0.05398  0.05724  0.34753  1.0000
  C   C1        1.0  0.09831  0.04860  0.34749  1.0000
  C   C2        1.0  0.23887  0.01545  0.26842  1.0000
  C   C3        1.0  0.19187  0.01527  0.26809  1.0000
  C   C4        1.0  0.38253  0.04005  0.30412  1.0000
  C   C5        1.0  0.33554  0.04047  0.30571  1.0000
  H   H1        1.0  0.17535  0.02204  0.20928  1.0000
  H   H2        1.0  0.25515  0.02186  0.20921  1.0000
  C   C6        1.0  0.90785  0.04701  0.34787  1.0000
  C   C7        1.0  0.11997  0.00634  0.34761  1.0000
  C   C8        1.0  0.16773  0.00602  0.34767  1.0000
  C   C9        1.0  0.26331  0.00589  0.34786  1.0000
  C   C10       1.0  0.31112  0.00579  0.34772  1.0000
  C   C11       1.0  0.83752  0.00550  0.34774  1.0000
  C   C12       1.0  0.81338  0.01337  0.42794  1.0000
  C   C13       1.0  0.76636  0.01330  0.42778  1.0000
  C   C14       1.0  0.62187  0.03695  0.39239  1.0000
  C   C15       1.0  0.66890  0.03716  0.39404  1.0000
  H   H3        1.0  0.75011  0.01843  0.48752  1.0000
  H   H4        1.0  0.82992  0.01904  0.48719  1.0000
  H   H5        1.0  0.97493  0.03336  0.34807  1.0000
  H   H6        1.0  0.46209  0.00575  0.48122  1.0000
  H   H7        1.0  0.54145  0.00559  0.48275  1.0000
  H   H8        1.0  0.31927  0.06686  0.27671  1.0000
  H   H9        1.0  0.39895  0.06583  0.27337  1.0000
  N   N2        1.0  0.95224  0.05600  0.34782  1.0000
  H   H10       1.0  0.60506  0.06196  0.42493  1.0000
  H   H11       1.0  0.68466  0.06249  0.42750  1.0000
  C   C16       1.0  0.01260  0.81669  0.26776  1.0000
  C   C17       1.0  0.01355  0.76969  0.26786  1.0000
  C   C18       1.0  0.03997  0.62621  0.30322  1.0000
  C   C19       1.0  0.03982  0.67321  0.30509  1.0000
  H   H12       1.0  0.01923  0.83338  0.20909  1.0000
  H   H13       1.0  0.02031  0.75357  0.20862  1.0000
  C   C20       1.0  0.04407  0.91110  0.34749  1.0000
  N   N3        1.0  0.05296  0.95552  0.34751  1.0000
  C   C21       1.0  0.04522  0.10154  0.34779  1.0000
  C   C22       1.0  0.01034  0.19508  0.42763  1.0000
  C   C23       1.0  0.01058  0.24209  0.42702  1.0000
  C   C24       1.0  0.03635  0.38601  0.39059  1.0000
  C   C25       1.0  0.03587  0.33899  0.39257  1.0000
  H   H14       1.0  0.03027  0.97816  0.34739  1.0000
  H   H15       1.0  0.06083  0.32287  0.42657  1.0000
  H   H16       1.0  0.06143  0.40246  0.42351  1.0000
  H   H17       1.0  0.01587  0.25843  0.48660  1.0000
  H   H18       1.0  0.01602  0.17862  0.48698  1.0000
  H   H19       1.0  0.00542  0.54611  0.47926  1.0000
  H   H20       1.0  0.06612  0.68978  0.27662  1.0000
  H   H21       1.0  0.06607  0.61008  0.27284  1.0000
  C   C26       1.0  0.99460  0.24176  0.26690  1.0000
  C   C27       1.0  0.99474  0.19476  0.26708  1.0000
  C   C28       1.0  0.96981  0.33873  0.29861  1.0000
  C   C29       1.0  0.97017  0.38571  0.29685  1.0000
  C   C30       1.0  0.00374  0.41024  0.34195  1.0000
  C   C31       1.0  0.81348  0.99750  0.26751  1.0000
  C   C32       1.0  0.76648  0.99704  0.26777  1.0000
  C   C33       1.0  0.67011  0.97077  0.30105  1.0000
  C   C34       1.0  0.62312  0.97044  0.29966  1.0000
  H   H22       1.0  0.60724  0.94526  0.26591  1.0000
  H   H23       1.0  0.68673  0.94569  0.26838  1.0000
  H   H24       1.0  0.75031  0.99160  0.20806  1.0000
  H   H25       1.0  0.83007  0.99181  0.20831  1.0000
  H   H26       1.0  0.09286  0.15625  0.34755  1.0000
  H   H27       1.0  0.98925  0.17808  0.20793  1.0000
  H   H28       1.0  0.98953  0.25784  0.20694  1.0000
  H   H29       1.0  0.94533  0.40196  0.26264  1.0000
  H   H30       1.0  0.94459  0.32248  0.26571  1.0000
  C   C35       1.0  0.00388  0.55388  0.33704  1.0000
  C   C36       1.0  0.00323  0.52971  0.25425  1.0000
  C   C37       1.0  0.00396  0.48202  0.25612  1.0000
  C   C38       1.0  0.00455  0.45800  0.33857  1.0000
  N   N4        1.0  0.00457  0.45981  0.17614  1.0000
  C   C39       1.0  0.00360  0.48021  0.09494  1.0000
  C   C40       1.0  0.00132  0.52690  0.09245  1.0000
  N   N5        1.0  0.00103  0.55000  0.17134  1.0000
  H   H31       1.0  0.00388  0.46171  0.03714  1.0000
  O   O1        1.0  0.99938  0.54831  0.01227  1.0000
  H   H32       1.0  0.99868  0.58226  0.16678  1.0000
  C   C41       1.0  0.45446  0.00335  0.33902  1.0000
  C   C42       1.0  0.47869  0.00217  0.25635  1.0000
  C   C43       1.0  0.52638  0.00298  0.25835  1.0000
  N   N6        1.0  0.54862  0.00317  0.17840  1.0000
  C   C44       1.0  0.52829  0.00168  0.09718  1.0000
  C   C45       1.0  0.48161  0.99932  0.09461  1.0000
  N   N7        1.0  0.45846  0.99948  0.17345  1.0000
  H   H33       1.0  0.54682  0.00166  0.03943  1.0000
  O   O2        1.0  0.46026  0.99687  0.01443  1.0000
  H   H34       1.0  0.42621  0.99708  0.16888  1.0000
  C   C46       1.0  0.88688  0.08870  0.34733  1.0000
  C   C47       1.0  0.91940  0.12130  0.34769  1.0000
  C   C48       1.0  0.96114  0.10042  0.34753  1.0000
  C   C49       1.0  0.88527  0.00518  0.34784  1.0000
  C   C50       1.0  0.90692  0.96293  0.34763  1.0000
  N   N8        1.0  0.95124  0.95425  0.34783  1.0000
  C   C51       1.0  0.96000  0.90994  0.34766  1.0000
  C   C52       1.0  0.91848  0.88880  0.34695  1.0000
  C   C53       1.0  0.88585  0.92137  0.34759  1.0000
  C   C54       1.0  0.00230  0.88838  0.34756  1.0000
  C   C55       1.0  0.09736  0.96453  0.34769  1.0000
  C   C56       1.0  0.11833  0.92284  0.34736  1.0000
  C   C57       1.0  0.08581  0.89025  0.34798  1.0000
  C   C58       1.0  0.08672  0.12271  0.34762  1.0000
  C   C59       1.0  0.11936  0.09017  0.34811  1.0000
  C   C60       1.0  0.00291  0.12309  0.34772  1.0000
  C   C61       1.0  0.00250  0.17083  0.34757  1.0000
  C   C62       1.0  0.00263  0.26645  0.34674  1.0000
  C   C63       1.0  0.00276  0.31431  0.34612  1.0000
  C   C64       1.0  0.19181  0.99664  0.42732  1.0000
  C   C65       1.0  0.23882  0.99627  0.42716  1.0000
  C   C66       1.0  0.33565  0.97085  0.38882  1.0000
  C   C67       1.0  0.38266  0.97016  0.38652  1.0000
  C   C68       1.0  0.40683  0.00445  0.34301  1.0000
  C   C69       1.0  0.00280  0.84061  0.34738  1.0000
  C   C70       1.0  0.00415  0.74503  0.34708  1.0000
  C   C71       1.0  0.99397  0.76930  0.42641  1.0000
  C   C72       1.0  0.99361  0.81631  0.42681  1.0000
  C   C73       1.0  0.00467  0.69724  0.34665  1.0000
  C   C74       1.0  0.96986  0.67231  0.38701  1.0000
  C   C75       1.0  0.96973  0.62531  0.38435  1.0000
  C   C76       1.0  0.00448  0.60152  0.34131  1.0000
  C   C77       1.0  0.74190  0.00491  0.34784  1.0000
  C   C78       1.0  0.69404  0.00429  0.34779  1.0000
  C   C79       1.0  0.59811  0.00384  0.34437  1.0000
  H   H35       1.0  0.85337  0.09506  0.34691  1.0000
  H   H36       1.0  0.91297  0.15480  0.34786  1.0000
  H   H37       1.0  0.85233  0.91515  0.34764  1.0000
  H   H38       1.0  0.91231  0.85527  0.34621  1.0000
  H   H39       1.0  0.98655  0.83273  0.48560  1.0000
  H   H40       1.0  0.98760  0.75289  0.48548  1.0000
  H   H41       1.0  0.09230  0.85676  0.34851  1.0000
  H   H42       1.0  0.15183  0.91645  0.34701  1.0000
  H   H43       1.0  0.15287  0.09642  0.34871  1.0000
  H   H44       1.0  0.17522  0.98998  0.48609  1.0000
  H   H45       1.0  0.25506  0.98981  0.48639  1.0000
  H   H46       1.0  0.39914  0.94381  0.41526  1.0000
  H   H47       1.0  0.31943  0.94476  0.41886  1.0000
  H   H48       1.0  0.94344  0.68824  0.41665  1.0000
  H   H49       1.0  0.94344  0.60855  0.41249  1.0000
  C   C80       1.0  0.00511  0.48276  0.41956  1.0000
  C   C81       1.0  0.00470  0.52966  0.41879  1.0000
  H   H50       1.0  0.00518  0.46675  0.48052  1.0000
  C   C82       1.0  0.55033  0.00414  0.34086  1.0000
  C   C83       1.0  0.52549  0.00508  0.42175  1.0000
  C   C84       1.0  0.47860  0.00460  0.42084  1.0000
