data_image0
_chemical_formula_structural       C4HC2O2C4HC5H3NHC4HC5H3NHC6HC5HCH3C2O2CNC2HNHNHCNC2HNHNHC4HC2O2C4HC5H3NHC4HC5H3NHC6HC5HCH3C2O2CNC2HNHNHCNC2HNHNHC4HC2O2C4HC5H3NHC4HC5H3NHC6HC5HCH3C2O2CNC2HNHNHCNC2HNHNHC4HC2O2C4HC5H3NHC4HC5H3NHC6HC5HCH3C2O2CNC2HNHNHCNC2HNHNH
_chemical_formula_sum              "C176 H88 O16 N32"
_cell_length_a       38.9108
_cell_length_b       38.9108
_cell_length_c       15.0006
_cell_angle_alpha    90
_cell_angle_beta     90
_cell_angle_gamma    90

_space_group_name_H-M_alt    "P 1"
_space_group_IT_number       1

loop_
  _space_group_symop_operation_xyz
  'x, y, z'

loop_
  _atom_site_type_symbol
  _atom_site_label
  _atom_site_symmetry_multiplicity
  _atom_site_fract_x
  _atom_site_fract_y
  _atom_site_fract_z
  _atom_site_occupancy
  C   C1        1.0  0.47598  0.06898  0.42357  1.0000
  C   C2        1.0  0.49871  0.04601  0.37866  1.0000
  C   C3        1.0  0.00096  0.45419  0.29422  1.0000
  C   C4        1.0  0.02350  0.43136  0.24818  1.0000
  H   H1        1.0  0.45727  0.42115  0.29727  1.0000
  C   C5        1.0  0.48174  0.10499  0.43249  1.0000
  C   C6        1.0  0.01726  0.39558  0.23566  1.0000
  O   O1        1.0  0.46588  0.12143  0.50085  1.0000
  O   O2        1.0  0.03345  0.38004  0.16634  1.0000
  C   C7        1.0  0.99487  0.15920  0.35333  1.0000
  C   C8        1.0  0.99767  0.23157  0.33166  1.0000
  C   C9        1.0  0.99637  0.21026  0.25499  1.0000
  C   C10       1.0  0.99554  0.17430  0.26717  1.0000
  H   H2        1.0  0.99400  0.15884  0.21204  1.0000
  C   C11       1.0  0.99842  0.26766  0.32225  1.0000
  C   C12       1.0  0.99952  0.31889  0.22928  1.0000
  C   C13       1.0  0.99796  0.28272  0.23609  1.0000
  C   C14       1.0  0.99634  0.26135  0.16011  1.0000
  C   C15       1.0  0.99562  0.22540  0.16947  1.0000
  H   H3        1.0  0.99599  0.27176  0.09745  1.0000
  H   H4        1.0  0.99458  0.21042  0.11345  1.0000
  H   H5        1.0  0.99788  0.32963  0.16738  1.0000
  N   N1        1.0  0.99204  0.12417  0.36067  1.0000
  H   H6        1.0  0.99432  0.11145  0.30487  1.0000
  C   C16       1.0  0.34074  0.00511  0.35326  1.0000
  C   C17       1.0  0.26837  0.00230  0.33158  1.0000
  C   C18       1.0  0.28968  0.00358  0.25491  1.0000
  C   C19       1.0  0.32564  0.00441  0.26709  1.0000
  H   H7        1.0  0.34110  0.00594  0.21196  1.0000
  C   C20       1.0  0.23228  0.00154  0.32216  1.0000
  C   C21       1.0  0.18106  0.00042  0.22918  1.0000
  C   C22       1.0  0.21723  0.00199  0.23600  1.0000
  C   C23       1.0  0.23859  0.00360  0.16003  1.0000
  C   C24       1.0  0.27454  0.00431  0.16939  1.0000
  H   H8        1.0  0.22819  0.00393  0.09736  1.0000
  H   H9        1.0  0.28953  0.00534  0.11337  1.0000
  H   H10       1.0  0.17032  0.00206  0.16728  1.0000
  N   N2        1.0  0.37577  0.00794  0.36062  1.0000
  H   H11       1.0  0.38849  0.00560  0.30481  1.0000
  C   C25       1.0  0.48823  0.01174  0.35815  1.0000
  C   C26       1.0  0.45396  0.00127  0.37868  1.0000
  C   C27       1.0  0.43099  0.02398  0.42365  1.0000
  C   C28       1.0  0.44382  0.05615  0.45222  1.0000
  C   C29       1.0  0.44430  0.46720  0.35776  1.0000
  C   C30       1.0  0.03277  0.05567  0.35772  1.0000
  H   H12       1.0  0.42686  0.07315  0.48018  1.0000
  C   C31       1.0  0.01159  0.48838  0.31541  1.0000
  C   C32       1.0  0.05566  0.44429  0.21988  1.0000
  C   C33       1.0  0.06860  0.47645  0.24818  1.0000
  C   C34       1.0  0.04577  0.49900  0.29419  1.0000
  C   C35       1.0  0.46681  0.44466  0.31476  1.0000
  H   H13       1.0  0.07251  0.42747  0.19083  1.0000
  C   C36       1.0  0.05530  0.03316  0.31469  1.0000
  H   H14       1.0  0.42058  0.45789  0.37424  1.0000
  H   H15       1.0  0.07882  0.04268  0.29725  1.0000
  H   H16       1.0  0.04209  0.07939  0.37420  1.0000
  C   C37       1.0  0.39497  0.01827  0.43236  1.0000
  C   C38       1.0  0.10438  0.48271  0.23549  1.0000
  O   O3        1.0  0.37846  0.03425  0.50044  1.0000
  O   O4        1.0  0.11984  0.46663  0.16591  1.0000
  C   C39       1.0  0.99723  0.18222  0.42631  1.0000
  N   N3        1.0  0.99849  0.21668  0.41345  1.0000
  C   C40       1.0  0.00055  0.32319  0.38936  1.0000
  C   C41       1.0  0.00202  0.34018  0.30581  1.0000
  H   H17       1.0  0.99918  0.17365  0.49025  1.0000
  N   N4        1.0  0.99938  0.28845  0.39482  1.0000
  H   H18       1.0  0.00201  0.33674  0.44761  1.0000
  N   N5        1.0  0.00577  0.37523  0.30396  1.0000
  H   H19       1.0  0.00346  0.38681  0.36142  1.0000
  C   C42       1.0  0.31772  0.00277  0.42623  1.0000
  N   N6        1.0  0.28326  0.00149  0.41338  1.0000
  C   C43       1.0  0.17675  0.99940  0.38926  1.0000
  C   C44       1.0  0.15976  0.99794  0.30570  1.0000
  H   H20       1.0  0.32630  0.00082  0.49018  1.0000
  N   N7        1.0  0.21149  0.00058  0.39473  1.0000
  H   H21       1.0  0.16320  0.99795  0.44751  1.0000
  N   N8        1.0  0.12470  0.99418  0.30386  1.0000
  H   H22       1.0  0.11314  0.99646  0.36133  1.0000
  C   C45       1.0  0.47598  0.56898  0.42357  1.0000
  C   C46       1.0  0.49871  0.54601  0.37866  1.0000
  C   C47       1.0  0.00096  0.95419  0.29422  1.0000
  C   C48       1.0  0.02350  0.93136  0.24818  1.0000
  H   H23       1.0  0.45727  0.92115  0.29727  1.0000
  C   C49       1.0  0.48174  0.60499  0.43249  1.0000
  C   C50       1.0  0.01726  0.89558  0.23566  1.0000
  O   O5        1.0  0.46588  0.62143  0.50085  1.0000
  O   O6        1.0  0.03345  0.88004  0.16634  1.0000
  C   C51       1.0  0.99487  0.65920  0.35333  1.0000
  C   C52       1.0  0.99767  0.73157  0.33166  1.0000
  C   C53       1.0  0.99637  0.71026  0.25499  1.0000
  C   C54       1.0  0.99554  0.67430  0.26717  1.0000
  H   H24       1.0  0.99400  0.65884  0.21204  1.0000
  C   C55       1.0  0.99842  0.76766  0.32225  1.0000
  C   C56       1.0  0.99952  0.81888  0.22928  1.0000
  C   C57       1.0  0.99796  0.78272  0.23609  1.0000
  C   C58       1.0  0.99634  0.76136  0.16011  1.0000
  C   C59       1.0  0.99562  0.72540  0.16947  1.0000
  H   H25       1.0  0.99599  0.77176  0.09745  1.0000
  H   H26       1.0  0.99458  0.71042  0.11345  1.0000
  H   H27       1.0  0.99788  0.82963  0.16738  1.0000
  N   N9        1.0  0.99204  0.62417  0.36067  1.0000
  H   H28       1.0  0.99432  0.61144  0.30487  1.0000
  C   C60       1.0  0.34074  0.50511  0.35326  1.0000
  C   C61       1.0  0.26837  0.50230  0.33158  1.0000
  C   C62       1.0  0.28968  0.50358  0.25491  1.0000
  C   C63       1.0  0.32564  0.50441  0.26709  1.0000
  H   H29       1.0  0.34110  0.50594  0.21196  1.0000
  C   C64       1.0  0.23228  0.50154  0.32216  1.0000
  C   C65       1.0  0.18106  0.50043  0.22918  1.0000
  C   C66       1.0  0.21723  0.50199  0.23600  1.0000
  C   C67       1.0  0.23859  0.50360  0.16003  1.0000
  C   C68       1.0  0.27454  0.50431  0.16939  1.0000
  H   H30       1.0  0.22819  0.50393  0.09736  1.0000
  H   H31       1.0  0.28953  0.50534  0.11337  1.0000
  H   H32       1.0  0.17032  0.50206  0.16728  1.0000
  N   N10       1.0  0.37577  0.50794  0.36062  1.0000
  H   H33       1.0  0.38849  0.50560  0.30481  1.0000
  C   C69       1.0  0.48823  0.51174  0.35815  1.0000
  C   C70       1.0  0.45396  0.50127  0.37868  1.0000
  C   C71       1.0  0.43099  0.52398  0.42365  1.0000
  C   C72       1.0  0.44382  0.55615  0.45222  1.0000
  C   C73       1.0  0.44430  0.96720  0.35776  1.0000
  C   C74       1.0  0.03277  0.55567  0.35772  1.0000
  H   H34       1.0  0.42686  0.57315  0.48018  1.0000
  C   C75       1.0  0.01159  0.98838  0.31541  1.0000
  C   C76       1.0  0.05566  0.94429  0.21988  1.0000
  C   C77       1.0  0.06860  0.97645  0.24818  1.0000
  C   C78       1.0  0.04577  0.99901  0.29419  1.0000
  C   C79       1.0  0.46681  0.94466  0.31476  1.0000
  H   H35       1.0  0.07251  0.92747  0.19083  1.0000
  C   C80       1.0  0.05530  0.53316  0.31469  1.0000
  H   H36       1.0  0.42058  0.95789  0.37424  1.0000
  H   H37       1.0  0.07882  0.54268  0.29725  1.0000
  H   H38       1.0  0.04209  0.57939  0.37420  1.0000
  C   C81       1.0  0.39497  0.51827  0.43236  1.0000
  C   C82       1.0  0.10438  0.98271  0.23549  1.0000
  O   O7        1.0  0.37846  0.53425  0.50044  1.0000
  O   O8        1.0  0.11984  0.96663  0.16591  1.0000
  C   C83       1.0  0.99723  0.68222  0.42631  1.0000
  N   N11       1.0  0.99849  0.71668  0.41345  1.0000
  C   C84       1.0  0.00055  0.82319  0.38936  1.0000
  C   C85       1.0  0.00202  0.84018  0.30581  1.0000
  H   H39       1.0  0.99918  0.67365  0.49025  1.0000
  N   N12       1.0  0.99938  0.78845  0.39482  1.0000
  H   H40       1.0  0.00201  0.83674  0.44761  1.0000
  N   N13       1.0  0.00577  0.87524  0.30396  1.0000
  H   H41       1.0  0.00346  0.88681  0.36142  1.0000
  C   C86       1.0  0.31772  0.50277  0.42623  1.0000
  N   N14       1.0  0.28326  0.50150  0.41338  1.0000
  C   C87       1.0  0.17675  0.49940  0.38926  1.0000
  C   C88       1.0  0.15976  0.49794  0.30570  1.0000
  H   H42       1.0  0.32630  0.50082  0.49018  1.0000
  N   N15       1.0  0.21149  0.50058  0.39473  1.0000
  H   H43       1.0  0.16320  0.49795  0.44751  1.0000
  N   N16       1.0  0.12470  0.49418  0.30386  1.0000
  H   H44       1.0  0.11314  0.49646  0.36133  1.0000
  C   C89       1.0  0.97598  0.06898  0.42357  1.0000
  C   C90       1.0  0.99871  0.04601  0.37866  1.0000
  C   C91       1.0  0.50096  0.45419  0.29422  1.0000
  C   C92       1.0  0.52350  0.43136  0.24818  1.0000
  H   H45       1.0  0.95728  0.42115  0.29727  1.0000
  C   C93       1.0  0.98174  0.10499  0.43249  1.0000
  C   C94       1.0  0.51726  0.39558  0.23566  1.0000
  O   O9        1.0  0.96588  0.12143  0.50085  1.0000
  O   O10       1.0  0.53346  0.38004  0.16634  1.0000
  C   C95       1.0  0.49487  0.15920  0.35333  1.0000
  C   C96       1.0  0.49766  0.23157  0.33166  1.0000
  C   C97       1.0  0.49637  0.21026  0.25499  1.0000
  C   C98       1.0  0.49554  0.17430  0.26717  1.0000
  H   H46       1.0  0.49400  0.15884  0.21204  1.0000
  C   C99       1.0  0.49842  0.26766  0.32225  1.0000
  C   C100      1.0  0.49952  0.31889  0.22928  1.0000
  C   C101      1.0  0.49796  0.28272  0.23609  1.0000
  C   C102      1.0  0.49634  0.26135  0.16011  1.0000
  C   C103      1.0  0.49562  0.22540  0.16947  1.0000
  H   H47       1.0  0.49599  0.27176  0.09745  1.0000
  H   H48       1.0  0.49458  0.21042  0.11345  1.0000
  H   H49       1.0  0.49788  0.32963  0.16738  1.0000
  N   N17       1.0  0.49204  0.12417  0.36067  1.0000
  H   H50       1.0  0.49432  0.11145  0.30487  1.0000
  C   C104      1.0  0.84074  0.00511  0.35326  1.0000
  C   C105      1.0  0.76837  0.00230  0.33158  1.0000
  C   C106      1.0  0.78968  0.00358  0.25491  1.0000
  C   C107      1.0  0.82564  0.00441  0.26709  1.0000
  H   H51       1.0  0.84110  0.00594  0.21196  1.0000
  C   C108      1.0  0.73228  0.00154  0.32216  1.0000
  C   C109      1.0  0.68106  0.00042  0.22918  1.0000
  C   C110      1.0  0.71723  0.00199  0.23600  1.0000
  C   C111      1.0  0.73859  0.00360  0.16003  1.0000
  C   C112      1.0  0.77454  0.00431  0.16939  1.0000
  H   H52       1.0  0.72819  0.00393  0.09736  1.0000
  H   H53       1.0  0.78953  0.00534  0.11337  1.0000
  H   H54       1.0  0.67032  0.00206  0.16728  1.0000
  N   N18       1.0  0.87577  0.00794  0.36062  1.0000
  H   H55       1.0  0.88849  0.00560  0.30481  1.0000
  C   C113      1.0  0.98823  0.01174  0.35815  1.0000
  C   C114      1.0  0.95396  0.00127  0.37868  1.0000
  C   C115      1.0  0.93099  0.02398  0.42365  1.0000
  C   C116      1.0  0.94382  0.05615  0.45222  1.0000
  C   C117      1.0  0.94430  0.46720  0.35776  1.0000
  C   C118      1.0  0.53277  0.05567  0.35772  1.0000
  H   H56       1.0  0.92686  0.07315  0.48018  1.0000
  C   C119      1.0  0.51159  0.48838  0.31541  1.0000
  C   C120      1.0  0.55566  0.44429  0.21988  1.0000
  C   C121      1.0  0.56860  0.47645  0.24818  1.0000
  C   C122      1.0  0.54577  0.49900  0.29419  1.0000
  C   C123      1.0  0.96681  0.44466  0.31476  1.0000
  H   H57       1.0  0.57251  0.42747  0.19083  1.0000
  C   C124      1.0  0.55530  0.03316  0.31469  1.0000
  H   H58       1.0  0.92058  0.45789  0.37424  1.0000
  H   H59       1.0  0.57882  0.04268  0.29725  1.0000
  H   H60       1.0  0.54209  0.07939  0.37420  1.0000
  C   C125      1.0  0.89497  0.01827  0.43236  1.0000
  C   C126      1.0  0.60438  0.48271  0.23549  1.0000
  O   O11       1.0  0.87846  0.03425  0.50044  1.0000
  O   O12       1.0  0.61984  0.46663  0.16591  1.0000
  C   C127      1.0  0.49723  0.18222  0.42631  1.0000
  N   N19       1.0  0.49849  0.21668  0.41345  1.0000
  C   C128      1.0  0.50055  0.32319  0.38936  1.0000
  C   C129      1.0  0.50202  0.34018  0.30581  1.0000
  H   H61       1.0  0.49918  0.17365  0.49025  1.0000
  N   N20       1.0  0.49938  0.28845  0.39482  1.0000
  H   H62       1.0  0.50201  0.33674  0.44761  1.0000
  N   N21       1.0  0.50577  0.37523  0.30396  1.0000
  H   H63       1.0  0.50346  0.38681  0.36142  1.0000
  C   C130      1.0  0.81772  0.00277  0.42623  1.0000
  N   N22       1.0  0.78326  0.00149  0.41338  1.0000
  C   C131      1.0  0.67675  0.99940  0.38926  1.0000
  C   C132      1.0  0.65976  0.99794  0.30570  1.0000
  H   H64       1.0  0.82629  0.00082  0.49018  1.0000
  N   N23       1.0  0.71149  0.00058  0.39473  1.0000
  H   H65       1.0  0.66320  0.99795  0.44751  1.0000
  N   N24       1.0  0.62470  0.99418  0.30386  1.0000
  H   H66       1.0  0.61313  0.99646  0.36133  1.0000
  C   C133      1.0  0.97598  0.56898  0.42357  1.0000
  C   C134      1.0  0.99871  0.54601  0.37866  1.0000
  C   C135      1.0  0.50096  0.95419  0.29422  1.0000
  C   C136      1.0  0.52350  0.93136  0.24818  1.0000
  H   H67       1.0  0.95728  0.92115  0.29727  1.0000
  C   C137      1.0  0.98174  0.60499  0.43249  1.0000
  C   C138      1.0  0.51726  0.89558  0.23566  1.0000
  O   O13       1.0  0.96588  0.62143  0.50085  1.0000
  O   O14       1.0  0.53346  0.88004  0.16634  1.0000
  C   C139      1.0  0.49487  0.65920  0.35333  1.0000
  C   C140      1.0  0.49766  0.73157  0.33166  1.0000
  C   C141      1.0  0.49637  0.71026  0.25499  1.0000
  C   C142      1.0  0.49554  0.67430  0.26717  1.0000
  H   H68       1.0  0.49400  0.65884  0.21204  1.0000
  C   C143      1.0  0.49842  0.76766  0.32225  1.0000
  C   C144      1.0  0.49952  0.81888  0.22928  1.0000
  C   C145      1.0  0.49796  0.78272  0.23609  1.0000
  C   C146      1.0  0.49634  0.76136  0.16011  1.0000
  C   C147      1.0  0.49562  0.72540  0.16947  1.0000
  H   H69       1.0  0.49599  0.77176  0.09745  1.0000
  H   H70       1.0  0.49458  0.71042  0.11345  1.0000
  H   H71       1.0  0.49788  0.82963  0.16738  1.0000
  N   N25       1.0  0.49204  0.62417  0.36067  1.0000
  H   H72       1.0  0.49432  0.61144  0.30487  1.0000
  C   C148      1.0  0.84074  0.50511  0.35326  1.0000
  C   C149      1.0  0.76837  0.50230  0.33158  1.0000
  C   C150      1.0  0.78968  0.50358  0.25491  1.0000
  C   C151      1.0  0.82564  0.50441  0.26709  1.0000
  H   H73       1.0  0.84110  0.50594  0.21196  1.0000
  C   C152      1.0  0.73228  0.50154  0.32216  1.0000
  C   C153      1.0  0.68106  0.50043  0.22918  1.0000
  C   C154      1.0  0.71723  0.50199  0.23600  1.0000
  C   C155      1.0  0.73859  0.50360  0.16003  1.0000
  C   C156      1.0  0.77454  0.50431  0.16939  1.0000
  H   H74       1.0  0.72819  0.50393  0.09736  1.0000
  H   H75       1.0  0.78953  0.50534  0.11337  1.0000
  H   H76       1.0  0.67032  0.50206  0.16728  1.0000
  N   N26       1.0  0.87577  0.50794  0.36062  1.0000
  H   H77       1.0  0.88849  0.50560  0.30481  1.0000
  C   C157      1.0  0.98823  0.51174  0.35815  1.0000
  C   C158      1.0  0.95396  0.50127  0.37868  1.0000
  C   C159      1.0  0.93099  0.52398  0.42365  1.0000
  C   C160      1.0  0.94382  0.55615  0.45222  1.0000
  C   C161      1.0  0.94430  0.96720  0.35776  1.0000
  C   C162      1.0  0.53277  0.55567  0.35772  1.0000
  H   H78       1.0  0.92686  0.57315  0.48018  1.0000
  C   C163      1.0  0.51159  0.98838  0.31541  1.0000
  C   C164      1.0  0.55566  0.94429  0.21988  1.0000
  C   C165      1.0  0.56860  0.97645  0.24818  1.0000
  C   C166      1.0  0.54577  0.99901  0.29419  1.0000
  C   C167      1.0  0.96681  0.94466  0.31476  1.0000
  H   H79       1.0  0.57251  0.92747  0.19083  1.0000
  C   C168      1.0  0.55530  0.53316  0.31469  1.0000
  H   H80       1.0  0.92058  0.95789  0.37424  1.0000
  H   H81       1.0  0.57882  0.54268  0.29725  1.0000
  H   H82       1.0  0.54209  0.57939  0.37420  1.0000
  C   C169      1.0  0.89497  0.51827  0.43236  1.0000
  C   C170      1.0  0.60438  0.98271  0.23549  1.0000
  O   O15       1.0  0.87846  0.53425  0.50044  1.0000
  O   O16       1.0  0.61984  0.96663  0.16591  1.0000
  C   C171      1.0  0.49723  0.68222  0.42631  1.0000
  N   N27       1.0  0.49849  0.71668  0.41345  1.0000
  C   C172      1.0  0.50055  0.82319  0.38936  1.0000
  C   C173      1.0  0.50202  0.84018  0.30581  1.0000
  H   H83       1.0  0.49918  0.67365  0.49025  1.0000
  N   N28       1.0  0.49938  0.78845  0.39482  1.0000
  H   H84       1.0  0.50201  0.83674  0.44761  1.0000
  N   N29       1.0  0.50577  0.87524  0.30396  1.0000
  H   H85       1.0  0.50346  0.88681  0.36142  1.0000
  C   C174      1.0  0.81772  0.50277  0.42623  1.0000
  N   N30       1.0  0.78326  0.50150  0.41338  1.0000
  C   C175      1.0  0.67675  0.49940  0.38926  1.0000
  C   C176      1.0  0.65976  0.49794  0.30570  1.0000
  H   H86       1.0  0.82629  0.50082  0.49018  1.0000
  N   N31       1.0  0.71149  0.50058  0.39473  1.0000
  H   H87       1.0  0.66320  0.49795  0.44751  1.0000
  N   N32       1.0  0.62470  0.49418  0.30386  1.0000
  H   H88       1.0  0.61313  0.49646  0.36133  1.0000
