data_image0
_chemical_formula_structural       C4HOCHC2HC2H2C3H2C2NO2CHC3HCH3CHC2HC9OHC4HOC4OHC4HOC4OH2C2H2C2H2CHC2H2C2H2C2H2C2H2C2H2C2H2C2H2C4H4C4H4CNO2C8H3NO2CHC8H3NO2C8H3NO2C8H3NO2
_chemical_formula_sum              "C108 H60 O18 N6"
_cell_length_a       31.7964
_cell_length_b       31.7964
_cell_length_c       14.6895
_cell_angle_alpha    90
_cell_angle_beta     90
_cell_angle_gamma    120

_space_group_name_H-M_alt    "P 1"
_space_group_IT_number       1

loop_
  _space_group_symop_operation_xyz
  'x, y, z'

loop_
  _atom_site_type_symbol
  _atom_site_label
  _atom_site_symmetry_multiplicity
  _atom_site_fract_x
  _atom_site_fract_y
  _atom_site_fract_z
  _atom_site_occupancy
  C   C1        1.0  0.04257  0.52412  0.35753  1.0000
  C   C2        1.0  0.06997  0.57576  0.36716  1.0000
  C   C3        1.0  0.12133  0.60255  0.36538  1.0000
  C   C4        1.0  0.14727  0.57743  0.35651  1.0000
  H   H1        1.0  0.05293  0.59527  0.37717  1.0000
  O   O1        1.0  0.19700  0.60333  0.35433  1.0000
  C   C5        1.0  0.18202  0.51328  0.26411  1.0000
  H   H2        1.0  0.17992  0.53212  0.20942  1.0000
  C   C6        1.0  0.19933  0.72808  0.28073  1.0000
  C   C7        1.0  0.16008  0.68020  0.28642  1.0000
  H   H3        1.0  0.14271  0.66303  0.22758  1.0000
  C   C8        1.0  0.12229  0.52636  0.34655  1.0000
  C   C9        1.0  0.07086  0.50084  0.34697  1.0000
  H   H4        1.0  0.20832  0.59927  0.41427  1.0000
  H   H5        1.0  0.05441  0.46436  0.33638  1.0000
  C   C10       1.0  0.19550  0.47004  0.41888  1.0000
  C   C11       1.0  0.15672  0.47966  0.41529  1.0000
  C   C12       1.0  0.15008  0.50250  0.33854  1.0000
  H   H6        1.0  0.19993  0.45530  0.47739  1.0000
  H   H7        1.0  0.13585  0.47346  0.47221  1.0000
  C   C13       1.0  0.14832  0.65435  0.36945  1.0000
  C   C14       1.0  0.17554  0.67843  0.44824  1.0000
  N   N1        1.0  0.16381  0.65275  0.53180  1.0000
  O   O2        1.0  0.19872  0.64913  0.56268  1.0000
  O   O3        1.0  0.15152  0.67327  0.59054  1.0000
  C   C15       1.0  0.22110  0.50436  0.26861  1.0000
  H   H8        1.0  0.20745  0.74442  0.21825  1.0000
  C   C16       1.0  0.22981  0.48374  0.34707  1.0000
  C   C17       1.0  0.21518  0.72657  0.44105  1.0000
  C   C18       1.0  0.22931  0.75186  0.35689  1.0000
  H   H9        1.0  0.23626  0.74146  0.49754  1.0000
  C   C19       1.0  0.29828  0.47643  0.28044  1.0000
  H   H10       1.0  0.28191  0.46814  0.21800  1.0000
  H   H11       1.0  0.24557  0.51717  0.21630  1.0000
  H   H12       1.0  0.29284  0.78082  0.21677  1.0000
  C   C20       1.0  0.27457  0.48276  0.35658  1.0000
  H   H13       1.0  0.28502  0.50018  0.49722  1.0000
  C   C21       1.0  0.27504  0.79664  0.34738  1.0000
  C   C22       1.0  0.29561  0.83097  0.41917  1.0000
  H   H14       1.0  0.27638  0.82658  0.47760  1.0000
  C   C23       1.0  0.29989  0.49398  0.44071  1.0000
  C   C24       1.0  0.34619  0.48512  0.28608  1.0000
  C   C25       1.0  0.30437  0.80537  0.26892  1.0000
  C   C26       1.0  0.34802  0.50245  0.44793  1.0000
  C   C27       1.0  0.34396  0.86982  0.41555  1.0000
  C   C28       1.0  0.98914  0.49699  0.35752  1.0000
  C   C29       1.0  0.88444  0.44368  0.35657  1.0000
  C   C30       1.0  0.91038  0.41856  0.36533  1.0000
  C   C31       1.0  0.96174  0.44534  0.36702  1.0000
  O   O4        1.0  0.83471  0.41779  0.35446  1.0000
  H   H15       1.0  0.97877  0.42581  0.37697  1.0000
  C   C32       1.0  0.50228  0.52372  0.35749  1.0000
  C   C33       1.0  0.45063  0.49948  0.36698  1.0000
  C   C34       1.0  0.42386  0.52407  0.36523  1.0000
  C   C35       1.0  0.44900  0.57514  0.35647  1.0000
  H   H16       1.0  0.43110  0.46292  0.37693  1.0000
  O   O5        1.0  0.42312  0.59898  0.35429  1.0000
  C   C36       1.0  0.52940  0.49741  0.35751  1.0000
  C   C37       1.0  0.58269  0.44600  0.35651  1.0000
  C   C38       1.0  0.60782  0.49706  0.36533  1.0000
  C   C39       1.0  0.58104  0.52164  0.36712  1.0000
  O   O6        1.0  0.60859  0.42216  0.35436  1.0000
  H   H17       1.0  0.60057  0.55820  0.37711  1.0000
  C   C40       1.0  0.50267  0.98385  0.35753  1.0000
  C   C41       1.0  0.52689  0.95642  0.36697  1.0000
  C   C42       1.0  0.50229  0.90506  0.36525  1.0000
  C   C43       1.0  0.45122  0.87914  0.35653  1.0000
  H   H18       1.0  0.56346  0.97343  0.37678  1.0000
  O   O7        1.0  0.42737  0.82942  0.35435  1.0000
  C   C44       1.0  0.52901  0.03730  0.35752  1.0000
  C   C45       1.0  0.58046  0.14200  0.35647  1.0000
  C   C46       1.0  0.52939  0.11608  0.36518  1.0000
  C   C47       1.0  0.50479  0.06473  0.36692  1.0000
  O   O8        1.0  0.60431  0.19173  0.35427  1.0000
  H   H19       1.0  0.46822  0.04772  0.37679  1.0000
  H   H20       1.0  0.36333  0.48477  0.22731  1.0000
  C   C48       1.0  0.54994  0.82710  0.28046  1.0000
  C   C49       1.0  0.54129  0.86634  0.28608  1.0000
  H   H21       1.0  0.55817  0.81896  0.21802  1.0000
  H   H22       1.0  0.54150  0.88370  0.22723  1.0000
  C   C50       1.0  0.51318  0.67402  0.26426  1.0000
  C   C51       1.0  0.52212  0.72204  0.26866  1.0000
  H   H23       1.0  0.49426  0.65302  0.20969  1.0000
  H   H24       1.0  0.50914  0.73358  0.21645  1.0000
  C   C52       1.0  0.35236  0.84450  0.26439  1.0000
  H   H25       1.0  0.37336  0.84646  0.20993  1.0000
  C   C53       1.0  0.73336  0.54455  0.28064  1.0000
  C   C54       1.0  0.68546  0.53588  0.28633  1.0000
  H   H26       1.0  0.74970  0.55278  0.21817  1.0000
  H   H27       1.0  0.66831  0.53620  0.22754  1.0000
  C   C55       1.0  0.84966  0.50778  0.26446  1.0000
  C   C56       1.0  0.81060  0.51675  0.26883  1.0000
  H   H28       1.0  0.85174  0.48889  0.20983  1.0000
  H   H29       1.0  0.78605  0.50375  0.21669  1.0000
  C   C57       1.0  0.48171  0.19403  0.28038  1.0000
  C   C58       1.0  0.49042  0.15484  0.28599  1.0000
  H   H30       1.0  0.47340  0.20211  0.21794  1.0000
  H   H31       1.0  0.49007  0.13735  0.22721  1.0000
  C   C59       1.0  0.51853  0.34714  0.26411  1.0000
  C   C60       1.0  0.50961  0.29913  0.26859  1.0000
  H   H32       1.0  0.53738  0.36810  0.20945  1.0000
  H   H33       1.0  0.52243  0.28750  0.21627  1.0000
  C   C61       1.0  0.83243  0.29297  0.28065  1.0000
  C   C62       1.0  0.87168  0.34086  0.28625  1.0000
  H   H34       1.0  0.82429  0.27660  0.21820  1.0000
  H   H35       1.0  0.88906  0.35801  0.22740  1.0000
  C   C63       1.0  0.67936  0.17668  0.26438  1.0000
  C   C64       1.0  0.72737  0.21575  0.26880  1.0000
  H   H36       1.0  0.65837  0.17460  0.20979  1.0000
  H   H37       1.0  0.73893  0.24026  0.21660  1.0000
  C   C65       1.0  0.96085  0.52027  0.34706  1.0000
  C   C66       1.0  0.90942  0.49476  0.34664  1.0000
  H   H38       1.0  0.82341  0.42189  0.41438  1.0000
  H   H39       1.0  0.97731  0.55676  0.33661  1.0000
  C   C67       1.0  0.50008  0.60122  0.34659  1.0000
  C   C68       1.0  0.52557  0.57529  0.34700  1.0000
  C   C69       1.0  0.50611  0.44583  0.34702  1.0000
  C   C70       1.0  0.53162  0.41991  0.34658  1.0000
  H   H40       1.0  0.42721  0.61440  0.41420  1.0000
  H   H41       1.0  0.60453  0.40680  0.41431  1.0000
  H   H42       1.0  0.56207  0.59531  0.33658  1.0000
  H   H43       1.0  0.46963  0.42582  0.33642  1.0000
  C   C71       1.0  0.42515  0.90415  0.34670  1.0000
  C   C72       1.0  0.45109  0.95558  0.34717  1.0000
  C   C73       1.0  0.58059  0.06557  0.34712  1.0000
  C   C74       1.0  0.60653  0.11699  0.34667  1.0000
  H   H44       1.0  0.41198  0.81810  0.41428  1.0000
  H   H45       1.0  0.61971  0.20306  0.41419  1.0000
  H   H46       1.0  0.43107  0.97205  0.33675  1.0000
  H   H47       1.0  0.60061  0.04909  0.33676  1.0000
  C   C75       1.0  0.37204  0.49927  0.36907  1.0000
  N   N2        1.0  0.37370  0.51638  0.53150  1.0000
  O   O9        1.0  0.37732  0.55491  0.56240  1.0000
  O   O10       1.0  0.35317  0.48357  0.59022  1.0000
  C   C76       1.0  0.52708  0.87804  0.36900  1.0000
  C   C77       1.0  0.52395  0.85086  0.44789  1.0000
  C   C78       1.0  0.53247  0.81123  0.44076  1.0000
  C   C79       1.0  0.54366  0.79709  0.35664  1.0000
  C   C80       1.0  0.54266  0.75134  0.34716  1.0000
  C   C81       1.0  0.55645  0.73080  0.41894  1.0000
  C   C82       1.0  0.54690  0.68243  0.41536  1.0000
  C   C83       1.0  0.52398  0.65288  0.33873  1.0000
  H   H48       1.0  0.57119  0.74999  0.47743  1.0000
  H   H49       1.0  0.55305  0.66775  0.47230  1.0000
  H   H50       1.0  0.52626  0.79016  0.49726  1.0000
  N   N3        1.0  0.51002  0.86262  0.53146  1.0000
  O   O11       1.0  0.47152  0.82771  0.56241  1.0000
  O   O12       1.0  0.54285  0.87494  0.59016  1.0000
  C   C84       1.0  0.37348  0.87640  0.33893  1.0000
  H   H51       1.0  0.35865  0.89068  0.47247  1.0000
  C   C85       1.0  0.65963  0.52187  0.36938  1.0000
  C   C86       1.0  0.68371  0.51874  0.44818  1.0000
  C   C87       1.0  0.73184  0.52720  0.44098  1.0000
  C   C88       1.0  0.75709  0.53830  0.35680  1.0000
  C   C89       1.0  0.80189  0.53736  0.34730  1.0000
  C   C90       1.0  0.83622  0.55113  0.41909  1.0000
  C   C91       1.0  0.87500  0.54153  0.41553  1.0000
  C   C92       1.0  0.88164  0.51865  0.33888  1.0000
  H   H52       1.0  0.83183  0.56599  0.47748  1.0000
  H   H53       1.0  0.89599  0.54788  0.47233  1.0000
  H   H54       1.0  0.74673  0.52101  0.49748  1.0000
  N   N4        1.0  0.65804  0.50483  0.53175  1.0000
  O   O13       1.0  0.65440  0.46630  0.56267  1.0000
  O   O14       1.0  0.67858  0.53765  0.59046  1.0000
  C   C93       1.0  0.50460  0.14312  0.36893  1.0000
  C   C94       1.0  0.50775  0.17031  0.44780  1.0000
  C   C95       1.0  0.49925  0.20996  0.44063  1.0000
  C   C96       1.0  0.48802  0.22406  0.35651  1.0000
  C   C97       1.0  0.48899  0.26980  0.34704  1.0000
  C   C98       1.0  0.47529  0.29039  0.41888  1.0000
  C   C99       1.0  0.48489  0.33878  0.41534  1.0000
  C   C100      1.0  0.50775  0.36825  0.33861  1.0000
  H   H55       1.0  0.46054  0.27120  0.47737  1.0000
  H   H56       1.0  0.47870  0.35345  0.47227  1.0000
  H   H57       1.0  0.50545  0.23102  0.49715  1.0000
  N   N5        1.0  0.52168  0.15857  0.53138  1.0000
  O   O15       1.0  0.56019  0.19347  0.56231  1.0000
  O   O16       1.0  0.48885  0.14626  0.59008  1.0000
  C   C101      1.0  0.88338  0.36674  0.36921  1.0000
  C   C102      1.0  0.85620  0.34273  0.44809  1.0000
  C   C103      1.0  0.81656  0.29459  0.44095  1.0000
  C   C104      1.0  0.80242  0.26927  0.35682  1.0000
  C   C105      1.0  0.75666  0.22451  0.34733  1.0000
  C   C106      1.0  0.73609  0.19018  0.41911  1.0000
  C   C107      1.0  0.68772  0.15138  0.41551  1.0000
  C   C108      1.0  0.65819  0.14474  0.33885  1.0000
  H   H58       1.0  0.75528  0.19463  0.47763  1.0000
  H   H59       1.0  0.67302  0.13054  0.47245  1.0000
  H   H60       1.0  0.79547  0.27973  0.49744  1.0000
  N   N6        1.0  0.86796  0.36843  0.53164  1.0000
  O   O17       1.0  0.83305  0.37204  0.56257  1.0000
  O   O18       1.0  0.88027  0.34792  0.59037  1.0000
