data_image0
_chemical_formula_structural       C3H2C2H2NHC3H2C2H2NHC3H2C2H2NHCNCNCNC18H12C3O3CNCNCNC18H12C3O3C3NC2NC2H2NHC3NC2NC2H2NHC3NC2NC2H2NH
_chemical_formula_sum              "C84 H48 N18 O6"
_cell_length_a       36.7283
_cell_length_b       36.7277
_cell_length_c       15.0681
_cell_angle_alpha    90
_cell_angle_beta     90
_cell_angle_gamma    120

_space_group_name_H-M_alt    "P 1"
_space_group_IT_number       1

loop_
  _space_group_symop_operation_xyz
  'x, y, z'

loop_
  _atom_site_type_symbol
  _atom_site_label
  _atom_site_symmetry_multiplicity
  _atom_site_fract_x
  _atom_site_fract_y
  _atom_site_fract_z
  _atom_site_occupancy
  C   C1        1.0  0.45810  0.50369  0.32488  1.0000
  C   C2        1.0  0.46484  0.48277  0.25385  1.0000
  C   C3        1.0  0.48806  0.46234  0.26652  1.0000
  H   H1        1.0  0.49213  0.44703  0.21410  1.0000
  H   H2        1.0  0.45267  0.48216  0.19245  1.0000
  C   C4        1.0  0.50423  0.55408  0.04534  1.0000
  C   C5        1.0  0.52751  0.53351  0.05796  1.0000
  H   H3        1.0  0.50125  0.57084  0.09617  1.0000
  H   H4        1.0  0.54144  0.53546  0.11785  1.0000
  N   N1        1.0  0.43828  0.52583  0.30831  1.0000
  H   H5        1.0  0.44904  0.54562  0.25883  1.0000
  C   C6        1.0  0.49065  0.95328  0.32488  1.0000
  C   C7        1.0  0.51158  0.98093  0.25384  1.0000
  C   C8        1.0  0.53201  0.02458  0.26651  1.0000
  H   H6        1.0  0.54731  0.04396  0.21408  1.0000
  H   H7        1.0  0.51219  0.96937  0.19244  1.0000
  C   C9        1.0  0.44027  0.94902  0.04534  1.0000
  C   C10       1.0  0.46083  0.99287  0.05794  1.0000
  H   H8        1.0  0.42351  0.92928  0.09617  1.0000
  H   H9        1.0  0.45889  0.00486  0.11785  1.0000
  N   N2        1.0  0.46851  0.91131  0.30831  1.0000
  H   H10       1.0  0.44873  0.90228  0.25881  1.0000
  C   C11       1.0  0.04107  0.53625  0.32489  1.0000
  C   C12       1.0  0.01342  0.52953  0.25384  1.0000
  C   C13       1.0  0.96978  0.50633  0.26650  1.0000
  H   H11       1.0  0.95040  0.50226  0.21408  1.0000
  H   H12       1.0  0.02499  0.54170  0.19245  1.0000
  C   C14       1.0  0.04529  0.49010  0.04535  1.0000
  C   C15       1.0  0.00144  0.46683  0.05795  1.0000
  H   H13       1.0  0.06502  0.49307  0.09619  1.0000
  H   H14       1.0  0.98944  0.45291  0.11785  1.0000
  N   N3        1.0  0.08304  0.55606  0.30832  1.0000
  H   H15       1.0  0.09207  0.54531  0.25884  1.0000
  C   C16       1.0  0.28751  0.65044  0.32169  1.0000
  N   N4        1.0  0.30227  0.62313  0.32205  1.0000
  C   C17       1.0  0.34391  0.63593  0.32172  1.0000
  N   N5        1.0  0.37122  0.67800  0.32207  1.0000
  C   C18       1.0  0.35842  0.70684  0.32169  1.0000
  N   N6        1.0  0.31635  0.69208  0.32204  1.0000
  C   C19       1.0  0.35837  0.60662  0.32590  1.0000
  C   C20       1.0  0.33001  0.56290  0.33496  1.0000
  C   C21       1.0  0.34467  0.53428  0.34333  1.0000
  C   C22       1.0  0.38817  0.54847  0.34116  1.0000
  C   C23       1.0  0.41658  0.59201  0.33186  1.0000
  C   C24       1.0  0.40194  0.62056  0.32434  1.0000
  C   C25       1.0  0.24374  0.63598  0.32585  1.0000
  C   C26       1.0  0.21411  0.59241  0.32427  1.0000
  C   C27       1.0  0.17092  0.57777  0.33176  1.0000
  C   C28       1.0  0.15579  0.60618  0.34113  1.0000
  C   C29       1.0  0.18511  0.64968  0.34333  1.0000
  C   C30       1.0  0.22838  0.66434  0.33493  1.0000
  C   C31       1.0  0.38773  0.75062  0.32590  1.0000
  C   C32       1.0  0.37379  0.78024  0.32434  1.0000
  C   C33       1.0  0.40234  0.82344  0.33182  1.0000
  C   C34       1.0  0.44588  0.83857  0.34116  1.0000
  C   C35       1.0  0.46006  0.80925  0.34336  1.0000
  C   C36       1.0  0.43145  0.76597  0.33494  1.0000
  H   H16       1.0  0.15079  0.54597  0.33300  1.0000
  H   H17       1.0  0.22351  0.57057  0.31883  1.0000
  H   H18       1.0  0.17523  0.67110  0.35023  1.0000
  H   H19       1.0  0.24854  0.69610  0.33709  1.0000
  H   H20       1.0  0.34255  0.77084  0.31885  1.0000
  H   H21       1.0  0.39068  0.84357  0.33299  1.0000
  H   H22       1.0  0.44305  0.74582  0.33713  1.0000
  H   H23       1.0  0.49137  0.81913  0.35024  1.0000
  H   H24       1.0  0.42378  0.65180  0.31889  1.0000
  H   H25       1.0  0.44838  0.60367  0.33304  1.0000
  H   H26       1.0  0.32324  0.50297  0.35021  1.0000
  H   H27       1.0  0.29825  0.55129  0.33709  1.0000
  C   C37       1.0  0.11224  0.59096  0.35179  1.0000
  C   C38       1.0  0.47422  0.88212  0.35178  1.0000
  C   C39       1.0  0.40338  0.52012  0.35178  1.0000
  O   O1        1.0  0.38285  0.48737  0.40840  1.0000
  O   O2        1.0  0.50696  0.89434  0.40843  1.0000
  O   O3        1.0  0.10002  0.61150  0.40841  1.0000
  C   C40       1.0  0.70645  0.35024  0.32779  1.0000
  N   N7        1.0  0.68661  0.37306  0.32766  1.0000
  C   C41       1.0  0.64411  0.35507  0.32783  1.0000
  N   N8        1.0  0.62130  0.31241  0.32766  1.0000
  C   C42       1.0  0.63929  0.28791  0.32780  1.0000
  N   N9        1.0  0.68195  0.30775  0.32763  1.0000
  C   C43       1.0  0.62428  0.37979  0.32607  1.0000
  C   C44       1.0  0.64795  0.42409  0.31664  1.0000
  C   C45       1.0  0.62807  0.44828  0.31232  1.0000
  C   C46       1.0  0.58391  0.42897  0.31913  1.0000
  C   C47       1.0  0.56015  0.38484  0.32882  1.0000
  C   C48       1.0  0.58000  0.36067  0.33197  1.0000
  C   C49       1.0  0.75100  0.37008  0.32601  1.0000
  C   C50       1.0  0.77616  0.41437  0.33189  1.0000
  C   C51       1.0  0.82017  0.43422  0.32868  1.0000
  C   C52       1.0  0.84056  0.41047  0.31906  1.0000
  C   C53       1.0  0.81571  0.36631  0.31228  1.0000
  C   C54       1.0  0.77164  0.34642  0.31661  1.0000
  C   C55       1.0  0.61456  0.24336  0.32601  1.0000
  C   C56       1.0  0.63368  0.21819  0.33193  1.0000
  C   C57       1.0  0.60952  0.17418  0.32874  1.0000
  C   C58       1.0  0.56538  0.15380  0.31909  1.0000
  C   C59       1.0  0.54608  0.17866  0.31227  1.0000
  C   C60       1.0  0.57027  0.22273  0.31659  1.0000
  H   H28       1.0  0.83705  0.46637  0.33099  1.0000
  H   H29       1.0  0.76286  0.43294  0.33809  1.0000
  H   H30       1.0  0.82945  0.34815  0.30516  1.0000
  H   H31       1.0  0.75487  0.31436  0.31151  1.0000
  H   H32       1.0  0.66556  0.23149  0.33811  1.0000
  H   H33       1.0  0.62477  0.15729  0.33099  1.0000
  H   H34       1.0  0.55499  0.23950  0.31148  1.0000
  H   H35       1.0  0.51419  0.16493  0.30512  1.0000
  H   H36       1.0  0.56142  0.32879  0.33814  1.0000
  H   H37       1.0  0.52801  0.36957  0.33101  1.0000
  H   H38       1.0  0.64623  0.48017  0.30516  1.0000
  H   H39       1.0  0.68000  0.43938  0.31153  1.0000
  C   C61       1.0  0.88488  0.43080  0.31246  1.0000
  C   C62       1.0  0.54139  0.10948  0.31244  1.0000
  C   C63       1.0  0.56358  0.45296  0.31248  1.0000
  O   O4        1.0  0.57998  0.48618  0.25610  1.0000
  O   O5        1.0  0.50817  0.09266  0.25607  1.0000
  O   O6        1.0  0.90170  0.41441  0.25608  1.0000
  C   C64       1.0  0.50583  0.46310  0.35011  1.0000
  C   C65       1.0  0.49925  0.48395  0.42184  1.0000
  C   C66       1.0  0.47575  0.50465  0.40902  1.0000
  N   N10       1.0  0.47221  0.52639  0.47848  1.0000
  C   C67       1.0  0.48954  0.52884  0.55940  1.0000
  C   C68       1.0  0.51281  0.50797  0.57221  1.0000
  N   N11       1.0  0.51680  0.48661  0.50289  1.0000
  C   C69       1.0  0.48520  0.55177  0.62946  1.0000
  C   C70       1.0  0.53172  0.51033  0.65494  1.0000
  H   H40       1.0  0.46851  0.56694  0.62058  1.0000
  H   H41       1.0  0.54877  0.49557  0.66450  1.0000
  N   N12       1.0  0.52857  0.44343  0.36059  1.0000
  H   H42       1.0  0.52075  0.42367  0.40987  1.0000
  C   C71       1.0  0.53124  0.04159  0.35009  1.0000
  C   C72       1.0  0.51040  0.01417  0.42183  1.0000
  C   C73       1.0  0.48970  0.96997  0.40902  1.0000
  N   N13       1.0  0.46796  0.94469  0.47848  1.0000
  C   C74       1.0  0.46551  0.95957  0.55940  1.0000
  C   C75       1.0  0.48638  0.00371  0.57220  1.0000
  N   N14       1.0  0.50774  0.02906  0.50288  1.0000
  C   C76       1.0  0.44258  0.93230  0.62946  1.0000
  C   C77       1.0  0.48402  0.02026  0.65493  1.0000
  H   H43       1.0  0.42740  0.90044  0.62058  1.0000
  H   H44       1.0  0.49878  0.05207  0.66449  1.0000
  N   N15       1.0  0.55092  0.08402  0.36057  1.0000
  H   H45       1.0  0.57068  0.09595  0.40985  1.0000
  C   C78       1.0  0.95276  0.48856  0.35008  1.0000
  C   C79       1.0  0.98017  0.49512  0.42183  1.0000
  C   C80       1.0  0.02438  0.51861  0.40902  1.0000
  N   N16       1.0  0.04964  0.52213  0.47850  1.0000
  C   C81       1.0  0.03476  0.50480  0.55940  1.0000
  C   C82       1.0  0.99061  0.48155  0.57220  1.0000
  N   N17       1.0  0.96527  0.47757  0.50287  1.0000
  C   C83       1.0  0.06202  0.50913  0.62948  1.0000
  C   C84       1.0  0.97405  0.46263  0.65493  1.0000
  H   H46       1.0  0.09388  0.52581  0.62060  1.0000
  H   H47       1.0  0.94225  0.44560  0.66447  1.0000
  N   N18       1.0  0.91033  0.46583  0.36054  1.0000
  H   H48       1.0  0.89839  0.47361  0.40986  1.0000
