data_image0
_chemical_formula_structural       C17H12C17H12C2H2CH4CH3C2H2CH4CH4C2H2CH4CH3C13H9C13H9C4NC2NCHCH2C4NC2NCHCHC4NC2NCHCH2
_chemical_formula_sum              "C96 H78 N6"
_cell_length_a       37.4927
_cell_length_b       37.4673
_cell_length_c       14.9038
_cell_angle_alpha    90
_cell_angle_beta     90
_cell_angle_gamma    120.036

_space_group_name_H-M_alt    "P 1"
_space_group_IT_number       1

loop_
  _space_group_symop_operation_xyz
  'x, y, z'

loop_
  _atom_site_type_symbol
  _atom_site_label
  _atom_site_symmetry_multiplicity
  _atom_site_fract_x
  _atom_site_fract_y
  _atom_site_fract_z
  _atom_site_occupancy
  C   C1        1.0  0.46882  0.89073  0.36200  1.0000
  C   C2        1.0  0.44541  0.84734  0.36334  1.0000
  C   C3        1.0  0.38598  0.75680  0.31030  1.0000
  C   C4        1.0  0.36191  0.71383  0.31656  1.0000
  C   C5        1.0  0.31827  0.69305  0.31599  1.0000
  C   C6        1.0  0.29412  0.64946  0.31642  1.0000
  C   C7        1.0  0.31486  0.62657  0.31582  1.0000
  C   C8        1.0  0.35842  0.64601  0.31634  1.0000
  C   C9        1.0  0.38132  0.68969  0.31591  1.0000
  C   C10       1.0  0.37730  0.62196  0.31002  1.0000
  C   C11       1.0  0.43052  0.60547  0.34554  1.0000
  C   C12       1.0  0.40845  0.56260  0.36302  1.0000
  C   C13       1.0  0.42843  0.53922  0.36167  1.0000
  C   C14       1.0  0.25118  0.63057  0.31017  1.0000
  C   C15       1.0  0.18141  0.57733  0.34566  1.0000
  C   C16       1.0  0.15735  0.53476  0.32613  1.0000
  C   C17       1.0  0.11399  0.51495  0.32430  1.0000
  H   H1        1.0  0.49973  0.90465  0.37512  1.0000
  H   H2        1.0  0.45982  0.83105  0.37901  1.0000
  H   H3        1.0  0.41286  0.70428  0.31275  1.0000
  H   H4        1.0  0.30371  0.71002  0.31293  1.0000
  H   H5        1.0  0.29789  0.59501  0.31263  1.0000
  H   H6        1.0  0.41144  0.50830  0.37496  1.0000
  H   H7        1.0  0.37775  0.54815  0.37880  1.0000
  H   H8        1.0  0.09764  0.48394  0.31168  1.0000
  H   H9        1.0  0.17122  0.51763  0.31391  1.0000
  H   H10       1.0  0.36350  0.59694  0.27135  1.0000
  H   H11       1.0  0.41096  0.76802  0.27158  1.0000
  H   H12       1.0  0.23999  0.64445  0.27175  1.0000
  C   C18       1.0  0.52954  0.11668  0.32662  1.0000
  C   C19       1.0  0.55387  0.16005  0.32890  1.0000
  C   C20       1.0  0.61960  0.25048  0.30151  1.0000
  C   C21       1.0  0.64548  0.29303  0.30908  1.0000
  C   C22       1.0  0.68891  0.31107  0.30849  1.0000
  C   C23       1.0  0.71525  0.35437  0.30899  1.0000
  C   C24       1.0  0.69725  0.37979  0.30846  1.0000
  C   C25       1.0  0.65398  0.36282  0.30905  1.0000
  C   C26       1.0  0.62855  0.31936  0.30853  1.0000
  C   C27       1.0  0.63736  0.38871  0.30141  1.0000
  C   C28       1.0  0.58963  0.41164  0.34741  1.0000
  C   C29       1.0  0.61267  0.45442  0.32864  1.0000
  C   C30       1.0  0.59366  0.47874  0.32633  1.0000
  C   C31       1.0  0.75776  0.37101  0.30127  1.0000
  C   C32       1.0  0.82847  0.41875  0.34717  1.0000
  C   C33       1.0  0.85382  0.46151  0.36328  1.0000
  C   C34       1.0  0.89707  0.48039  0.36134  1.0000
  H   H13       1.0  0.49857  0.10363  0.31508  1.0000
  H   H14       1.0  0.53975  0.17709  0.31896  1.0000
  H   H15       1.0  0.59716  0.30667  0.30546  1.0000
  H   H16       1.0  0.70157  0.29234  0.30538  1.0000
  H   H17       1.0  0.71597  0.41120  0.30527  1.0000
  H   H18       1.0  0.61158  0.50972  0.31473  1.0000
  H   H19       1.0  0.64384  0.46857  0.31867  1.0000
  H   H20       1.0  0.91421  0.51141  0.37327  1.0000
  H   H21       1.0  0.84098  0.47943  0.37734  1.0000
  H   H22       1.0  0.64844  0.40966  0.25265  1.0000
  H   H23       1.0  0.59867  0.24060  0.25274  1.0000
  H   H24       1.0  0.76758  0.35987  0.25259  1.0000
  C   C35       1.0  0.53583  0.51172  0.27278  1.0000
  C   C36       1.0  0.51582  0.53507  0.27205  1.0000
  H   H25       1.0  0.51861  0.55221  0.21626  1.0000
  H   H26       1.0  0.55291  0.51310  0.21812  1.0000
  C   C37       1.0  0.52879  0.46885  0.03957  1.0000
  H   H27       1.0  0.46292  0.42637  0.02304  1.0000
  H   H28       1.0  0.52811  0.49607  0.06288  1.0000
  H   H29       1.0  0.55685  0.47888  0.00046  1.0000
  H   H30       1.0  0.52962  0.45154  0.09756  1.0000
  C   C38       1.0  0.43239  0.47431  0.07059  1.0000
  H   H31       1.0  0.41162  0.44164  0.05753  1.0000
  H   H32       1.0  0.41604  0.48545  0.11213  1.0000
  H   H33       1.0  0.45911  0.47859  0.10828  1.0000
  C   C39       1.0  0.49644  0.02579  0.27321  1.0000
  C   C40       1.0  0.47308  0.98239  0.27249  1.0000
  H   H34       1.0  0.45591  0.96803  0.21674  1.0000
  H   H35       1.0  0.49508  0.04151  0.21854  1.0000
  C   C41       1.0  0.53902  0.06138  0.03996  1.0000
  H   H36       1.0  0.58176  0.03833  0.02346  1.0000
  H   H37       1.0  0.51191  0.03335  0.06324  1.0000
  H   H38       1.0  0.52885  0.07929  0.00084  1.0000
  H   H39       1.0  0.55624  0.07959  0.09798  1.0000
  C   C42       1.0  0.53399  0.95970  0.07075  1.0000
  H   H40       1.0  0.47685  0.93542  0.00020  1.0000
  H   H41       1.0  0.56658  0.97154  0.05717  1.0000
  H   H42       1.0  0.52292  0.93217  0.11225  1.0000
  H   H43       1.0  0.52989  0.98218  0.10875  1.0000
  C   C43       1.0  0.98230  0.47232  0.27275  1.0000
  C   C44       1.0  0.02567  0.49227  0.27213  1.0000
  H   H44       1.0  0.04001  0.48946  0.21636  1.0000
  H   H45       1.0  0.96659  0.45527  0.21805  1.0000
  C   C45       1.0  0.94642  0.47934  0.03964  1.0000
  H   H46       1.0  0.96993  0.54525  0.02291  1.0000
  H   H47       1.0  0.97430  0.48002  0.06298  1.0000
  H   H48       1.0  0.92834  0.45124  0.00060  1.0000
  H   H49       1.0  0.92831  0.47855  0.09762  1.0000
  C   C46       1.0  0.04837  0.57570  0.07067  1.0000
  H   H50       1.0  0.03669  0.59659  0.05718  1.0000
  H   H51       1.0  0.07585  0.59202  0.11229  1.0000
  H   H52       1.0  0.02578  0.54909  0.10850  1.0000
  C   C47       1.0  0.45023  0.91482  0.34373  1.0000
  C   C48       1.0  0.40256  0.82657  0.34607  1.0000
  C   C49       1.0  0.38396  0.85057  0.32714  1.0000
  C   C50       1.0  0.40747  0.89396  0.32527  1.0000
  C   C51       1.0  0.37829  0.78388  0.35330  1.0000
  C   C52       1.0  0.41211  0.62971  0.35285  1.0000
  C   C53       1.0  0.47312  0.62411  0.32647  1.0000
  C   C54       1.0  0.47111  0.55786  0.34325  1.0000
  C   C55       1.0  0.49298  0.60062  0.32453  1.0000
  C   C56       1.0  0.22407  0.59568  0.35284  1.0000
  C   C57       1.0  0.16074  0.59944  0.36371  1.0000
  C   C58       1.0  0.09322  0.53686  0.34350  1.0000
  C   C59       1.0  0.11739  0.57952  0.36241  1.0000
  H   H53       1.0  0.39275  0.91026  0.31310  1.0000
  H   H54       1.0  0.35290  0.83662  0.31550  1.0000
  H   H55       1.0  0.17708  0.63011  0.37982  1.0000
  H   H56       1.0  0.49022  0.65518  0.31469  1.0000
  H   H57       1.0  0.52401  0.61539  0.31235  1.0000
  H   H58       1.0  0.10355  0.59654  0.37601  1.0000
  H   H59       1.0  0.42626  0.65453  0.39181  1.0000
  H   H60       1.0  0.35350  0.77319  0.39230  1.0000
  H   H61       1.0  0.23470  0.58144  0.39158  1.0000
  C   C60       1.0  0.54693  0.09149  0.34438  1.0000
  C   C61       1.0  0.59662  0.17979  0.34770  1.0000
  C   C62       1.0  0.61405  0.15450  0.36405  1.0000
  C   C63       1.0  0.58971  0.11122  0.36208  1.0000
  C   C64       1.0  0.62138  0.22257  0.35545  1.0000
  C   C65       1.0  0.60763  0.38689  0.35524  1.0000
  C   C66       1.0  0.54690  0.39416  0.36375  1.0000
  C   C67       1.0  0.55106  0.46129  0.34403  1.0000
  C   C68       1.0  0.52798  0.41848  0.36175  1.0000
  C   C69       1.0  0.78573  0.40081  0.35500  1.0000
  C   C70       1.0  0.84809  0.39560  0.32872  1.0000
  C   C71       1.0  0.91668  0.45720  0.34387  1.0000
  C   C72       1.0  0.89142  0.41456  0.32644  1.0000
  H   H62       1.0  0.60363  0.09414  0.37418  1.0000
  H   H63       1.0  0.64481  0.16743  0.37827  1.0000
  H   H64       1.0  0.83099  0.36441  0.31887  1.0000
  H   H65       1.0  0.52906  0.36338  0.37798  1.0000
  H   H66       1.0  0.49698  0.40453  0.37383  1.0000
  H   H67       1.0  0.90440  0.39658  0.31497  1.0000
  H   H68       1.0  0.59668  0.36556  0.40333  1.0000
  H   H69       1.0  0.64270  0.23297  0.40356  1.0000
  H   H70       1.0  0.77540  0.41180  0.40307  1.0000
  C   C73       1.0  0.49163  0.53438  0.34565  1.0000
  C   C74       1.0  0.48932  0.51041  0.42144  1.0000
  C   C75       1.0  0.50874  0.48629  0.42122  1.0000
  C   C76       1.0  0.53185  0.48605  0.34615  1.0000
  N   N1        1.0  0.50592  0.46518  0.49731  1.0000
  C   C77       1.0  0.48581  0.46473  0.57361  1.0000
  C   C78       1.0  0.46709  0.48982  0.57522  1.0000
  N   N2        1.0  0.47023  0.51092  0.49845  1.0000
  C   C79       1.0  0.49047  0.44125  0.64847  1.0000
  H   H71       1.0  0.49428  0.41620  0.62142  1.0000
  C   C80       1.0  0.44541  0.49876  0.64836  1.0000
  H   H72       1.0  0.41697  0.49522  0.61946  1.0000
  H   H73       1.0  0.46479  0.53130  0.66593  1.0000
  C   C81       1.0  0.47376  0.95887  0.34609  1.0000
  C   C82       1.0  0.49776  0.98052  0.42183  1.0000
  C   C83       1.0  0.52192  0.02412  0.42158  1.0000
  C   C84       1.0  0.52216  0.04750  0.34652  1.0000
  N   N3        1.0  0.54303  0.04242  0.49765  1.0000
  C   C85       1.0  0.54350  0.02272  0.57392  1.0000
  C   C86       1.0  0.51834  0.97890  0.57560  1.0000
  N   N4        1.0  0.49721  0.96091  0.49887  1.0000
  C   C87       1.0  0.56679  0.05091  0.64891  1.0000
  H   H74       1.0  0.59174  0.07989  0.62199  1.0000
  C   C88       1.0  0.50928  0.94829  0.64889  1.0000
  H   H75       1.0  0.51245  0.92315  0.62001  1.0000
  C   C89       1.0  0.04919  0.51640  0.34583  1.0000
  C   C90       1.0  0.02755  0.51875  0.42156  1.0000
  C   C91       1.0  0.98399  0.49941  0.42121  1.0000
  C   C92       1.0  0.96064  0.47635  0.34607  1.0000
  N   N5        1.0  0.96570  0.50224  0.49725  1.0000
  C   C93       1.0  0.98537  0.52228  0.57363  1.0000
  C   C94       1.0  0.02916  0.54092  0.57538  1.0000
  N   N6        1.0  0.04713  0.53776  0.49867  1.0000
  C   C95       1.0  0.95722  0.51765  0.64843  1.0000
  H   H76       1.0  0.92837  0.51382  0.62131  1.0000
  C   C96       1.0  0.05974  0.56241  0.64875  1.0000
  H   H77       1.0  0.08491  0.59073  0.61996  1.0000
  H   H78       1.0  0.07252  0.54276  0.66666  1.0000
