data_image0
_chemical_formula_structural       C4HC4HO2H2N2C4HC4HO2H2N2C4HC4HO2H2N2C2HC4HN2H2O2CHC2HC4HN2H2O2CHC2HC4HN2H2O2CHC2HC4HN2H2O2CHC2HC4HN2H2O2CHC2HC4HN2H2O2CHC2HC2HN2C2HC2HN2C2HC2HN2C6H2NH2NO2CHC6H2NH2NO2CHC6H2NH2NO2CHC6H2NH2NO2CHC6H2NH2NO2CHC6H2NH2NO2CH
_chemical_formula_sum              "C120 H78 O30 N36"
_cell_length_a       39.0111
_cell_length_b       39.0112
_cell_length_c       14.9749
_cell_angle_alpha    90
_cell_angle_beta     90
_cell_angle_gamma    120

_space_group_name_H-M_alt    "P 1"
_space_group_IT_number       1

loop_
  _space_group_symop_operation_xyz
  'x, y, z'

loop_
  _atom_site_type_symbol
  _atom_site_label
  _atom_site_symmetry_multiplicity
  _atom_site_fract_x
  _atom_site_fract_y
  _atom_site_fract_z
  _atom_site_occupancy
  C   C1        1.0  0.98055  0.48594  0.33744  1.0000
  C   C2        1.0  0.89834  0.42902  0.33405  1.0000
  C   C3        1.0  0.92609  0.41795  0.30824  1.0000
  C   C4        1.0  0.96694  0.44654  0.30702  1.0000
  H   H1        1.0  0.86872  0.40876  0.33017  1.0000
  C   C5        1.0  0.02196  0.51576  0.33743  1.0000
  C   C6        1.0  0.03557  0.55516  0.30704  1.0000
  C   C7        1.0  0.07642  0.58375  0.30822  1.0000
  C   C8        1.0  0.10417  0.57264  0.33383  1.0000
  H   H2        1.0  0.13379  0.59291  0.33005  1.0000
  O   O1        1.0  0.99244  0.43654  0.26838  1.0000
  O   O2        1.0  0.01007  0.56517  0.26841  1.0000
  H   H3        1.0  0.99411  0.41734  0.30810  1.0000
  H   H4        1.0  0.00841  0.58437  0.30817  1.0000
  N   N1        1.0  0.08985  0.62034  0.27881  1.0000
  N   N2        1.0  0.91268  0.38136  0.27885  1.0000
  C   C9        1.0  0.51616  0.49503  0.33744  1.0000
  C   C10       1.0  0.57308  0.46974  0.33405  1.0000
  C   C11       1.0  0.58415  0.50856  0.30824  1.0000
  C   C12       1.0  0.55555  0.52082  0.30702  1.0000
  H   H5        1.0  0.59334  0.46038  0.33017  1.0000
  C   C13       1.0  0.48634  0.50662  0.33743  1.0000
  C   C14       1.0  0.44694  0.48083  0.30704  1.0000
  C   C15       1.0  0.41835  0.49309  0.30822  1.0000
  C   C16       1.0  0.42945  0.53195  0.33383  1.0000
  H   H6        1.0  0.40919  0.54130  0.33005  1.0000
  O   O3        1.0  0.56556  0.55632  0.26838  1.0000
  O   O4        1.0  0.43693  0.44532  0.26841  1.0000
  H   H7        1.0  0.58476  0.57719  0.30810  1.0000
  H   H8        1.0  0.41773  0.42446  0.30817  1.0000
  N   N3        1.0  0.38176  0.46993  0.27881  1.0000
  N   N4        1.0  0.62074  0.53174  0.27885  1.0000
  C   C17       1.0  0.50707  0.02155  0.33744  1.0000
  C   C18       1.0  0.53236  0.10376  0.33405  1.0000
  C   C19       1.0  0.49353  0.07601  0.30824  1.0000
  C   C20       1.0  0.48128  0.03516  0.30702  1.0000
  H   H9        1.0  0.54172  0.13337  0.33017  1.0000
  C   C21       1.0  0.49548  0.98013  0.33743  1.0000
  C   C22       1.0  0.52127  0.96653  0.30704  1.0000
  C   C23       1.0  0.50901  0.92568  0.30822  1.0000
  C   C24       1.0  0.47015  0.89793  0.33383  1.0000
  H   H10       1.0  0.46080  0.86831  0.33005  1.0000
  O   O5        1.0  0.44578  0.00966  0.26838  1.0000
  O   O6        1.0  0.55678  0.99203  0.26841  1.0000
  H   H11       1.0  0.42490  0.00799  0.30810  1.0000
  H   H12       1.0  0.57764  0.99369  0.30817  1.0000
  N   N5        1.0  0.53217  0.91225  0.27881  1.0000
  N   N6        1.0  0.47036  0.08942  0.27885  1.0000
  C   C25       1.0  0.27733  0.47712  0.24863  1.0000
  C   C26       1.0  0.30647  0.46560  0.25059  1.0000
  H   H13       1.0  0.31704  0.46156  0.19120  1.0000
  C   C27       1.0  0.23141  0.49175  0.33586  1.0000
  C   C28       1.0  0.17185  0.51349  0.33488  1.0000
  C   C29       1.0  0.16420  0.47713  0.29589  1.0000
  C   C30       1.0  0.19389  0.46645  0.29833  1.0000
  H   H14       1.0  0.18844  0.44048  0.26901  1.0000
  N   N7        1.0  0.12753  0.45251  0.25268  1.0000
  N   N8        1.0  0.26599  0.48402  0.16769  1.0000
  H   H15       1.0  0.27761  0.48134  0.11245  1.0000
  H   H16       1.0  0.24824  0.49460  0.16234  1.0000
  O   O7        1.0  0.13223  0.44830  0.17119  1.0000
  O   O8        1.0  0.10920  0.41892  0.28848  1.0000
  C   C31       1.0  0.14570  0.52685  0.31811  1.0000
  H   H17       1.0  0.14900  0.54094  0.26048  1.0000
  C   C32       1.0  0.52498  0.80063  0.24863  1.0000
  C   C33       1.0  0.53649  0.84128  0.25059  1.0000
  H   H18       1.0  0.54054  0.85590  0.19120  1.0000
  C   C34       1.0  0.51035  0.74008  0.33586  1.0000
  C   C35       1.0  0.48861  0.65878  0.33488  1.0000
  C   C36       1.0  0.52497  0.68748  0.29589  1.0000
  C   C37       1.0  0.53565  0.72786  0.29833  1.0000
  H   H19       1.0  0.56162  0.74838  0.26901  1.0000
  N   N9        1.0  0.54959  0.67544  0.25268  1.0000
  N   N10       1.0  0.51808  0.78239  0.16769  1.0000
  H   H20       1.0  0.52075  0.79668  0.11245  1.0000
  H   H21       1.0  0.50750  0.75406  0.16234  1.0000
  O   O9        1.0  0.55380  0.68435  0.17119  1.0000
  O   O10       1.0  0.58318  0.69070  0.28848  1.0000
  C   C38       1.0  0.47525  0.61927  0.31811  1.0000
  H   H22       1.0  0.46115  0.60847  0.26048  1.0000
  C   C39       1.0  0.20147  0.72477  0.24863  1.0000
  C   C40       1.0  0.16082  0.69563  0.25059  1.0000
  H   H23       1.0  0.14620  0.68506  0.19120  1.0000
  C   C41       1.0  0.26202  0.77068  0.33586  1.0000
  C   C42       1.0  0.34332  0.83025  0.33488  1.0000
  C   C43       1.0  0.31462  0.83790  0.29589  1.0000
  C   C44       1.0  0.27424  0.80821  0.29833  1.0000
  H   H24       1.0  0.25372  0.81366  0.26901  1.0000
  N   N11       1.0  0.32666  0.87457  0.25268  1.0000
  N   N12       1.0  0.21971  0.73611  0.16769  1.0000
  H   H25       1.0  0.20542  0.72449  0.11245  1.0000
  H   H26       1.0  0.24804  0.75386  0.16234  1.0000
  O   O11       1.0  0.31775  0.86987  0.17119  1.0000
  O   O12       1.0  0.31140  0.89290  0.28848  1.0000
  C   C45       1.0  0.38283  0.85640  0.31811  1.0000
  H   H27       1.0  0.39362  0.85310  0.26048  1.0000
  C   C46       1.0  0.72517  0.52454  0.24866  1.0000
  C   C47       1.0  0.69603  0.53605  0.25063  1.0000
  H   H28       1.0  0.68546  0.54010  0.19125  1.0000
  C   C48       1.0  0.77109  0.50990  0.33587  1.0000
  C   C49       1.0  0.83066  0.48818  0.33490  1.0000
  C   C50       1.0  0.83831  0.52453  0.29592  1.0000
  C   C51       1.0  0.80861  0.53521  0.29836  1.0000
  H   H29       1.0  0.81406  0.56117  0.26905  1.0000
  N   N13       1.0  0.87498  0.54917  0.25273  1.0000
  N   N14       1.0  0.73652  0.51765  0.16771  1.0000
  H   H30       1.0  0.72489  0.52033  0.11248  1.0000
  H   H31       1.0  0.75426  0.50707  0.16235  1.0000
  O   O13       1.0  0.87028  0.55338  0.17123  1.0000
  O   O14       1.0  0.89330  0.58276  0.28854  1.0000
  C   C52       1.0  0.85683  0.47483  0.31816  1.0000
  H   H32       1.0  0.85356  0.46077  0.26049  1.0000
  C   C53       1.0  0.47756  0.20105  0.24866  1.0000
  C   C54       1.0  0.46605  0.16040  0.25063  1.0000
  H   H33       1.0  0.46200  0.14577  0.19125  1.0000
  C   C55       1.0  0.49220  0.26160  0.33587  1.0000
  C   C56       1.0  0.51392  0.34291  0.33490  1.0000
  C   C57       1.0  0.47757  0.31419  0.29592  1.0000
  C   C58       1.0  0.46689  0.27382  0.29836  1.0000
  H   H34       1.0  0.44092  0.25330  0.26905  1.0000
  N   N15       1.0  0.45293  0.32623  0.25273  1.0000
  N   N16       1.0  0.48445  0.21928  0.16771  1.0000
  H   H35       1.0  0.48177  0.20499  0.11248  1.0000
  H   H36       1.0  0.49503  0.24761  0.16235  1.0000
  O   O15       1.0  0.44872  0.31732  0.17123  1.0000
  O   O16       1.0  0.41934  0.31096  0.28854  1.0000
  C   C59       1.0  0.52727  0.38241  0.31816  1.0000
  H   H37       1.0  0.54132  0.39321  0.26049  1.0000
  C   C60       1.0  0.80105  0.27693  0.24866  1.0000
  C   C61       1.0  0.84170  0.30607  0.25063  1.0000
  H   H38       1.0  0.85633  0.31664  0.19125  1.0000
  C   C62       1.0  0.74049  0.23101  0.33587  1.0000
  C   C63       1.0  0.65919  0.17144  0.33490  1.0000
  C   C64       1.0  0.68790  0.16379  0.29592  1.0000
  C   C65       1.0  0.72828  0.19349  0.29836  1.0000
  H   H39       1.0  0.74880  0.18804  0.26905  1.0000
  N   N17       1.0  0.67587  0.12712  0.25273  1.0000
  N   N18       1.0  0.78282  0.26558  0.16771  1.0000
  H   H40       1.0  0.79712  0.27720  0.11248  1.0000
  H   H41       1.0  0.75449  0.24784  0.16235  1.0000
  O   O17       1.0  0.68478  0.13181  0.17123  1.0000
  O   O18       1.0  0.69114  0.10880  0.28854  1.0000
  C   C66       1.0  0.61969  0.14528  0.31816  1.0000
  H   H42       1.0  0.60889  0.14854  0.26049  1.0000
  C   C67       1.0  0.95160  0.49551  0.36619  1.0000
  C   C68       1.0  0.91071  0.46824  0.35997  1.0000
  H   H43       1.0  0.96011  0.52336  0.38890  1.0000
  C   C69       1.0  0.09181  0.53344  0.35986  1.0000
  C   C70       1.0  0.05092  0.50620  0.36623  1.0000
  H   H44       1.0  0.04240  0.47833  0.38886  1.0000
  N   N19       1.0  0.11779  0.52115  0.37259  1.0000
  N   N20       1.0  0.88472  0.48051  0.37270  1.0000
  C   C71       1.0  0.50659  0.45651  0.36619  1.0000
  C   C72       1.0  0.53386  0.44288  0.35997  1.0000
  H   H45       1.0  0.47874  0.43717  0.38890  1.0000
  C   C73       1.0  0.46865  0.55878  0.35986  1.0000
  C   C74       1.0  0.49590  0.54514  0.36623  1.0000
  H   H46       1.0  0.52377  0.56449  0.38886  1.0000
  N   N21       1.0  0.48094  0.59705  0.37259  1.0000
  N   N22       1.0  0.52159  0.40463  0.37270  1.0000
  C   C75       1.0  0.54559  0.05050  0.36619  1.0000
  C   C76       1.0  0.55922  0.09140  0.35997  1.0000
  H   H47       1.0  0.56493  0.04199  0.38890  1.0000
  C   C77       1.0  0.44332  0.91029  0.35986  1.0000
  C   C78       1.0  0.45696  0.95118  0.36623  1.0000
  H   H48       1.0  0.43761  0.95970  0.38886  1.0000
  N   N23       1.0  0.40505  0.88431  0.37259  1.0000
  N   N24       1.0  0.59747  0.11738  0.37270  1.0000
  C   C79       1.0  0.32202  0.46026  0.33142  1.0000
  C   C80       1.0  0.30737  0.46620  0.41335  1.0000
  C   C81       1.0  0.27760  0.47681  0.41195  1.0000
  C   C82       1.0  0.26209  0.48205  0.33111  1.0000
  C   C83       1.0  0.23808  0.52717  0.37671  1.0000
  C   C84       1.0  0.20899  0.53877  0.37655  1.0000
  H   H49       1.0  0.26529  0.54569  0.40404  1.0000
  H   H50       1.0  0.26689  0.48039  0.47159  1.0000
  N   N25       1.0  0.21817  0.57407  0.41466  1.0000
  H   H51       1.0  0.24377  0.59078  0.44274  1.0000
  H   H52       1.0  0.19925  0.58333  0.41744  1.0000
  N   N26       1.0  0.32275  0.46186  0.49568  1.0000
  O   O19       1.0  0.29629  0.43515  0.54308  1.0000
  O   O20       1.0  0.33885  0.49364  0.53936  1.0000
  C   C85       1.0  0.35084  0.44907  0.32836  1.0000
  H   H53       1.0  0.35521  0.43736  0.38318  1.0000
  C   C86       1.0  0.54183  0.86218  0.33142  1.0000
  C   C87       1.0  0.53590  0.84158  0.41335  1.0000
  C   C88       1.0  0.52528  0.80120  0.41195  1.0000
  C   C89       1.0  0.52005  0.78046  0.33111  1.0000
  C   C90       1.0  0.47493  0.71133  0.37671  1.0000
  C   C91       1.0  0.46333  0.67065  0.37655  1.0000
  H   H54       1.0  0.45641  0.72003  0.40404  1.0000
  H   H55       1.0  0.52171  0.78692  0.47159  1.0000
  N   N27       1.0  0.42803  0.64452  0.41466  1.0000
  H   H56       1.0  0.41131  0.65340  0.44274  1.0000
  H   H57       1.0  0.41877  0.61634  0.41744  1.0000
  N   N28       1.0  0.54023  0.86130  0.49568  1.0000
  O   O21       1.0  0.56695  0.86156  0.54308  1.0000
  O   O22       1.0  0.50846  0.84563  0.53936  1.0000
  C   C92       1.0  0.55303  0.90219  0.32836  1.0000
  H   H58       1.0  0.56474  0.91827  0.38318  1.0000
  C   C93       1.0  0.13992  0.68007  0.33142  1.0000
  C   C94       1.0  0.16051  0.69473  0.41335  1.0000
  C   C95       1.0  0.20090  0.72450  0.41195  1.0000
  C   C96       1.0  0.22164  0.74001  0.33111  1.0000
  C   C97       1.0  0.29077  0.76402  0.37671  1.0000
  C   C98       1.0  0.33145  0.79310  0.37655  1.0000
  H   H59       1.0  0.28207  0.73681  0.40404  1.0000
  H   H60       1.0  0.21518  0.73521  0.47159  1.0000
  N   N29       1.0  0.35758  0.78392  0.41466  1.0000
  H   H61       1.0  0.34870  0.75833  0.44274  1.0000
  H   H62       1.0  0.38576  0.80285  0.41744  1.0000
  N   N30       1.0  0.14080  0.67935  0.49568  1.0000
  O   O23       1.0  0.14054  0.70581  0.54308  1.0000
  O   O24       1.0  0.15647  0.66325  0.53936  1.0000
  C   C99       1.0  0.09991  0.65126  0.32836  1.0000
  H   H63       1.0  0.08383  0.64689  0.38318  1.0000
  C   C100      1.0  0.68047  0.54138  0.33147  1.0000
  C   C101      1.0  0.69512  0.53543  0.41339  1.0000
  C   C102      1.0  0.72489  0.52482  0.41198  1.0000
  C   C103      1.0  0.74041  0.51959  0.33113  1.0000
  C   C104      1.0  0.76443  0.47448  0.37671  1.0000
  C   C105      1.0  0.79351  0.46289  0.37656  1.0000
  H   H64       1.0  0.73721  0.45596  0.40403  1.0000
  H   H65       1.0  0.73560  0.52124  0.47161  1.0000
  N   N31       1.0  0.78434  0.42758  0.41466  1.0000
  H   H66       1.0  0.75875  0.41087  0.44272  1.0000
  H   H67       1.0  0.80327  0.41833  0.41743  1.0000
  N   N32       1.0  0.67974  0.53976  0.49573  1.0000
  O   O25       1.0  0.70620  0.56647  0.54314  1.0000
  O   O26       1.0  0.66364  0.50799  0.53938  1.0000
  C   C106      1.0  0.65166  0.55259  0.32843  1.0000
  H   H68       1.0  0.64729  0.56429  0.38325  1.0000
  C   C107      1.0  0.46072  0.13951  0.33147  1.0000
  C   C108      1.0  0.46667  0.16011  0.41339  1.0000
  C   C109      1.0  0.47728  0.20049  0.41198  1.0000
  C   C110      1.0  0.48251  0.22123  0.33113  1.0000
  C   C111      1.0  0.52762  0.29036  0.37671  1.0000
  C   C112      1.0  0.53921  0.33104  0.37656  1.0000
  H   H69       1.0  0.54614  0.28167  0.40403  1.0000
  H   H70       1.0  0.48086  0.21478  0.47161  1.0000
  N   N33       1.0  0.57451  0.35717  0.41466  1.0000
  H   H71       1.0  0.59123  0.34830  0.44272  1.0000
  H   H72       1.0  0.58377  0.38536  0.41743  1.0000
  N   N34       1.0  0.46234  0.14040  0.49573  1.0000
  O   O27       1.0  0.43562  0.14015  0.54314  1.0000
  O   O28       1.0  0.49411  0.15607  0.53938  1.0000
  C   C113      1.0  0.44951  0.09950  0.32843  1.0000
  H   H73       1.0  0.43781  0.08342  0.38325  1.0000
  C   C114      1.0  0.86259  0.32162  0.33147  1.0000
  C   C115      1.0  0.84199  0.30697  0.41339  1.0000
  C   C116      1.0  0.80161  0.27720  0.41198  1.0000
  C   C117      1.0  0.78087  0.26169  0.33113  1.0000
  C   C118      1.0  0.71174  0.23767  0.37671  1.0000
  C   C119      1.0  0.67106  0.20858  0.37656  1.0000
  H   H74       1.0  0.72043  0.26489  0.40403  1.0000
  H   H75       1.0  0.78732  0.26650  0.47161  1.0000
  N   N35       1.0  0.64492  0.21776  0.41466  1.0000
  H   H76       1.0  0.65380  0.24335  0.44272  1.0000
  H   H77       1.0  0.61674  0.19883  0.41743  1.0000
  N   N36       1.0  0.86170  0.32236  0.49573  1.0000
  O   O29       1.0  0.86195  0.29590  0.54314  1.0000
  O   O30       1.0  0.84603  0.33846  0.53938  1.0000
  C   C120      1.0  0.90260  0.35044  0.32843  1.0000
  H   H78       1.0  0.91868  0.35481  0.38325  1.0000
