data_image0
_chemical_formula_structural       C2HC2HN2C2NC2NHCH3CHC2NC2NHCH3CHC4OC4OH4N2C2HC6H3CHC2HC6H3CHC2HC2HN2C2NC2NHCH3CHC2NC2NHCH3CHC4OC4OH4N2C2HC6H3CHC2HC6H3CHC2HC2HN2C2NC2NHCH3CHC2NC2NHCH3CHC4OC4OH4N2C2HC6H3CHC2HC6H3CHC2HC2HN2C2NC2NHCH3CHC2NC2NHCH3CHC4OC4OH4N2C2HC6H3CHC2HC6H3CH
_chemical_formula_sum              "C168 H104 N32 O8"
_cell_length_a       38.9548
_cell_length_b       38.9548
_cell_length_c       15.0797
_cell_angle_alpha    90
_cell_angle_beta     90
_cell_angle_gamma    90

_space_group_name_H-M_alt    "P 1"
_space_group_IT_number       1

loop_
  _space_group_symop_operation_xyz
  'x, y, z'

loop_
  _atom_site_type_symbol
  _atom_site_label
  _atom_site_symmetry_multiplicity
  _atom_site_fract_x
  _atom_site_fract_y
  _atom_site_fract_z
  _atom_site_occupancy
  C   C1        1.0  0.49214  0.44993  0.30893  1.0000
  C   C2        1.0  0.46640  0.42453  0.31267  1.0000
  H   H1        1.0  0.01471  0.44347  0.27919  1.0000
  C   C3        1.0  0.02997  0.07101  0.32723  1.0000
  C   C4        1.0  0.00473  0.04520  0.33424  1.0000
  H   H2        1.0  0.47976  0.05282  0.33218  1.0000
  N   N1        1.0  0.02256  0.10488  0.32442  1.0000
  N   N2        1.0  0.47107  0.39178  0.28648  1.0000
  C   C5        1.0  0.49400  0.33699  0.24630  1.0000
  C   C6        1.0  0.52197  0.31542  0.22163  1.0000
  N   N3        1.0  0.51926  0.28110  0.23624  1.0000
  C   C7        1.0  0.49111  0.26520  0.26958  1.0000
  C   C8        1.0  0.52172  0.17674  0.28837  1.0000
  N   N4        1.0  0.51989  0.21081  0.27208  1.0000
  H   H3        1.0  0.54432  0.16453  0.27475  1.0000
  C   C9        1.0  0.55530  0.32645  0.18362  1.0000
  H   H4        1.0  0.55501  0.35263  0.15845  1.0000
  H   H5        1.0  0.56207  0.30986  0.12793  1.0000
  H   H6        1.0  0.07532  0.32432  0.23391  1.0000
  C   C10       1.0  0.49668  0.37312  0.25058  1.0000
  H   H7        1.0  0.51938  0.38510  0.23771  1.0000
  C   C11       1.0  0.16340  0.49243  0.33077  1.0000
  C   C12       1.0  0.18493  0.46281  0.32978  1.0000
  N   N5        1.0  0.21857  0.46645  0.35183  1.0000
  C   C13       1.0  0.23388  0.49651  0.37404  1.0000
  C   C14       1.0  0.32238  0.46852  0.40993  1.0000
  N   N6        1.0  0.28821  0.46875  0.39460  1.0000
  H   H8        1.0  0.33484  0.44551  0.40513  1.0000
  C   C15       1.0  0.17506  0.42723  0.30569  1.0000
  H   H9        1.0  0.14938  0.42502  0.27798  1.0000
  H   H10       1.0  0.17658  0.41086  0.36427  1.0000
  H   H11       1.0  0.19282  0.91731  0.25586  1.0000
  C   C16       1.0  0.12746  0.49089  0.31850  1.0000
  H   H12       1.0  0.11523  0.46786  0.31385  1.0000
  C   C17       1.0  0.48663  0.48397  0.33970  1.0000
  C   C18       1.0  0.43402  0.43263  0.34834  1.0000
  C   C19       1.0  0.42717  0.46624  0.37762  1.0000
  C   C20       1.0  0.45339  0.49115  0.37426  1.0000
  O   O1        1.0  0.40861  0.40845  0.34935  1.0000
  C   C21       1.0  0.01282  0.00966  0.33408  1.0000
  C   C22       1.0  0.04826  0.00130  0.32736  1.0000
  C   C23       1.0  0.07409  0.02661  0.32122  1.0000
  C   C24       1.0  0.06477  0.06156  0.32098  1.0000
  O   O2        1.0  0.08945  0.08630  0.31352  1.0000
  H   H13       1.0  0.40979  0.39730  0.40782  1.0000
  H   H14       1.0  0.09638  0.09224  0.37437  1.0000
  H   H15       1.0  0.44793  0.01468  0.40012  1.0000
  H   H16       1.0  0.05598  0.47641  0.33273  1.0000
  N   N7        1.0  0.10804  0.01957  0.32037  1.0000
  N   N8        1.0  0.39443  0.47309  0.40081  1.0000
  C   C25       1.0  0.96154  0.28493  0.28857  1.0000
  C   C26       1.0  0.96341  0.32065  0.27584  1.0000
  H   H17       1.0  0.94237  0.33495  0.29293  1.0000
  C   C27       1.0  0.99115  0.22965  0.28657  1.0000
  C   C28       1.0  0.99280  0.15873  0.32082  1.0000
  C   C29       1.0  0.96251  0.17774  0.33691  1.0000
  C   C30       1.0  0.96134  0.21341  0.32094  1.0000
  C   C31       1.0  0.93172  0.23317  0.33819  1.0000
  C   C32       1.0  0.93188  0.26874  0.32254  1.0000
  H   H18       1.0  0.91006  0.22196  0.36350  1.0000
  H   H19       1.0  0.91036  0.28273  0.33711  1.0000
  H   H20       1.0  0.94111  0.16559  0.36098  1.0000
  C   C33       1.0  0.99337  0.12308  0.33483  1.0000
  H   H21       1.0  0.97137  0.11079  0.35389  1.0000
  C   C34       1.0  0.21420  0.02701  0.37287  1.0000
  C   C35       1.0  0.17918  0.02445  0.35061  1.0000
  H   H22       1.0  0.16490  0.04651  0.35180  1.0000
  C   C36       1.0  0.26906  0.99780  0.39563  1.0000
  C   C37       1.0  0.34034  0.99951  0.42592  1.0000
  C   C38       1.0  0.32073  0.02999  0.43183  1.0000
  C   C39       1.0  0.28500  0.02966  0.41573  1.0000
  C   C40       1.0  0.26508  0.05993  0.41550  1.0000
  C   C41       1.0  0.22994  0.05860  0.39435  1.0000
  H   H23       1.0  0.27608  0.08318  0.42937  1.0000
  H   H24       1.0  0.21606  0.08091  0.39382  1.0000
  H   H25       1.0  0.33282  0.05299  0.44252  1.0000
  C   C42       1.0  0.37647  0.00086  0.42715  1.0000
  H   H26       1.0  0.38874  0.02397  0.43272  1.0000
  C   C43       1.0  0.49214  0.94993  0.30893  1.0000
  C   C44       1.0  0.46640  0.92453  0.31267  1.0000
  H   H27       1.0  0.01471  0.94347  0.27919  1.0000
  C   C45       1.0  0.02997  0.57101  0.32723  1.0000
  C   C46       1.0  0.00473  0.54520  0.33424  1.0000
  H   H28       1.0  0.47976  0.55282  0.33218  1.0000
  N   N9        1.0  0.02256  0.60488  0.32442  1.0000
  N   N10       1.0  0.47107  0.89178  0.28648  1.0000
  C   C47       1.0  0.49400  0.83699  0.24630  1.0000
  C   C48       1.0  0.52197  0.81542  0.22163  1.0000
  N   N11       1.0  0.51926  0.78110  0.23624  1.0000
  C   C49       1.0  0.49111  0.76520  0.26958  1.0000
  C   C50       1.0  0.52172  0.67674  0.28837  1.0000
  N   N12       1.0  0.51989  0.71081  0.27208  1.0000
  H   H29       1.0  0.54432  0.66453  0.27475  1.0000
  C   C51       1.0  0.55530  0.82645  0.18362  1.0000
  H   H30       1.0  0.55501  0.85263  0.15845  1.0000
  H   H31       1.0  0.56207  0.80986  0.12793  1.0000
  H   H32       1.0  0.07532  0.82432  0.23391  1.0000
  C   C52       1.0  0.49668  0.87312  0.25058  1.0000
  H   H33       1.0  0.51938  0.88511  0.23771  1.0000
  C   C53       1.0  0.16340  0.99243  0.33077  1.0000
  C   C54       1.0  0.18493  0.96281  0.32978  1.0000
  N   N13       1.0  0.21857  0.96645  0.35183  1.0000
  C   C55       1.0  0.23388  0.99651  0.37404  1.0000
  C   C56       1.0  0.32238  0.96852  0.40993  1.0000
  N   N14       1.0  0.28821  0.96875  0.39460  1.0000
  H   H34       1.0  0.33484  0.94551  0.40513  1.0000
  C   C57       1.0  0.17506  0.92723  0.30569  1.0000
  H   H35       1.0  0.14938  0.92502  0.27798  1.0000
  H   H36       1.0  0.17658  0.91086  0.36427  1.0000
  H   H37       1.0  0.19282  0.41731  0.25586  1.0000
  C   C58       1.0  0.12746  0.99089  0.31850  1.0000
  H   H38       1.0  0.11523  0.96786  0.31385  1.0000
  C   C59       1.0  0.48663  0.98397  0.33970  1.0000
  C   C60       1.0  0.43402  0.93263  0.34834  1.0000
  C   C61       1.0  0.42717  0.96624  0.37762  1.0000
  C   C62       1.0  0.45339  0.99115  0.37426  1.0000
  O   O3        1.0  0.40861  0.90845  0.34935  1.0000
  C   C63       1.0  0.01282  0.50966  0.33408  1.0000
  C   C64       1.0  0.04826  0.50130  0.32736  1.0000
  C   C65       1.0  0.07409  0.52661  0.32122  1.0000
  C   C66       1.0  0.06477  0.56156  0.32098  1.0000
  O   O4        1.0  0.08945  0.58630  0.31352  1.0000
  H   H39       1.0  0.40979  0.89730  0.40782  1.0000
  H   H40       1.0  0.09638  0.59224  0.37437  1.0000
  H   H41       1.0  0.44793  0.51468  0.40012  1.0000
  H   H42       1.0  0.05598  0.97640  0.33273  1.0000
  N   N15       1.0  0.10804  0.51957  0.32037  1.0000
  N   N16       1.0  0.39443  0.97309  0.40081  1.0000
  C   C67       1.0  0.96154  0.78493  0.28857  1.0000
  C   C68       1.0  0.96341  0.82065  0.27584  1.0000
  H   H43       1.0  0.94237  0.83495  0.29293  1.0000
  C   C69       1.0  0.99115  0.72965  0.28657  1.0000
  C   C70       1.0  0.99280  0.65873  0.32082  1.0000
  C   C71       1.0  0.96251  0.67774  0.33691  1.0000
  C   C72       1.0  0.96134  0.71341  0.32094  1.0000
  C   C73       1.0  0.93172  0.73317  0.33819  1.0000
  C   C74       1.0  0.93188  0.76874  0.32254  1.0000
  H   H44       1.0  0.91006  0.72196  0.36350  1.0000
  H   H45       1.0  0.91036  0.78273  0.33711  1.0000
  H   H46       1.0  0.94111  0.66559  0.36098  1.0000
  C   C75       1.0  0.99337  0.62308  0.33483  1.0000
  H   H47       1.0  0.97137  0.61079  0.35389  1.0000
  C   C76       1.0  0.21420  0.52701  0.37287  1.0000
  C   C77       1.0  0.17918  0.52445  0.35061  1.0000
  H   H48       1.0  0.16490  0.54651  0.35180  1.0000
  C   C78       1.0  0.26906  0.49780  0.39563  1.0000
  C   C79       1.0  0.34034  0.49951  0.42592  1.0000
  C   C80       1.0  0.32073  0.52999  0.43183  1.0000
  C   C81       1.0  0.28500  0.52966  0.41573  1.0000
  C   C82       1.0  0.26508  0.55993  0.41550  1.0000
  C   C83       1.0  0.22994  0.55860  0.39435  1.0000
  H   H49       1.0  0.27608  0.58318  0.42937  1.0000
  H   H50       1.0  0.21606  0.58091  0.39382  1.0000
  H   H51       1.0  0.33282  0.55299  0.44252  1.0000
  C   C84       1.0  0.37647  0.50086  0.42715  1.0000
  H   H52       1.0  0.38874  0.52397  0.43272  1.0000
  C   C85       1.0  0.99214  0.44993  0.30893  1.0000
  C   C86       1.0  0.96640  0.42453  0.31267  1.0000
  H   H53       1.0  0.51471  0.44347  0.27919  1.0000
  C   C87       1.0  0.52997  0.07101  0.32723  1.0000
  C   C88       1.0  0.50473  0.04520  0.33424  1.0000
  H   H54       1.0  0.97976  0.05282  0.33218  1.0000
  N   N17       1.0  0.52256  0.10488  0.32442  1.0000
  N   N18       1.0  0.97107  0.39178  0.28648  1.0000
  C   C89       1.0  0.99400  0.33699  0.24630  1.0000
  C   C90       1.0  0.02197  0.31542  0.22163  1.0000
  N   N19       1.0  0.01926  0.28110  0.23624  1.0000
  C   C91       1.0  0.99110  0.26520  0.26958  1.0000
  C   C92       1.0  0.02172  0.17674  0.28837  1.0000
  N   N20       1.0  0.01988  0.21081  0.27208  1.0000
  H   H55       1.0  0.04432  0.16453  0.27475  1.0000
  C   C93       1.0  0.05530  0.32645  0.18362  1.0000
  H   H56       1.0  0.05501  0.35263  0.15845  1.0000
  H   H57       1.0  0.06207  0.30986  0.12793  1.0000
  H   H58       1.0  0.57532  0.32432  0.23391  1.0000
  C   C94       1.0  0.99668  0.37312  0.25058  1.0000
  H   H59       1.0  0.01938  0.38510  0.23771  1.0000
  C   C95       1.0  0.66340  0.49243  0.33077  1.0000
  C   C96       1.0  0.68493  0.46281  0.32978  1.0000
  N   N21       1.0  0.71857  0.46645  0.35183  1.0000
  C   C97       1.0  0.73388  0.49651  0.37404  1.0000
  C   C98       1.0  0.82238  0.46852  0.40993  1.0000
  N   N22       1.0  0.78821  0.46875  0.39460  1.0000
  H   H60       1.0  0.83484  0.44551  0.40513  1.0000
  C   C99       1.0  0.67506  0.42723  0.30569  1.0000
  H   H61       1.0  0.64938  0.42502  0.27798  1.0000
  H   H62       1.0  0.67658  0.41086  0.36427  1.0000
  H   H63       1.0  0.69282  0.91731  0.25586  1.0000
  C   C100      1.0  0.62746  0.49089  0.31850  1.0000
  H   H64       1.0  0.61523  0.46786  0.31385  1.0000
  C   C101      1.0  0.98663  0.48397  0.33970  1.0000
  C   C102      1.0  0.93402  0.43263  0.34834  1.0000
  C   C103      1.0  0.92717  0.46624  0.37762  1.0000
  C   C104      1.0  0.95339  0.49115  0.37426  1.0000
  O   O5        1.0  0.90861  0.40845  0.34935  1.0000
  C   C105      1.0  0.51282  0.00966  0.33408  1.0000
  C   C106      1.0  0.54826  0.00130  0.32736  1.0000
  C   C107      1.0  0.57409  0.02661  0.32122  1.0000
  C   C108      1.0  0.56477  0.06156  0.32098  1.0000
  O   O6        1.0  0.58945  0.08630  0.31352  1.0000
  H   H65       1.0  0.90979  0.39730  0.40782  1.0000
  H   H66       1.0  0.59638  0.09224  0.37437  1.0000
  H   H67       1.0  0.94793  0.01468  0.40012  1.0000
  H   H68       1.0  0.55598  0.47641  0.33273  1.0000
  N   N23       1.0  0.60804  0.01957  0.32037  1.0000
  N   N24       1.0  0.89443  0.47309  0.40081  1.0000
  C   C109      1.0  0.46154  0.28493  0.28857  1.0000
  C   C110      1.0  0.46341  0.32065  0.27584  1.0000
  H   H69       1.0  0.44237  0.33495  0.29293  1.0000
  C   C111      1.0  0.49115  0.22965  0.28657  1.0000
  C   C112      1.0  0.49280  0.15873  0.32082  1.0000
  C   C113      1.0  0.46250  0.17774  0.33691  1.0000
  C   C114      1.0  0.46133  0.21341  0.32094  1.0000
  C   C115      1.0  0.43172  0.23317  0.33819  1.0000
  C   C116      1.0  0.43188  0.26874  0.32254  1.0000
  H   H70       1.0  0.41006  0.22196  0.36350  1.0000
  H   H71       1.0  0.41036  0.28273  0.33711  1.0000
  H   H72       1.0  0.44111  0.16559  0.36098  1.0000
  C   C117      1.0  0.49337  0.12308  0.33483  1.0000
  H   H73       1.0  0.47137  0.11079  0.35389  1.0000
  C   C118      1.0  0.71420  0.02701  0.37287  1.0000
  C   C119      1.0  0.67918  0.02445  0.35061  1.0000
  H   H74       1.0  0.66490  0.04651  0.35180  1.0000
  C   C120      1.0  0.76906  0.99780  0.39563  1.0000
  C   C121      1.0  0.84034  0.99951  0.42592  1.0000
  C   C122      1.0  0.82073  0.02999  0.43183  1.0000
  C   C123      1.0  0.78500  0.02966  0.41573  1.0000
  C   C124      1.0  0.76508  0.05993  0.41550  1.0000
  C   C125      1.0  0.72994  0.05860  0.39435  1.0000
  H   H75       1.0  0.77608  0.08318  0.42937  1.0000
  H   H76       1.0  0.71606  0.08091  0.39382  1.0000
  H   H77       1.0  0.83282  0.05299  0.44252  1.0000
  C   C126      1.0  0.87647  0.00086  0.42715  1.0000
  H   H78       1.0  0.88874  0.02397  0.43272  1.0000
  C   C127      1.0  0.99214  0.94993  0.30893  1.0000
  C   C128      1.0  0.96640  0.92453  0.31267  1.0000
  H   H79       1.0  0.51471  0.94347  0.27919  1.0000
  C   C129      1.0  0.52997  0.57101  0.32723  1.0000
  C   C130      1.0  0.50473  0.54520  0.33424  1.0000
  H   H80       1.0  0.97976  0.55282  0.33218  1.0000
  N   N25       1.0  0.52256  0.60488  0.32442  1.0000
  N   N26       1.0  0.97107  0.89178  0.28648  1.0000
  C   C131      1.0  0.99400  0.83699  0.24630  1.0000
  C   C132      1.0  0.02197  0.81542  0.22163  1.0000
  N   N27       1.0  0.01926  0.78110  0.23624  1.0000
  C   C133      1.0  0.99110  0.76520  0.26958  1.0000
  C   C134      1.0  0.02172  0.67674  0.28837  1.0000
  N   N28       1.0  0.01988  0.71081  0.27208  1.0000
  H   H81       1.0  0.04432  0.66453  0.27475  1.0000
  C   C135      1.0  0.05530  0.82645  0.18362  1.0000
  H   H82       1.0  0.05501  0.85263  0.15845  1.0000
  H   H83       1.0  0.06207  0.80986  0.12793  1.0000
  H   H84       1.0  0.57532  0.82432  0.23391  1.0000
  C   C136      1.0  0.99668  0.87312  0.25058  1.0000
  H   H85       1.0  0.01938  0.88511  0.23771  1.0000
  C   C137      1.0  0.66340  0.99243  0.33077  1.0000
  C   C138      1.0  0.68493  0.96281  0.32978  1.0000
  N   N29       1.0  0.71857  0.96645  0.35183  1.0000
  C   C139      1.0  0.73388  0.99651  0.37404  1.0000
  C   C140      1.0  0.82238  0.96852  0.40993  1.0000
  N   N30       1.0  0.78821  0.96875  0.39460  1.0000
  H   H86       1.0  0.83484  0.94551  0.40513  1.0000
  C   C141      1.0  0.67506  0.92723  0.30569  1.0000
  H   H87       1.0  0.64938  0.92502  0.27798  1.0000
  H   H88       1.0  0.67658  0.91086  0.36427  1.0000
  H   H89       1.0  0.69282  0.41731  0.25586  1.0000
  C   C142      1.0  0.62746  0.99089  0.31850  1.0000
  H   H90       1.0  0.61523  0.96786  0.31385  1.0000
  C   C143      1.0  0.98663  0.98397  0.33970  1.0000
  C   C144      1.0  0.93402  0.93263  0.34834  1.0000
  C   C145      1.0  0.92717  0.96624  0.37762  1.0000
  C   C146      1.0  0.95339  0.99115  0.37426  1.0000
  O   O7        1.0  0.90861  0.90845  0.34935  1.0000
  C   C147      1.0  0.51282  0.50966  0.33408  1.0000
  C   C148      1.0  0.54826  0.50130  0.32736  1.0000
  C   C149      1.0  0.57409  0.52661  0.32122  1.0000
  C   C150      1.0  0.56477  0.56156  0.32098  1.0000
  O   O8        1.0  0.58945  0.58630  0.31352  1.0000
  H   H91       1.0  0.90979  0.89730  0.40782  1.0000
  H   H92       1.0  0.59638  0.59224  0.37437  1.0000
  H   H93       1.0  0.94793  0.51468  0.40012  1.0000
  H   H94       1.0  0.55598  0.97640  0.33273  1.0000
  N   N31       1.0  0.60804  0.51957  0.32037  1.0000
  N   N32       1.0  0.89443  0.97309  0.40081  1.0000
  C   C151      1.0  0.46154  0.78493  0.28857  1.0000
  C   C152      1.0  0.46341  0.82065  0.27584  1.0000
  H   H95       1.0  0.44237  0.83495  0.29293  1.0000
  C   C153      1.0  0.49115  0.72965  0.28657  1.0000
  C   C154      1.0  0.49280  0.65873  0.32082  1.0000
  C   C155      1.0  0.46250  0.67774  0.33691  1.0000
  C   C156      1.0  0.46133  0.71341  0.32094  1.0000
  C   C157      1.0  0.43172  0.73317  0.33819  1.0000
  C   C158      1.0  0.43188  0.76874  0.32254  1.0000
  H   H96       1.0  0.41006  0.72196  0.36350  1.0000
  H   H97       1.0  0.41036  0.78273  0.33711  1.0000
  H   H98       1.0  0.44111  0.66559  0.36098  1.0000
  C   C159      1.0  0.49337  0.62308  0.33483  1.0000
  H   H99       1.0  0.47137  0.61079  0.35389  1.0000
  C   C160      1.0  0.71420  0.52701  0.37287  1.0000
  C   C161      1.0  0.67918  0.52445  0.35061  1.0000
  H   H100      1.0  0.66490  0.54651  0.35180  1.0000
  C   C162      1.0  0.76906  0.49780  0.39563  1.0000
  C   C163      1.0  0.84034  0.49951  0.42592  1.0000
  C   C164      1.0  0.82073  0.52999  0.43183  1.0000
  C   C165      1.0  0.78500  0.52966  0.41573  1.0000
  C   C166      1.0  0.76508  0.55993  0.41550  1.0000
  C   C167      1.0  0.72994  0.55860  0.39435  1.0000
  H   H101      1.0  0.77608  0.58318  0.42937  1.0000
  H   H102      1.0  0.71606  0.58091  0.39382  1.0000
  H   H103      1.0  0.83282  0.55299  0.44252  1.0000
  C   C168      1.0  0.87647  0.50086  0.42715  1.0000
  H   H104      1.0  0.88874  0.52397  0.43272  1.0000
