data_image0
_chemical_formula_structural       C2HC2HN2C3H2CHC3H2CHC4H2C4H2N2C3H2CHC3H2CHC2HC2HN2C3H2CHC3H2CHC4H2C4H2N2C3H2CHC3H2CHC2HC2HN2C3H2CHC3H2CHC4H2C4H2N2C3H2CHC3H2CHC2HC2HN2C3H2CHC3H2CHC4H2C4H2N2C3H2CHC3H2CH
_chemical_formula_sum              "C112 H72 N16"
_cell_length_a       31.5036
_cell_length_b       31.5036
_cell_length_c       14.9002
_cell_angle_alpha    90
_cell_angle_beta     90
_cell_angle_gamma    90

_space_group_name_H-M_alt    "P 1"
_space_group_IT_number       1

loop_
  _space_group_symop_operation_xyz
  'x, y, z'

loop_
  _atom_site_type_symbol
  _atom_site_label
  _atom_site_symmetry_multiplicity
  _atom_site_fract_x
  _atom_site_fract_y
  _atom_site_fract_z
  _atom_site_occupancy
  C   C1        1.0  0.00998  0.06400  0.33861  1.0000
  C   C2        1.0  0.04135  0.09610  0.33881  1.0000
  H   H1        1.0  0.47955  0.07439  0.33708  1.0000
  C   C3        1.0  0.46533  0.41060  0.34020  1.0000
  C   C4        1.0  0.49670  0.44270  0.34012  1.0000
  H   H2        1.0  0.02714  0.43230  0.33932  1.0000
  N   N1        1.0  0.47287  0.36827  0.33991  1.0000
  N   N2        1.0  0.03382  0.13843  0.33816  1.0000
  C   C5        1.0  0.96403  0.23255  0.33523  1.0000
  C   C6        1.0  0.96584  0.27720  0.33630  1.0000
  C   C7        1.0  0.00149  0.20781  0.33734  1.0000
  H   H3        1.0  0.93785  0.29365  0.33461  1.0000
  H   H4        1.0  0.93486  0.21826  0.33289  1.0000
  C   C8        1.0  0.99874  0.16307  0.33659  1.0000
  H   H5        1.0  0.96957  0.14883  0.33495  1.0000
  C   C9        1.0  0.27414  0.04267  0.33877  1.0000
  C   C10       1.0  0.22949  0.04087  0.33975  1.0000
  C   C11       1.0  0.29888  0.00522  0.34106  1.0000
  H   H6        1.0  0.21304  0.06886  0.33777  1.0000
  H   H7        1.0  0.28843  0.07185  0.33616  1.0000
  C   C12       1.0  0.34362  0.00796  0.34001  1.0000
  H   H8        1.0  0.35786  0.03713  0.33810  1.0000
  C   C13       1.0  0.01958  0.01960  0.34022  1.0000
  C   C14       1.0  0.08424  0.08425  0.34010  1.0000
  C   C15       1.0  0.09609  0.04136  0.34148  1.0000
  C   C16       1.0  0.06399  0.00999  0.34181  1.0000
  H   H9        1.0  0.07438  0.47956  0.34340  1.0000
  H   H10       1.0  0.10727  0.10728  0.34007  1.0000
  C   C17       1.0  0.48710  0.48711  0.34026  1.0000
  C   C18       1.0  0.44269  0.49671  0.34043  1.0000
  C   C19       1.0  0.41058  0.46534  0.34048  1.0000
  C   C20       1.0  0.42244  0.42245  0.34038  1.0000
  H   H11       1.0  0.43229  0.02715  0.34118  1.0000
  H   H12       1.0  0.39941  0.39942  0.34042  1.0000
  N   N3        1.0  0.36825  0.47288  0.34076  1.0000
  N   N4        1.0  0.13842  0.03383  0.34215  1.0000
  C   C21       1.0  0.00521  0.29889  0.33946  1.0000
  C   C22       1.0  0.04267  0.27415  0.34147  1.0000
  C   C23       1.0  0.04086  0.22950  0.34046  1.0000
  H   H13       1.0  0.07184  0.28845  0.34387  1.0000
  H   H14       1.0  0.06885  0.21306  0.34222  1.0000
  C   C24       1.0  0.00796  0.34363  0.34051  1.0000
  H   H15       1.0  0.03712  0.35787  0.34222  1.0000
  C   C25       1.0  0.20780  0.00150  0.34314  1.0000
  C   C26       1.0  0.23254  0.96405  0.34553  1.0000
  C   C27       1.0  0.27719  0.96585  0.34448  1.0000
  H   H16       1.0  0.21825  0.93488  0.34807  1.0000
  H   H17       1.0  0.29364  0.93786  0.34640  1.0000
  C   C28       1.0  0.16306  0.99875  0.34388  1.0000
  H   H18       1.0  0.14882  0.96959  0.34571  1.0000
  C   C29       1.0  0.00998  0.56400  0.33861  1.0000
  C   C30       1.0  0.04135  0.59610  0.33881  1.0000
  H   H19       1.0  0.47955  0.57439  0.33708  1.0000
  C   C31       1.0  0.46533  0.91060  0.34020  1.0000
  C   C32       1.0  0.49670  0.94270  0.34012  1.0000
  H   H20       1.0  0.02714  0.93230  0.33932  1.0000
  N   N5        1.0  0.47287  0.86826  0.33991  1.0000
  N   N6        1.0  0.03382  0.63843  0.33816  1.0000
  C   C33       1.0  0.96403  0.73255  0.33523  1.0000
  C   C34       1.0  0.96584  0.77720  0.33630  1.0000
  C   C35       1.0  0.00149  0.70781  0.33734  1.0000
  H   H21       1.0  0.93785  0.79365  0.33461  1.0000
  H   H22       1.0  0.93486  0.71826  0.33289  1.0000
  C   C36       1.0  0.99874  0.66307  0.33659  1.0000
  H   H23       1.0  0.96957  0.64883  0.33495  1.0000
  C   C37       1.0  0.27414  0.54267  0.33877  1.0000
  C   C38       1.0  0.22949  0.54087  0.33975  1.0000
  C   C39       1.0  0.29888  0.50522  0.34106  1.0000
  H   H24       1.0  0.21304  0.56886  0.33777  1.0000
  H   H25       1.0  0.28843  0.57185  0.33616  1.0000
  C   C40       1.0  0.34362  0.50796  0.34001  1.0000
  H   H26       1.0  0.35786  0.53713  0.33810  1.0000
  C   C41       1.0  0.01958  0.51959  0.34022  1.0000
  C   C42       1.0  0.08424  0.58425  0.34010  1.0000
  C   C43       1.0  0.09609  0.54137  0.34148  1.0000
  C   C44       1.0  0.06399  0.50999  0.34181  1.0000
  H   H27       1.0  0.07438  0.97956  0.34340  1.0000
  H   H28       1.0  0.10727  0.60728  0.34007  1.0000
  C   C45       1.0  0.48710  0.98711  0.34026  1.0000
  C   C46       1.0  0.44269  0.99671  0.34043  1.0000
  C   C47       1.0  0.41058  0.96534  0.34048  1.0000
  C   C48       1.0  0.42244  0.92245  0.34038  1.0000
  H   H29       1.0  0.43229  0.52715  0.34118  1.0000
  H   H30       1.0  0.39941  0.89942  0.34042  1.0000
  N   N7        1.0  0.36825  0.97287  0.34076  1.0000
  N   N8        1.0  0.13842  0.53383  0.34215  1.0000
  C   C49       1.0  0.00521  0.79889  0.33946  1.0000
  C   C50       1.0  0.04267  0.77415  0.34147  1.0000
  C   C51       1.0  0.04086  0.72950  0.34046  1.0000
  H   H31       1.0  0.07184  0.78845  0.34387  1.0000
  H   H32       1.0  0.06885  0.71306  0.34222  1.0000
  C   C52       1.0  0.00796  0.84363  0.34051  1.0000
  H   H33       1.0  0.03712  0.85787  0.34222  1.0000
  C   C53       1.0  0.20780  0.50150  0.34314  1.0000
  C   C54       1.0  0.23254  0.46405  0.34553  1.0000
  C   C55       1.0  0.27719  0.46585  0.34448  1.0000
  H   H34       1.0  0.21825  0.43488  0.34807  1.0000
  H   H35       1.0  0.29364  0.43786  0.34640  1.0000
  C   C56       1.0  0.16306  0.49875  0.34388  1.0000
  H   H36       1.0  0.14882  0.46959  0.34571  1.0000
  C   C57       1.0  0.50998  0.06400  0.33861  1.0000
  C   C58       1.0  0.54135  0.09610  0.33881  1.0000
  H   H37       1.0  0.97955  0.07439  0.33708  1.0000
  C   C59       1.0  0.96533  0.41060  0.34020  1.0000
  C   C60       1.0  0.99670  0.44270  0.34012  1.0000
  H   H38       1.0  0.52714  0.43230  0.33932  1.0000
  N   N9        1.0  0.97287  0.36827  0.33991  1.0000
  N   N10       1.0  0.53382  0.13843  0.33816  1.0000
  C   C61       1.0  0.46404  0.23255  0.33523  1.0000
  C   C62       1.0  0.46584  0.27720  0.33630  1.0000
  C   C63       1.0  0.50149  0.20781  0.33734  1.0000
  H   H39       1.0  0.43784  0.29365  0.33461  1.0000
  H   H40       1.0  0.43486  0.21826  0.33289  1.0000
  C   C64       1.0  0.49874  0.16307  0.33659  1.0000
  H   H41       1.0  0.46957  0.14883  0.33495  1.0000
  C   C65       1.0  0.77415  0.04267  0.33877  1.0000
  C   C66       1.0  0.72949  0.04087  0.33975  1.0000
  C   C67       1.0  0.79888  0.00522  0.34106  1.0000
  H   H42       1.0  0.71305  0.06886  0.33777  1.0000
  H   H43       1.0  0.78844  0.07185  0.33616  1.0000
  C   C68       1.0  0.84362  0.00796  0.34001  1.0000
  H   H44       1.0  0.85786  0.03713  0.33810  1.0000
  C   C69       1.0  0.51958  0.01960  0.34022  1.0000
  C   C70       1.0  0.58424  0.08425  0.34010  1.0000
  C   C71       1.0  0.59609  0.04136  0.34148  1.0000
  C   C72       1.0  0.56399  0.00999  0.34181  1.0000
  H   H45       1.0  0.57438  0.47956  0.34340  1.0000
  H   H46       1.0  0.60727  0.10728  0.34007  1.0000
  C   C73       1.0  0.98710  0.48711  0.34026  1.0000
  C   C74       1.0  0.94269  0.49671  0.34043  1.0000
  C   C75       1.0  0.91059  0.46534  0.34048  1.0000
  C   C76       1.0  0.92244  0.42245  0.34038  1.0000
  H   H47       1.0  0.93229  0.02715  0.34118  1.0000
  H   H48       1.0  0.89941  0.39942  0.34042  1.0000
  N   N11       1.0  0.86826  0.47288  0.34076  1.0000
  N   N12       1.0  0.63842  0.03383  0.34215  1.0000
  C   C77       1.0  0.50521  0.29889  0.33946  1.0000
  C   C78       1.0  0.54267  0.27415  0.34147  1.0000
  C   C79       1.0  0.54086  0.22950  0.34046  1.0000
  H   H49       1.0  0.57184  0.28845  0.34387  1.0000
  H   H50       1.0  0.56885  0.21306  0.34222  1.0000
  C   C80       1.0  0.50795  0.34363  0.34051  1.0000
  H   H51       1.0  0.53712  0.35787  0.34222  1.0000
  C   C81       1.0  0.70780  0.00150  0.34314  1.0000
  C   C82       1.0  0.73254  0.96405  0.34553  1.0000
  C   C83       1.0  0.77719  0.96585  0.34448  1.0000
  H   H52       1.0  0.71825  0.93488  0.34807  1.0000
  H   H53       1.0  0.79364  0.93786  0.34640  1.0000
  C   C84       1.0  0.66306  0.99875  0.34388  1.0000
  H   H54       1.0  0.64882  0.96959  0.34571  1.0000
  C   C85       1.0  0.50998  0.56400  0.33861  1.0000
  C   C86       1.0  0.54135  0.59610  0.33881  1.0000
  H   H55       1.0  0.97955  0.57439  0.33708  1.0000
  C   C87       1.0  0.96533  0.91060  0.34020  1.0000
  C   C88       1.0  0.99670  0.94270  0.34012  1.0000
  H   H56       1.0  0.52714  0.93230  0.33932  1.0000
  N   N13       1.0  0.97287  0.86826  0.33991  1.0000
  N   N14       1.0  0.53382  0.63843  0.33816  1.0000
  C   C89       1.0  0.46404  0.73255  0.33523  1.0000
  C   C90       1.0  0.46584  0.77720  0.33630  1.0000
  C   C91       1.0  0.50149  0.70781  0.33734  1.0000
  H   H57       1.0  0.43784  0.79365  0.33461  1.0000
  H   H58       1.0  0.43486  0.71826  0.33289  1.0000
  C   C92       1.0  0.49874  0.66307  0.33659  1.0000
  H   H59       1.0  0.46957  0.64883  0.33495  1.0000
  C   C93       1.0  0.77415  0.54267  0.33877  1.0000
  C   C94       1.0  0.72949  0.54087  0.33975  1.0000
  C   C95       1.0  0.79888  0.50522  0.34106  1.0000
  H   H60       1.0  0.71305  0.56886  0.33777  1.0000
  H   H61       1.0  0.78844  0.57185  0.33616  1.0000
  C   C96       1.0  0.84362  0.50796  0.34001  1.0000
  H   H62       1.0  0.85786  0.53713  0.33810  1.0000
  C   C97       1.0  0.51958  0.51959  0.34022  1.0000
  C   C98       1.0  0.58424  0.58425  0.34010  1.0000
  C   C99       1.0  0.59609  0.54137  0.34148  1.0000
  C   C100      1.0  0.56399  0.50999  0.34181  1.0000
  H   H63       1.0  0.57438  0.97956  0.34340  1.0000
  H   H64       1.0  0.60727  0.60728  0.34007  1.0000
  C   C101      1.0  0.98710  0.98711  0.34026  1.0000
  C   C102      1.0  0.94269  0.99671  0.34043  1.0000
  C   C103      1.0  0.91059  0.96534  0.34048  1.0000
  C   C104      1.0  0.92244  0.92245  0.34038  1.0000
  H   H65       1.0  0.93229  0.52715  0.34118  1.0000
  H   H66       1.0  0.89941  0.89942  0.34042  1.0000
  N   N15       1.0  0.86826  0.97287  0.34076  1.0000
  N   N16       1.0  0.63842  0.53383  0.34215  1.0000
  C   C105      1.0  0.50521  0.79889  0.33946  1.0000
  C   C106      1.0  0.54267  0.77415  0.34147  1.0000
  C   C107      1.0  0.54086  0.72950  0.34046  1.0000
  H   H67       1.0  0.57184  0.78845  0.34387  1.0000
  H   H68       1.0  0.56885  0.71306  0.34222  1.0000
  C   C108      1.0  0.50795  0.84363  0.34051  1.0000
  H   H69       1.0  0.53712  0.85787  0.34222  1.0000
  C   C109      1.0  0.70780  0.50150  0.34314  1.0000
  C   C110      1.0  0.73254  0.46405  0.34553  1.0000
  C   C111      1.0  0.77719  0.46585  0.34448  1.0000
  H   H70       1.0  0.71825  0.43488  0.34807  1.0000
  H   H71       1.0  0.79364  0.43786  0.34640  1.0000
  C   C112      1.0  0.66306  0.49875  0.34388  1.0000
  H   H72       1.0  0.64882  0.46959  0.34571  1.0000
