data_image0
_chemical_formula_structural       C2H2C3H2NC2H2C3H2NC2H2C3H2NC6H3C3H3C6H3C3H3C7H3NH2NC7H3NH2NC7H3NH2N
_chemical_formula_sum              "C54 H39 N9"
_cell_length_a       29.5124
_cell_length_b       29.5124
_cell_length_c       15.0113
_cell_angle_alpha    90
_cell_angle_beta     90
_cell_angle_gamma    120

_space_group_name_H-M_alt    "P 1"
_space_group_IT_number       1

loop_
  _space_group_symop_operation_xyz
  'x, y, z'

loop_
  _atom_site_type_symbol
  _atom_site_label
  _atom_site_symmetry_multiplicity
  _atom_site_fract_x
  _atom_site_fract_y
  _atom_site_fract_z
  _atom_site_occupancy
  C   C1        1.0  0.52299  0.46643  0.27561  1.0000
  C   C2        1.0  0.55302  0.44165  0.27473  1.0000
  H   H1        1.0  0.51349  0.47636  0.21592  1.0000
  H   H2        1.0  0.56459  0.43414  0.21493  1.0000
  C   C3        1.0  0.42397  0.56185  0.33872  1.0000
  C   C4        1.0  0.40147  0.50997  0.30738  1.0000
  C   C5        1.0  0.42895  0.48251  0.31320  1.0000
  H   H3        1.0  0.36491  0.49185  0.27947  1.0000
  H   H4        1.0  0.41173  0.44498  0.28960  1.0000
  N   N1        1.0  0.39525  0.58490  0.33336  1.0000
  C   C6        1.0  0.53264  0.05638  0.27561  1.0000
  C   C7        1.0  0.55743  0.11118  0.27473  1.0000
  H   H5        1.0  0.52272  0.03694  0.21592  1.0000
  H   H6        1.0  0.56493  0.13026  0.21493  1.0000
  C   C8        1.0  0.43721  0.86193  0.33872  1.0000
  C   C9        1.0  0.48908  0.89130  0.30738  1.0000
  C   C10       1.0  0.51655  0.94624  0.31320  1.0000
  H   H7        1.0  0.50721  0.87287  0.27948  1.0000
  H   H8        1.0  0.55408  0.96656  0.28960  1.0000
  N   N2        1.0  0.41415  0.81016  0.33336  1.0000
  C   C11       1.0  0.94268  0.47606  0.27562  1.0000
  C   C12       1.0  0.88787  0.44604  0.27475  1.0000
  H   H9        1.0  0.96210  0.48557  0.21592  1.0000
  H   H10       1.0  0.86879  0.43447  0.21496  1.0000
  C   C13       1.0  0.13712  0.57508  0.33869  1.0000
  C   C14       1.0  0.10775  0.59759  0.30735  1.0000
  C   C15       1.0  0.05281  0.57011  0.31318  1.0000
  H   H11       1.0  0.12618  0.63414  0.27944  1.0000
  H   H12       1.0  0.03249  0.58733  0.28958  1.0000
  N   N3        1.0  0.18889  0.60380  0.33332  1.0000
  C   C16       1.0  0.37016  0.64894  0.32624  1.0000
  C   C17       1.0  0.38641  0.70290  0.32612  1.0000
  C   C18       1.0  0.35012  0.72103  0.32626  1.0000
  C   C19       1.0  0.29615  0.68332  0.32610  1.0000
  C   C20       1.0  0.27802  0.62890  0.32619  1.0000
  C   C21       1.0  0.31574  0.61264  0.32605  1.0000
  H   H13       1.0  0.26945  0.69586  0.32704  1.0000
  H   H14       1.0  0.30319  0.57340  0.32701  1.0000
  H   H15       1.0  0.42566  0.72961  0.32707  1.0000
  C   C22       1.0  0.36578  0.77413  0.32931  1.0000
  C   C23       1.0  0.22492  0.59146  0.32925  1.0000
  C   C24       1.0  0.40759  0.63327  0.32927  1.0000
  H   H16       1.0  0.44531  0.66049  0.32871  1.0000
  H   H17       1.0  0.21442  0.55374  0.32869  1.0000
  H   H18       1.0  0.33856  0.78463  0.32876  1.0000
  C   C25       1.0  0.62935  0.35077  0.31965  1.0000
  C   C26       1.0  0.61218  0.29667  0.31936  1.0000
  C   C27       1.0  0.64828  0.27839  0.31965  1.0000
  C   C28       1.0  0.70239  0.31533  0.31937  1.0000
  C   C29       1.0  0.72067  0.36970  0.31972  1.0000
  C   C30       1.0  0.68373  0.38687  0.31935  1.0000
  H   H19       1.0  0.72883  0.30244  0.31650  1.0000
  H   H20       1.0  0.69661  0.42620  0.31648  1.0000
  H   H21       1.0  0.57285  0.27022  0.31644  1.0000
  C   C31       1.0  0.63154  0.22558  0.31232  1.0000
  C   C32       1.0  0.77347  0.40577  0.31236  1.0000
  C   C33       1.0  0.59329  0.36753  0.31230  1.0000
  H   H22       1.0  0.56287  0.34828  0.27157  1.0000
  H   H23       1.0  0.78465  0.43619  0.27164  1.0000
  H   H24       1.0  0.65080  0.21441  0.27160  1.0000
  C   C34       1.0  0.56815  0.42846  0.35531  1.0000
  C   C35       1.0  0.55338  0.44130  0.43652  1.0000
  C   C36       1.0  0.52241  0.46565  0.43907  1.0000
  C   C37       1.0  0.50745  0.47878  0.35694  1.0000
  C   C38       1.0  0.47918  0.50604  0.35245  1.0000
  C   C39       1.0  0.50166  0.55792  0.38430  1.0000
  C   C40       1.0  0.47425  0.58542  0.37801  1.0000
  H   H25       1.0  0.53816  0.57606  0.41239  1.0000
  H   H26       1.0  0.49111  0.62252  0.40319  1.0000
  H   H27       1.0  0.56467  0.43184  0.49490  1.0000
  N   N4        1.0  0.50738  0.47450  0.51991  1.0000
  H   H28       1.0  0.51738  0.46438  0.57498  1.0000
  H   H29       1.0  0.48405  0.48865  0.52545  1.0000
  N   N5        1.0  0.59832  0.40696  0.35697  1.0000
  C   C41       1.0  0.57060  0.13950  0.35531  1.0000
  C   C42       1.0  0.55776  0.11189  0.43652  1.0000
  C   C43       1.0  0.53342  0.05658  0.43907  1.0000
  C   C44       1.0  0.52029  0.02848  0.35695  1.0000
  C   C45       1.0  0.49303  0.97296  0.35245  1.0000
  C   C46       1.0  0.44114  0.94356  0.38430  1.0000
  C   C47       1.0  0.41364  0.88865  0.37801  1.0000
  H   H30       1.0  0.42300  0.96192  0.41239  1.0000
  H   H31       1.0  0.37653  0.86840  0.40319  1.0000
  H   H32       1.0  0.56721  0.13264  0.49490  1.0000
  N   N6        1.0  0.52455  0.03269  0.51991  1.0000
  H   H33       1.0  0.53467  0.05280  0.57499  1.0000
  H   H34       1.0  0.51041  0.99521  0.52545  1.0000
  N   N7        1.0  0.59210  0.19118  0.35697  1.0000
  C   C48       1.0  0.85956  0.43091  0.35534  1.0000
  C   C49       1.0  0.88717  0.44568  0.43654  1.0000
  C   C50       1.0  0.94249  0.47665  0.43908  1.0000
  C   C51       1.0  0.97058  0.49161  0.35695  1.0000
  C   C52       1.0  0.02610  0.51987  0.35243  1.0000
  C   C53       1.0  0.05551  0.49740  0.38428  1.0000
  C   C54       1.0  0.11041  0.52481  0.37798  1.0000
  H   H35       1.0  0.03715  0.46089  0.41238  1.0000
  H   H36       1.0  0.13066  0.50794  0.40316  1.0000
  H   H37       1.0  0.86643  0.43439  0.49493  1.0000
  N   N8        1.0  0.96639  0.49169  0.51992  1.0000
  H   H38       1.0  0.94627  0.48169  0.57499  1.0000
  H   H39       1.0  0.00386  0.51502  0.52544  1.0000
  N   N9        1.0  0.80788  0.40074  0.35701  1.0000
