data_image0
_chemical_formula_structural       C2HCHCH2C3H2C3HC3HCHC3H3C3HC3H3C3HC3H3C2NCNCH3C2NCNC2H3CH3NCNCHCH3C2NCNC2H3CH3C2NCNC2H3CH3C2NCNC2H3CH3C3N2H3C3NC3NH4C3NC3NH4C2HC4H2C2HC6H3C7H3C2HC6H3C2HC6H3C2HC6H3
_chemical_formula_sum              "C120 H84 N18"
_cell_length_a       31.6117
_cell_length_b       31.6118
_cell_length_c       14.8432
_cell_angle_alpha    90
_cell_angle_beta     90
_cell_angle_gamma    120

_space_group_name_H-M_alt    "P 1"
_space_group_IT_number       1

loop_
  _space_group_symop_operation_xyz
  'x, y, z'

loop_
  _atom_site_type_symbol
  _atom_site_label
  _atom_site_symmetry_multiplicity
  _atom_site_fract_x
  _atom_site_fract_y
  _atom_site_fract_z
  _atom_site_occupancy
  C   C1        1.0  0.03502  0.51891  0.34369  1.0000
  C   C2        1.0  0.06335  0.57107  0.34357  1.0000
  H   H1        1.0  0.04657  0.59139  0.34367  1.0000
  C   C3        1.0  0.06359  0.49532  0.34350  1.0000
  H   H2        1.0  0.04700  0.45824  0.34368  1.0000
  C   C4        1.0  0.11515  0.59789  0.34269  1.0000
  H   H3        1.0  0.10670  0.46682  0.16302  1.0000
  H   H4        1.0  0.11478  0.62043  0.16873  1.0000
  C   C5        1.0  0.11539  0.52056  0.34284  1.0000
  C   C6        1.0  0.16169  0.48764  0.26198  1.0000
  C   C7        1.0  0.14553  0.49304  0.17124  1.0000
  H   H5        1.0  0.16552  0.48638  0.11836  1.0000
  H   H6        1.0  0.15153  0.52991  0.16241  1.0000
  C   C8        1.0  0.14057  0.65032  0.34196  1.0000
  C   C9        1.0  0.16157  0.67699  0.26126  1.0000
  C   C10       1.0  0.14711  0.65674  0.16925  1.0000
  H   H7        1.0  0.13902  0.68076  0.12910  1.0000
  C   C11       1.0  0.14195  0.57264  0.34234  1.0000
  C   C12       1.0  0.14111  0.49387  0.34268  1.0000
  C   C13       1.0  0.16051  0.48884  0.42544  1.0000
  H   H8        1.0  0.14845  0.49603  0.48447  1.0000
  C   C14       1.0  0.15976  0.67466  0.42487  1.0000
  H   H9        1.0  0.14744  0.65539  0.48382  1.0000
  C   C15       1.0  0.98085  0.49170  0.34369  1.0000
  C   C16       1.0  0.95252  0.43954  0.34365  1.0000
  C   C17       1.0  0.90072  0.41272  0.34276  1.0000
  H   H10       1.0  0.96929  0.41922  0.34383  1.0000
  H   H11       1.0  0.21116  0.63317  0.34117  1.0000
  H   H12       1.0  0.80471  0.37745  0.34139  1.0000
  C   C18       1.0  0.52152  0.49180  0.34365  1.0000
  C   C19       1.0  0.57369  0.51564  0.34346  1.0000
  C   C20       1.0  0.60051  0.49067  0.34261  1.0000
  H   H13       1.0  0.59400  0.55274  0.34348  1.0000
  C   C21       1.0  0.49431  0.51875  0.34366  1.0000
  C   C22       1.0  0.41532  0.51987  0.34269  1.0000
  C   C23       1.0  0.44215  0.49490  0.34350  1.0000
  H   H14       1.0  0.42183  0.45781  0.34355  1.0000
  H   H15       1.0  0.38000  0.58058  0.34144  1.0000
  H   H16       1.0  0.63581  0.42995  0.34102  1.0000
  C   C24       1.0  0.52138  0.03238  0.34361  1.0000
  C   C25       1.0  0.49753  0.06069  0.34346  1.0000
  C   C26       1.0  0.52250  0.11249  0.34264  1.0000
  H   H17       1.0  0.46043  0.04391  0.34350  1.0000
  C   C27       1.0  0.49442  0.97820  0.34361  1.0000
  C   C28       1.0  0.49329  0.89809  0.34267  1.0000
  C   C29       1.0  0.51826  0.94989  0.34350  1.0000
  H   H18       1.0  0.55536  0.96667  0.34358  1.0000
  H   H19       1.0  0.43257  0.80207  0.34135  1.0000
  H   H20       1.0  0.58319  0.20850  0.34137  1.0000
  C   C30       1.0  0.36291  0.49288  0.34221  1.0000
  C   C31       1.0  0.33621  0.48715  0.26147  1.0000
  N   N1        1.0  0.29028  0.48060  0.26700  1.0000
  C   C32       1.0  0.26659  0.47776  0.34516  1.0000
  N   N2        1.0  0.20081  0.48064  0.26716  1.0000
  C   C33       1.0  0.35648  0.49307  0.16944  1.0000
  H   H21       1.0  0.39279  0.49705  0.16884  1.0000
  H   H22       1.0  0.35871  0.52532  0.13792  1.0000
  H   H23       1.0  0.33247  0.46102  0.12915  1.0000
  C   C34       1.0  0.52028  0.87268  0.34212  1.0000
  C   C35       1.0  0.52597  0.85162  0.26145  1.0000
  N   N3        1.0  0.53251  0.81223  0.26702  1.0000
  C   C36       1.0  0.53535  0.79141  0.34521  1.0000
  N   N4        1.0  0.53249  0.72273  0.26732  1.0000
  C   C37       1.0  0.52550  0.67660  0.26219  1.0000
  C   C38       1.0  0.52007  0.86596  0.16940  1.0000
  H   H24       1.0  0.51610  0.89829  0.16878  1.0000
  H   H25       1.0  0.48783  0.83594  0.13787  1.0000
  H   H26       1.0  0.55213  0.87399  0.12914  1.0000
  C   C39       1.0  0.52013  0.65503  0.17146  1.0000
  H   H27       1.0  0.52681  0.68169  0.11857  1.0000
  H   H28       1.0  0.48326  0.62417  0.16262  1.0000
  H   H29       1.0  0.54635  0.64243  0.16330  1.0000
  N   N5        1.0  0.20096  0.72292  0.26684  1.0000
  C   C40       1.0  0.22181  0.74656  0.34504  1.0000
  N   N6        1.0  0.29044  0.81241  0.26707  1.0000
  C   C41       1.0  0.33655  0.85155  0.26189  1.0000
  H   H30       1.0  0.17709  0.65452  0.13754  1.0000
  C   C42       1.0  0.35814  0.86778  0.17118  1.0000
  H   H31       1.0  0.33150  0.84779  0.11828  1.0000
  H   H32       1.0  0.38904  0.86182  0.16236  1.0000
  H   H33       1.0  0.37070  0.90660  0.16304  1.0000
  C   C43       1.0  0.65291  0.51768  0.34189  1.0000
  C   C44       1.0  0.67969  0.52341  0.26128  1.0000
  N   N7        1.0  0.72562  0.52996  0.26682  1.0000
  C   C45       1.0  0.74928  0.53278  0.34500  1.0000
  N   N8        1.0  0.81512  0.52997  0.26705  1.0000
  C   C46       1.0  0.85426  0.52299  0.26189  1.0000
  C   C47       1.0  0.65945  0.51753  0.16924  1.0000
  H   H34       1.0  0.62313  0.51352  0.16865  1.0000
  H   H35       1.0  0.65725  0.48531  0.13765  1.0000
  H   H36       1.0  0.68345  0.54961  0.12900  1.0000
  C   C48       1.0  0.87044  0.51758  0.17118  1.0000
  H   H37       1.0  0.85046  0.52425  0.11828  1.0000
  H   H38       1.0  0.86443  0.48070  0.16238  1.0000
  H   H39       1.0  0.90927  0.54379  0.16300  1.0000
  C   C49       1.0  0.49549  0.13790  0.34210  1.0000
  C   C50       1.0  0.48977  0.15886  0.26136  1.0000
  N   N9        1.0  0.48323  0.19824  0.26693  1.0000
  C   C51       1.0  0.48040  0.21908  0.34511  1.0000
  N   N10       1.0  0.48327  0.28775  0.26715  1.0000
  C   C52       1.0  0.49027  0.33387  0.26199  1.0000
  C   C53       1.0  0.49569  0.14450  0.16932  1.0000
  H   H40       1.0  0.49967  0.11218  0.16875  1.0000
  H   H41       1.0  0.52794  0.17453  0.13781  1.0000
  H   H42       1.0  0.46365  0.13646  0.12904  1.0000
  C   C54       1.0  0.49564  0.35543  0.17125  1.0000
  H   H43       1.0  0.48897  0.32877  0.11837  1.0000
  H   H44       1.0  0.53251  0.38630  0.16240  1.0000
  H   H45       1.0  0.46942  0.36803  0.16307  1.0000
  C   C55       1.0  0.87528  0.36031  0.34230  1.0000
  C   C56       1.0  0.85428  0.33362  0.26157  1.0000
  N   N11       1.0  0.81489  0.28769  0.26711  1.0000
  C   C57       1.0  0.79405  0.26401  0.34530  1.0000
  N   N12       1.0  0.72537  0.19820  0.26735  1.0000
  C   C58       1.0  0.67925  0.15906  0.26219  1.0000
  C   C59       1.0  0.86865  0.35387  0.16953  1.0000
  H   H46       1.0  0.90099  0.39017  0.16893  1.0000
  H   H47       1.0  0.83864  0.35611  0.13798  1.0000
  H   H48       1.0  0.87667  0.32984  0.12926  1.0000
  C   C60       1.0  0.65769  0.14289  0.17145  1.0000
  H   H49       1.0  0.68436  0.16287  0.11857  1.0000
  H   H50       1.0  0.62682  0.14889  0.16259  1.0000
  H   H51       1.0  0.64509  0.10406  0.16326  1.0000
  C   C61       1.0  0.87392  0.43798  0.34242  1.0000
  C   C62       1.0  0.90048  0.49005  0.34284  1.0000
  C   C63       1.0  0.95228  0.51529  0.34346  1.0000
  N   N13       1.0  0.82377  0.41280  0.34163  1.0000
  N   N14       1.0  0.19210  0.59782  0.34149  1.0000
  H   H52       1.0  0.21131  0.58169  0.34112  1.0000
  H   H53       1.0  0.80456  0.42893  0.34122  1.0000
  H   H54       1.0  0.96887  0.55237  0.34360  1.0000
  C   C64       1.0  0.57527  0.43860  0.34230  1.0000
  C   C65       1.0  0.52320  0.41309  0.34286  1.0000
  C   C66       1.0  0.49795  0.43964  0.34355  1.0000
  N   N15       1.0  0.60047  0.41366  0.34142  1.0000
  C   C67       1.0  0.51788  0.57091  0.34358  1.0000
  C   C68       1.0  0.49263  0.59745  0.34294  1.0000
  C   C69       1.0  0.44056  0.57193  0.34247  1.0000
  N   N16       1.0  0.41535  0.59688  0.34175  1.0000
  H   H55       1.0  0.43147  0.63221  0.34144  1.0000
  H   H56       1.0  0.58434  0.37832  0.34106  1.0000
  H   H57       1.0  0.46087  0.41914  0.34381  1.0000
  H   H58       1.0  0.55496  0.59141  0.34386  1.0000
  C   C70       1.0  0.57456  0.13931  0.34241  1.0000
  C   C71       1.0  0.60009  0.11277  0.34289  1.0000
  C   C72       1.0  0.57354  0.06096  0.34353  1.0000
  N   N17       1.0  0.59950  0.18946  0.34168  1.0000
  C   C73       1.0  0.44227  0.94963  0.34346  1.0000
  C   C74       1.0  0.41571  0.89782  0.34284  1.0000
  C   C75       1.0  0.44123  0.87127  0.34238  1.0000
  N   N18       1.0  0.41628  0.82112  0.34162  1.0000
  H   H59       1.0  0.38094  0.80191  0.34129  1.0000
  H   H60       1.0  0.63484  0.20869  0.34139  1.0000
  H   H61       1.0  0.59405  0.04439  0.34381  1.0000
  H   H62       1.0  0.42176  0.96620  0.34365  1.0000
  C   C76       1.0  0.29065  0.48063  0.42767  1.0000
  C   C77       1.0  0.33845  0.48753  0.42505  1.0000
  H   H63       1.0  0.35771  0.49459  0.48403  1.0000
  C   C78       1.0  0.22182  0.47797  0.34525  1.0000
  C   C79       1.0  0.20103  0.48132  0.42789  1.0000
  C   C80       1.0  0.22395  0.48163  0.50976  1.0000
  C   C81       1.0  0.26826  0.48123  0.50965  1.0000
  H   H64       1.0  0.21001  0.48487  0.56994  1.0000
  H   H65       1.0  0.28542  0.48420  0.56976  1.0000
  C   C82       1.0  0.53251  0.81263  0.42768  1.0000
  C   C83       1.0  0.52557  0.85351  0.42496  1.0000
  H   H66       1.0  0.51866  0.86586  0.48392  1.0000
  C   C84       1.0  0.53517  0.74645  0.34538  1.0000
  C   C85       1.0  0.51929  0.64988  0.34301  1.0000
  C   C86       1.0  0.52437  0.67433  0.42572  1.0000
  C   C87       1.0  0.53191  0.72237  0.42807  1.0000
  C   C88       1.0  0.53163  0.74504  0.50990  1.0000
  C   C89       1.0  0.53200  0.78974  0.50971  1.0000
  H   H67       1.0  0.52850  0.72794  0.57013  1.0000
  H   H68       1.0  0.52910  0.80397  0.56980  1.0000
  H   H69       1.0  0.51729  0.65510  0.48474  1.0000
  C   C90       1.0  0.20066  0.72247  0.42754  1.0000
  C   C91       1.0  0.26677  0.79136  0.34517  1.0000
  C   C92       1.0  0.36327  0.87208  0.34267  1.0000
  C   C93       1.0  0.33890  0.85276  0.42549  1.0000
  C   C94       1.0  0.29090  0.81217  0.42784  1.0000
  C   C95       1.0  0.26830  0.78918  0.50967  1.0000
  C   C96       1.0  0.22361  0.74484  0.50953  1.0000
  H   H70       1.0  0.28542  0.80315  0.56989  1.0000
  H   H71       1.0  0.20942  0.72769  0.56964  1.0000
  H   H72       1.0  0.35820  0.86478  0.48445  1.0000
  C   C97       1.0  0.72517  0.52981  0.42747  1.0000
  C   C98       1.0  0.67733  0.52279  0.42473  1.0000
  H   H73       1.0  0.65812  0.51593  0.48375  1.0000
  C   C99       1.0  0.79408  0.53261  0.34514  1.0000
  C   C100      1.0  0.87475  0.51675  0.34267  1.0000
  C   C101      1.0  0.85539  0.52176  0.42547  1.0000
  C   C102      1.0  0.81485  0.52925  0.42782  1.0000
  C   C103      1.0  0.79190  0.52894  0.50966  1.0000
  C   C104      1.0  0.74756  0.52929  0.50950  1.0000
  H   H74       1.0  0.80577  0.52561  0.56986  1.0000
  H   H75       1.0  0.73032  0.52615  0.56957  1.0000
  H   H76       1.0  0.86744  0.51457  0.48449  1.0000
  C   C105      1.0  0.48329  0.19790  0.42762  1.0000
  C   C106      1.0  0.49018  0.15698  0.42499  1.0000
  H   H77       1.0  0.49725  0.14477  0.48395  1.0000
  C   C107      1.0  0.48062  0.26407  0.34524  1.0000
  C   C108      1.0  0.49651  0.36068  0.34270  1.0000
  C   C109      1.0  0.49150  0.33625  0.42545  1.0000
  C   C110      1.0  0.48399  0.28821  0.42789  1.0000
  C   C111      1.0  0.48431  0.26559  0.50974  1.0000
  C   C112      1.0  0.48391  0.22088  0.50961  1.0000
  H   H78       1.0  0.48756  0.28277  0.56993  1.0000
  H   H79       1.0  0.48690  0.20670  0.56971  1.0000
  H   H80       1.0  0.49870  0.35549  0.48448  1.0000
  C   C113      1.0  0.81527  0.28805  0.42778  1.0000
  C   C114      1.0  0.85615  0.33586  0.42514  1.0000
  H   H81       1.0  0.86849  0.35512  0.48409  1.0000
  C   C115      1.0  0.74908  0.21923  0.34542  1.0000
  C   C116      1.0  0.65251  0.13853  0.34298  1.0000
  C   C117      1.0  0.67695  0.15789  0.42571  1.0000
  C   C118      1.0  0.72499  0.19840  0.42809  1.0000
  C   C119      1.0  0.74765  0.22132  0.50994  1.0000
  C   C120      1.0  0.79235  0.26565  0.50980  1.0000
  H   H82       1.0  0.73054  0.20734  0.57016  1.0000
  H   H83       1.0  0.80658  0.28276  0.56991  1.0000
  H   H84       1.0  0.65771  0.14573  0.48472  1.0000
