data_image0
_chemical_formula_structural       C4HC6HO2C4HC6HO2C4HC6HO2CNCHNHCNCHNHCNCHNHC24H15C24H15C24H15C24H15CNCHNHCNCHNHCNCHNHC4HC6HO2C4HC6HO2C4HC6HO2
_chemical_formula_sum              "C168 H84 O12 N12"
_cell_length_a       57.2833
_cell_length_b       57.2834
_cell_length_c       14.9521
_cell_angle_alpha    90
_cell_angle_beta     90
_cell_angle_gamma    120

_space_group_name_H-M_alt    "P 1"
_space_group_IT_number       1

loop_
  _space_group_symop_operation_xyz
  'x, y, z'

loop_
  _atom_site_type_symbol
  _atom_site_label
  _atom_site_symmetry_multiplicity
  _atom_site_fract_x
  _atom_site_fract_y
  _atom_site_fract_z
  _atom_site_occupancy
  C   C1        1.0  0.28317  0.14178  0.33688  1.0000
  C   C2        1.0  0.22606  0.11310  0.33199  1.0000
  C   C3        1.0  0.24066  0.12222  0.25053  1.0000
  C   C4        1.0  0.26916  0.13648  0.25455  1.0000
  H   H1        1.0  0.27994  0.14278  0.19629  1.0000
  C   C5        1.0  0.19755  0.09887  0.33123  1.0000
  C   C6        1.0  0.14042  0.07043  0.33316  1.0000
  C   C7        1.0  0.15481  0.07934  0.25158  1.0000
  C   C8        1.0  0.18333  0.09359  0.24903  1.0000
  C   C9        1.0  0.19799  0.10267  0.16813  1.0000
  C   C10       1.0  0.22639  0.11687  0.16887  1.0000
  H   H2        1.0  0.14430  0.07497  0.19277  1.0000
  O   O1        1.0  0.18511  0.09810  0.08852  1.0000
  O   O2        1.0  0.23965  0.12535  0.08994  1.0000
  C   C11       1.0  0.85230  0.14215  0.33629  1.0000
  C   C12       1.0  0.88089  0.11364  0.33197  1.0000
  C   C13       1.0  0.87371  0.12099  0.25008  1.0000
  C   C14       1.0  0.85940  0.13520  0.25382  1.0000
  H   H3        1.0  0.85441  0.14096  0.19542  1.0000
  C   C15       1.0  0.89506  0.09929  0.33145  1.0000
  C   C16       1.0  0.92347  0.07058  0.33376  1.0000
  C   C17       1.0  0.91653  0.07796  0.25178  1.0000
  C   C18       1.0  0.90230  0.09225  0.24905  1.0000
  C   C19       1.0  0.89513  0.09968  0.16776  1.0000
  C   C20       1.0  0.88096  0.11392  0.16826  1.0000
  H   H4        1.0  0.92151  0.07238  0.19301  1.0000
  O   O3        1.0  0.90173  0.09334  0.08793  1.0000
  O   O4        1.0  0.87443  0.12058  0.08890  1.0000
  C   C21       1.0  0.85244  0.71094  0.33413  1.0000
  C   C22       1.0  0.88100  0.76804  0.32960  1.0000
  C   C23       1.0  0.87359  0.75348  0.24776  1.0000
  C   C24       1.0  0.85930  0.72497  0.25160  1.0000
  H   H5        1.0  0.85415  0.71420  0.19323  1.0000
  C   C25       1.0  0.89516  0.79654  0.32902  1.0000
  C   C26       1.0  0.92353  0.85366  0.33132  1.0000
  C   C27       1.0  0.91638  0.83934  0.24934  1.0000
  C   C28       1.0  0.90216  0.81081  0.24661  1.0000
  C   C29       1.0  0.89478  0.79621  0.16534  1.0000
  C   C30       1.0  0.88062  0.76779  0.16591  1.0000
  H   H6        1.0  0.92119  0.84991  0.19057  1.0000
  O   O5        1.0  0.90114  0.80913  0.08549  1.0000
  O   O6        1.0  0.87387  0.75458  0.08658  1.0000
  C   C31       1.0  0.52559  0.15359  0.26278  1.0000
  N   N1        1.0  0.54826  0.15185  0.26866  1.0000
  C   C32       1.0  0.62153  0.15409  0.26303  1.0000
  H   H7        1.0  0.51703  0.15146  0.20115  1.0000
  N   N2        1.0  0.59701  0.15211  0.26878  1.0000
  H   H8        1.0  0.62807  0.15210  0.20142  1.0000
  C   C33       1.0  0.84059  0.37276  0.26166  1.0000
  N   N3        1.0  0.84240  0.39721  0.26733  1.0000
  C   C34       1.0  0.84050  0.46846  0.26136  1.0000
  H   H9        1.0  0.84263  0.36626  0.20005  1.0000
  N   N4        1.0  0.84235  0.44584  0.26717  1.0000
  H   H10       1.0  0.84254  0.47699  0.19972  1.0000
  C   C35       1.0  0.62149  0.46837  0.26654  1.0000
  N   N5        1.0  0.59701  0.44579  0.27270  1.0000
  C   C36       1.0  0.52585  0.37272  0.26741  1.0000
  H   H11       1.0  0.62785  0.47695  0.20491  1.0000
  N   N6        1.0  0.54843  0.39721  0.27315  1.0000
  H   H12       1.0  0.51721  0.36627  0.20589  1.0000
  C   C37       1.0  0.98126  0.01263  0.33979  1.0000
  C   C38       1.0  0.00980  0.02644  0.33938  1.0000
  C   C39       1.0  0.02456  0.01267  0.33878  1.0000
  C   C40       1.0  0.00983  0.98413  0.33831  1.0000
  C   C41       1.0  0.98129  0.96940  0.33884  1.0000
  C   C42       1.0  0.96744  0.98409  0.33995  1.0000
  C   C43       1.0  0.05347  0.02716  0.33801  1.0000
  C   C44       1.0  0.06808  0.04983  0.28186  1.0000
  C   C45       1.0  0.09646  0.06397  0.28049  1.0000
  C   C46       1.0  0.11152  0.05614  0.33536  1.0000
  C   C47       1.0  0.09691  0.03355  0.39186  1.0000
  C   C48       1.0  0.06852  0.01932  0.39296  1.0000
  C   C49       1.0  0.96688  0.02712  0.33887  1.0000
  C   C50       1.0  0.97443  0.04918  0.28031  1.0000
  C   C51       1.0  0.96022  0.06335  0.27870  1.0000
  C   C52       1.0  0.93798  0.05622  0.33608  1.0000
  C   C53       1.0  0.93054  0.03427  0.39508  1.0000
  C   C54       1.0  0.94459  0.01992  0.39610  1.0000
  C   C55       1.0  0.96687  0.94052  0.33717  1.0000
  C   C56       1.0  0.94477  0.92537  0.39499  1.0000
  C   C57       1.0  0.93072  0.89697  0.39362  1.0000
  C   C58       1.0  0.93801  0.88253  0.33372  1.0000
  C   C59       1.0  0.96006  0.89771  0.27571  1.0000
  C   C60       1.0  0.97426  0.92609  0.27764  1.0000
  H   H13       1.0  0.96661  0.07930  0.23569  1.0000
  H   H14       1.0  0.99017  0.05491  0.23681  1.0000
  H   H15       1.0  0.91438  0.02812  0.43697  1.0000
  H   H16       1.0  0.93857  0.00430  0.44027  1.0000
  H   H17       1.0  0.93889  0.93492  0.43987  1.0000
  H   H18       1.0  0.91470  0.88691  0.43600  1.0000
  H   H19       1.0  0.98987  0.93615  0.23372  1.0000
  H   H20       1.0  0.96633  0.88821  0.23203  1.0000
  H   H21       1.0  0.05890  0.00328  0.43556  1.0000
  H   H22       1.0  0.10684  0.02685  0.43191  1.0000
  H   H23       1.0  0.10604  0.08039  0.23939  1.0000
  H   H24       1.0  0.05815  0.05607  0.23997  1.0000
  H   H25       1.0  0.02009  0.04707  0.34221  1.0000
  H   H26       1.0  0.94681  0.97377  0.33730  1.0000
  H   H27       1.0  0.02013  0.97379  0.33730  1.0000
  C   C61       1.0  0.44231  0.24288  0.33657  1.0000
  C   C62       1.0  0.41389  0.22856  0.34285  1.0000
  C   C63       1.0  0.39898  0.19995  0.34407  1.0000
  C   C64       1.0  0.41345  0.18582  0.34093  1.0000
  C   C65       1.0  0.44188  0.19957  0.33470  1.0000
  C   C66       1.0  0.45587  0.22802  0.33362  1.0000
  C   C67       1.0  0.37008  0.18572  0.34433  1.0000
  C   C68       1.0  0.35552  0.19388  0.28830  1.0000
  C   C69       1.0  0.32716  0.17960  0.28639  1.0000
  C   C70       1.0  0.31205  0.15653  0.34047  1.0000
  C   C71       1.0  0.32659  0.14850  0.39709  1.0000
  C   C72       1.0  0.35499  0.16272  0.39869  1.0000
  C   C73       1.0  0.45761  0.27156  0.33205  1.0000
  C   C74       1.0  0.45577  0.28787  0.39943  1.0000
  C   C75       1.0  0.47410  0.31584  0.40177  1.0000
  C   C76       1.0  0.49458  0.32845  0.33631  1.0000
  C   C77       1.0  0.49545  0.31214  0.26671  1.0000
  C   C78       1.0  0.47733  0.28426  0.26460  1.0000
  C   C79       1.0  0.45685  0.18588  0.32856  1.0000
  C   C80       1.0  0.47651  0.19297  0.26085  1.0000
  C   C81       1.0  0.49469  0.18328  0.26257  1.0000
  C   C82       1.0  0.49389  0.16602  0.33181  1.0000
  C   C83       1.0  0.47338  0.15800  0.39728  1.0000
  C   C84       1.0  0.45505  0.16764  0.39553  1.0000
  H   H28       1.0  0.47283  0.32683  0.45354  1.0000
  H   H29       1.0  0.44223  0.27930  0.45061  1.0000
  H   H30       1.0  0.51040  0.32007  0.21955  1.0000
  H   H31       1.0  0.47943  0.27309  0.21509  1.0000
  H   H32       1.0  0.47867  0.20641  0.21190  1.0000
  H   H33       1.0  0.50965  0.19042  0.21543  1.0000
  H   H34       1.0  0.44156  0.16263  0.44691  1.0000
  H   H35       1.0  0.47217  0.14570  0.44889  1.0000
  H   H36       1.0  0.36460  0.15616  0.44085  1.0000
  H   H37       1.0  0.31661  0.13173  0.43650  1.0000
  H   H38       1.0  0.31762  0.18647  0.24521  1.0000
  H   H39       1.0  0.36546  0.21007  0.24647  1.0000
  H   H40       1.0  0.40394  0.23923  0.34518  1.0000
  H   H41       1.0  0.47653  0.23821  0.33167  1.0000
  H   H42       1.0  0.40316  0.16519  0.33892  1.0000
  C   C85       1.0  0.75129  0.20013  0.33389  1.0000
  C   C86       1.0  0.76561  0.18603  0.34009  1.0000
  C   C87       1.0  0.79421  0.19977  0.34246  1.0000
  C   C88       1.0  0.80835  0.22838  0.34029  1.0000
  C   C89       1.0  0.79460  0.24305  0.33375  1.0000
  C   C90       1.0  0.76615  0.22856  0.33178  1.0000
  C   C91       1.0  0.80843  0.18512  0.34279  1.0000
  C   C92       1.0  0.80102  0.16315  0.28391  1.0000
  C   C93       1.0  0.81532  0.14910  0.28211  1.0000
  C   C94       1.0  0.83757  0.15628  0.33951  1.0000
  C   C95       1.0  0.84482  0.17807  0.39906  1.0000
  C   C96       1.0  0.83066  0.19232  0.40024  1.0000
  C   C97       1.0  0.72262  0.18676  0.32877  1.0000
  C   C98       1.0  0.70619  0.16843  0.39558  1.0000
  C   C99       1.0  0.67822  0.15882  0.39760  1.0000
  C   C100      1.0  0.66571  0.16685  0.33229  1.0000
  C   C101      1.0  0.68214  0.18421  0.26323  1.0000
  C   C102      1.0  0.71003  0.19394  0.26142  1.0000
  C   C103      1.0  0.80827  0.27173  0.32782  1.0000
  C   C104      1.0  0.80126  0.28432  0.25994  1.0000
  C   C105      1.0  0.81096  0.31220  0.26155  1.0000
  C   C106      1.0  0.82810  0.32864  0.33102  1.0000
  C   C107      1.0  0.83606  0.31615  0.39669  1.0000
  C   C108      1.0  0.82642  0.28817  0.39499  1.0000
  H   H43       1.0  0.66714  0.14640  0.44896  1.0000
  H   H44       1.0  0.71468  0.16333  0.44668  1.0000
  H   H45       1.0  0.67429  0.19137  0.21624  1.0000
  H   H46       1.0  0.72127  0.20737  0.21238  1.0000
  H   H47       1.0  0.78789  0.27304  0.21081  1.0000
  H   H48       1.0  0.80382  0.31999  0.21435  1.0000
  H   H49       1.0  0.83142  0.27969  0.44639  1.0000
  H   H50       1.0  0.84833  0.32723  0.44834  1.0000
  H   H51       1.0  0.83664  0.20796  0.44435  1.0000
  H   H52       1.0  0.86100  0.18426  0.44090  1.0000
  H   H53       1.0  0.80909  0.13328  0.23864  1.0000
  H   H54       1.0  0.78540  0.15750  0.23995  1.0000
  H   H55       1.0  0.75498  0.16540  0.34154  1.0000
  H   H56       1.0  0.75594  0.23902  0.32977  1.0000
  H   H57       1.0  0.82899  0.23871  0.33912  1.0000
  C   C109      1.0  0.79466  0.55230  0.33325  1.0000
  C   C110      1.0  0.80845  0.58074  0.33934  1.0000
  C   C111      1.0  0.79435  0.59524  0.34164  1.0000
  C   C112      1.0  0.76575  0.58041  0.33998  1.0000
  C   C113      1.0  0.75139  0.55198  0.33430  1.0000
  C   C114      1.0  0.76620  0.53837  0.33195  1.0000
  C   C115      1.0  0.80860  0.62411  0.34150  1.0000
  C   C116      1.0  0.83098  0.63920  0.39833  1.0000
  C   C117      1.0  0.84514  0.66760  0.39683  1.0000
  C   C118      1.0  0.83773  0.68208  0.33753  1.0000
  C   C119      1.0  0.81535  0.66696  0.28071  1.0000
  C   C120      1.0  0.80106  0.63860  0.28281  1.0000
  C   C121      1.0  0.80830  0.53727  0.32732  1.0000
  C   C122      1.0  0.82652  0.53903  0.39429  1.0000
  C   C123      1.0  0.83612  0.52067  0.39607  1.0000
  C   C124      1.0  0.82808  0.50016  0.33060  1.0000
  C   C125      1.0  0.81085  0.49939  0.26133  1.0000
  C   C126      1.0  0.80115  0.51757  0.25972  1.0000
  C   C127      1.0  0.72271  0.53671  0.32990  1.0000
  C   C128      1.0  0.70995  0.51689  0.26279  1.0000
  C   C129      1.0  0.68207  0.49877  0.26524  1.0000
  C   C130      1.0  0.66582  0.49977  0.33481  1.0000
  C   C131      1.0  0.67849  0.52033  0.39997  1.0000
  C   C132      1.0  0.70646  0.53864  0.39731  1.0000
  H   H58       1.0  0.84846  0.52190  0.44756  1.0000
  H   H59       1.0  0.83161  0.55258  0.44553  1.0000
  H   H60       1.0  0.80362  0.48438  0.21435  1.0000
  H   H61       1.0  0.78771  0.51542  0.21076  1.0000
  H   H62       1.0  0.72108  0.51472  0.21328  1.0000
  H   H63       1.0  0.67409  0.48378  0.21826  1.0000
  H   H64       1.0  0.71508  0.55228  0.44822  1.0000
  H   H65       1.0  0.66753  0.52169  0.45170  1.0000
  H   H66       1.0  0.78531  0.62860  0.23934  1.0000
  H   H67       1.0  0.80900  0.67650  0.23748  1.0000
  H   H68       1.0  0.86141  0.67763  0.43823  1.0000
  H   H69       1.0  0.83705  0.62959  0.44232  1.0000
  H   H70       1.0  0.82909  0.59102  0.33763  1.0000
  H   H71       1.0  0.75598  0.51770  0.33027  1.0000
  H   H72       1.0  0.75514  0.59043  0.34162  1.0000
  C   C133      1.0  0.26726  0.13191  0.41506  1.0000
  N   N7        1.0  0.23994  0.11835  0.41012  1.0000
  C   C134      1.0  0.15598  0.07635  0.41216  1.0000
  H   H73       1.0  0.27596  0.13533  0.47690  1.0000
  N   N8        1.0  0.18331  0.09008  0.40864  1.0000
  H   H74       1.0  0.14701  0.07093  0.47356  1.0000
  C   C135      1.0  0.86033  0.13435  0.41498  1.0000
  N   N9        1.0  0.87391  0.12060  0.41026  1.0000
  C   C136      1.0  0.91543  0.07813  0.41297  1.0000
  H   H75       1.0  0.85557  0.13837  0.47679  1.0000
  N   N10       1.0  0.90194  0.09198  0.40923  1.0000
  H   H76       1.0  0.92011  0.07385  0.47450  1.0000
  C   C137      1.0  0.86069  0.72680  0.41274  1.0000
  N   N11       1.0  0.87423  0.75411  0.40794  1.0000
  C   C138      1.0  0.91575  0.83806  0.41054  1.0000
  H   H77       1.0  0.85607  0.71804  0.47461  1.0000
  N   N12       1.0  0.90226  0.81074  0.40681  1.0000
  H   H78       1.0  0.92060  0.84703  0.47206  1.0000
  C   C139      1.0  0.51492  0.15955  0.33914  1.0000
  C   C140      1.0  0.56179  0.15498  0.34641  1.0000
  C   C141      1.0  0.55170  0.15988  0.42673  1.0000
  C   C142      1.0  0.52814  0.16198  0.42163  1.0000
  H   H79       1.0  0.52156  0.16713  0.47787  1.0000
  C   C143      1.0  0.58650  0.15510  0.34648  1.0000
  C   C144      1.0  0.63815  0.16020  0.33947  1.0000
  C   C145      1.0  0.62724  0.16244  0.42196  1.0000
  C   C146      1.0  0.60148  0.16013  0.42688  1.0000
  C   C147      1.0  0.59079  0.16384  0.50746  1.0000
  C   C148      1.0  0.56611  0.16372  0.50739  1.0000
  H   H80       1.0  0.63897  0.16772  0.47821  1.0000
  O   O7        1.0  0.60439  0.16845  0.58560  1.0000
  O   O8        1.0  0.55701  0.16824  0.58546  1.0000
  C   C149      1.0  0.83462  0.35618  0.33815  1.0000
  C   C150      1.0  0.83936  0.40771  0.34501  1.0000
  C   C151      1.0  0.83448  0.39277  0.42545  1.0000
  C   C152      1.0  0.83231  0.36708  0.42058  1.0000
  H   H81       1.0  0.82715  0.35538  0.47690  1.0000
  C   C153      1.0  0.83935  0.43235  0.34493  1.0000
  C   C154      1.0  0.83457  0.47912  0.33780  1.0000
  C   C155      1.0  0.83228  0.46595  0.42030  1.0000
  C   C156      1.0  0.83447  0.44244  0.42531  1.0000
  C   C157      1.0  0.83076  0.42807  0.50600  1.0000
  C   C158      1.0  0.83077  0.40346  0.50607  1.0000
  H   H82       1.0  0.82714  0.47252  0.47659  1.0000
  O   O9        1.0  0.82628  0.43717  0.58412  1.0000
  O   O10       1.0  0.82629  0.38990  0.58426  1.0000
  C   C159      1.0  0.63826  0.47889  0.34261  1.0000
  C   C160      1.0  0.58671  0.43225  0.35048  1.0000
  C   C161      1.0  0.60187  0.44220  0.43055  1.0000
  C   C162      1.0  0.62760  0.46567  0.42517  1.0000
  H   H83       1.0  0.63944  0.47216  0.48116  1.0000
  C   C163      1.0  0.56207  0.40760  0.35071  1.0000
  C   C164      1.0  0.51546  0.35602  0.34370  1.0000
  C   C165      1.0  0.52874  0.36681  0.42609  1.0000
  C   C166      1.0  0.55222  0.39254  0.43100  1.0000
  C   C167      1.0  0.56678  0.40312  0.51140  1.0000
  C   C168      1.0  0.59140  0.42774  0.51119  1.0000
  H   H84       1.0  0.52237  0.35500  0.48219  1.0000
  O   O11       1.0  0.55790  0.38943  0.58945  1.0000
  O   O12       1.0  0.60518  0.43672  0.58902  1.0000
