data_image0
_chemical_formula_structural       C2H4CH4C3H2NHC3H2NHC2H2NHC29H17C3O3C29H17C3O3C3HNO2NHC3HNO2NHC3HNO2NH
_chemical_formula_sum              "C84 H57 N9 O12"
_cell_length_a       45.0291
_cell_length_b       45.0292
_cell_length_c       14.9889
_cell_angle_alpha    90
_cell_angle_beta     90
_cell_angle_gamma    120

_space_group_name_H-M_alt    "P 1"
_space_group_IT_number       1

loop_
  _space_group_symop_operation_xyz
  'x, y, z'

loop_
  _atom_site_type_symbol
  _atom_site_label
  _atom_site_symmetry_multiplicity
  _atom_site_fract_x
  _atom_site_fract_y
  _atom_site_fract_z
  _atom_site_occupancy
  C   C1        1.0  0.01469  0.50289  0.25255  1.0000
  C   C2        1.0  0.40740  0.85459  0.32781  1.0000
  H   H1        1.0  0.39629  0.86958  0.33149  1.0000
  H   H2        1.0  0.36000  0.80936  0.31121  1.0000
  H   H3        1.0  0.47405  0.60466  0.33159  1.0000
  H   H4        1.0  0.13134  0.52689  0.33154  1.0000
  C   C3        1.0  0.59309  0.14610  0.33907  1.0000
  H   H5        1.0  0.60400  0.13099  0.33307  1.0000
  H   H6        1.0  0.64091  0.19126  0.34985  1.0000
  H   H7        1.0  0.52773  0.39691  0.33297  1.0000
  H   H8        1.0  0.86993  0.47321  0.33300  1.0000
  C   C4        1.0  0.48514  0.52123  0.32689  1.0000
  C   C5        1.0  0.51326  0.49152  0.26308  1.0000
  C   C6        1.0  0.49806  0.51200  0.25259  1.0000
  H   H9        1.0  0.52120  0.48429  0.20741  1.0000
  H   H10       1.0  0.49560  0.51941  0.18977  1.0000
  N   N1        1.0  0.47075  0.54159  0.31521  1.0000
  H   H11       1.0  0.48103  0.55930  0.26947  1.0000
  C   C7        1.0  0.47970  0.96409  0.32688  1.0000
  C   C8        1.0  0.50941  0.02192  0.26310  1.0000
  C   C9        1.0  0.48894  0.98624  0.25259  1.0000
  H   H12       1.0  0.51664  0.03710  0.20744  1.0000
  H   H13       1.0  0.48152  0.97638  0.18976  1.0000
  N   N2        1.0  0.45934  0.92935  0.31518  1.0000
  H   H14       1.0  0.44163  0.92192  0.26943  1.0000
  C   C10       1.0  0.03683  0.51579  0.32686  1.0000
  C   C11       1.0  0.97901  0.48768  0.26304  1.0000
  H   H15       1.0  0.96384  0.47974  0.20737  1.0000
  H   H16       1.0  0.02456  0.50533  0.18974  1.0000
  N   N3        1.0  0.07158  0.53017  0.31519  1.0000
  H   H17       1.0  0.07902  0.51989  0.26945  1.0000
  C   C12       1.0  0.44331  0.86918  0.33748  1.0000
  C   C13       1.0  0.45696  0.84688  0.33522  1.0000
  C   C14       1.0  0.43556  0.81134  0.32327  1.0000
  C   C15       1.0  0.39966  0.79685  0.31498  1.0000
  C   C16       1.0  0.38591  0.81901  0.31649  1.0000
  C   C17       1.0  0.37794  0.76175  0.30501  1.0000
  C   C18       1.0  0.37851  0.73824  0.35927  1.0000
  C   C19       1.0  0.35630  0.70316  0.35178  1.0000
  C   C20       1.0  0.32033  0.68918  0.35244  1.0000
  C   C21       1.0  0.29777  0.65333  0.35190  1.0000
  C   C22       1.0  0.31175  0.63133  0.35250  1.0000
  C   C23       1.0  0.34760  0.64463  0.35188  1.0000
  C   C24       1.0  0.36960  0.68060  0.35240  1.0000
  C   C25       1.0  0.36048  0.62242  0.35937  1.0000
  C   C26       1.0  0.38455  0.62299  0.30509  1.0000
  C   C27       1.0  0.39794  0.60128  0.31506  1.0000
  C   C28       1.0  0.43385  0.61503  0.31660  1.0000
  C   C29       1.0  0.37654  0.56537  0.32336  1.0000
  C   C30       1.0  0.39068  0.54399  0.33536  1.0000
  C   C31       1.0  0.42663  0.55764  0.33760  1.0000
  C   C32       1.0  0.44795  0.59354  0.32784  1.0000
  C   C33       1.0  0.26269  0.64045  0.35940  1.0000
  C   C34       1.0  0.23918  0.61636  0.30515  1.0000
  C   C35       1.0  0.20408  0.60298  0.31510  1.0000
  C   C36       1.0  0.18959  0.62440  0.32336  1.0000
  C   C37       1.0  0.18192  0.56708  0.31664  1.0000
  C   C38       1.0  0.14634  0.55299  0.32786  1.0000
  C   C39       1.0  0.13174  0.57430  0.33752  1.0000
  C   C40       1.0  0.15405  0.61026  0.33529  1.0000
  H   H18       1.0  0.48279  0.85633  0.34126  1.0000
  H   H19       1.0  0.44646  0.79611  0.32124  1.0000
  H   H20       1.0  0.39562  0.69049  0.35548  1.0000
  H   H21       1.0  0.31044  0.70532  0.35551  1.0000
  H   H22       1.0  0.29561  0.60530  0.35560  1.0000
  H   H23       1.0  0.20482  0.65052  0.32133  1.0000
  H   H24       1.0  0.45011  0.64094  0.31124  1.0000
  H   H25       1.0  0.37430  0.51815  0.34141  1.0000
  H   H26       1.0  0.35041  0.55447  0.32133  1.0000
  H   H27       1.0  0.14461  0.62665  0.34130  1.0000
  H   H28       1.0  0.19156  0.55081  0.31130  1.0000
  H   H29       1.0  0.39439  0.64059  0.25707  1.0000
  H   H30       1.0  0.35094  0.60506  0.40802  1.0000
  H   H31       1.0  0.36032  0.75399  0.25703  1.0000
  H   H32       1.0  0.39589  0.74606  0.40789  1.0000
  H   H33       1.0  0.24694  0.60652  0.25715  1.0000
  H   H34       1.0  0.25488  0.65001  0.40802  1.0000
  C   C41       1.0  0.09590  0.56026  0.35240  1.0000
  C   C42       1.0  0.44070  0.53587  0.35258  1.0000
  C   C43       1.0  0.46510  0.90502  0.35240  1.0000
  O   O1        1.0  0.42170  0.50688  0.40064  1.0000
  O   O2        1.0  0.49405  0.91500  0.40062  1.0000
  O   O3        1.0  0.08592  0.57923  0.40061  1.0000
  C   C44       1.0  0.55704  0.13161  0.33482  1.0000
  C   C45       1.0  0.54368  0.15412  0.33987  1.0000
  C   C46       1.0  0.56545  0.18971  0.34955  1.0000
  C   C47       1.0  0.60144  0.20403  0.35278  1.0000
  C   C48       1.0  0.61495  0.18172  0.34821  1.0000
  C   C49       1.0  0.62345  0.23912  0.36130  1.0000
  C   C50       1.0  0.62247  0.26247  0.30724  1.0000
  C   C51       1.0  0.64477  0.29758  0.31373  1.0000
  C   C52       1.0  0.68074  0.31153  0.31309  1.0000
  C   C53       1.0  0.70335  0.34737  0.31372  1.0000
  C   C54       1.0  0.68940  0.36939  0.31311  1.0000
  C   C55       1.0  0.65355  0.35616  0.31371  1.0000
  C   C56       1.0  0.63153  0.32018  0.31311  1.0000
  C   C57       1.0  0.64074  0.37845  0.30721  1.0000
  C   C58       1.0  0.61642  0.37748  0.36128  1.0000
  C   C59       1.0  0.60333  0.39948  0.35276  1.0000
  C   C60       1.0  0.56751  0.38596  0.34817  1.0000
  C   C61       1.0  0.62499  0.43547  0.34953  1.0000
  C   C62       1.0  0.61118  0.45725  0.33985  1.0000
  C   C63       1.0  0.57530  0.44387  0.33475  1.0000
  C   C64       1.0  0.55374  0.40782  0.33901  1.0000
  C   C65       1.0  0.73846  0.36018  0.30722  1.0000
  C   C66       1.0  0.76181  0.38451  0.36129  1.0000
  C   C67       1.0  0.79690  0.39760  0.35276  1.0000
  C   C68       1.0  0.81122  0.37594  0.34951  1.0000
  C   C69       1.0  0.81920  0.43343  0.34814  1.0000
  C   C70       1.0  0.85482  0.44719  0.33898  1.0000
  C   C71       1.0  0.86932  0.42563  0.33473  1.0000
  C   C72       1.0  0.84682  0.38976  0.33983  1.0000
  H   H35       1.0  0.51778  0.14478  0.33784  1.0000
  H   H36       1.0  0.55476  0.20508  0.35392  1.0000
  H   H37       1.0  0.60551  0.31033  0.31031  1.0000
  H   H38       1.0  0.69060  0.29536  0.31033  1.0000
  H   H39       1.0  0.70556  0.39542  0.31031  1.0000
  H   H40       1.0  0.79586  0.34988  0.35390  1.0000
  H   H41       1.0  0.55109  0.36001  0.34979  1.0000
  H   H42       1.0  0.62774  0.48314  0.33781  1.0000
  H   H43       1.0  0.65106  0.44616  0.35393  1.0000
  H   H44       1.0  0.85615  0.37319  0.33775  1.0000
  H   H45       1.0  0.80966  0.44984  0.34986  1.0000
  H   H46       1.0  0.60626  0.35947  0.40822  1.0000
  H   H47       1.0  0.65066  0.39634  0.25987  1.0000
  H   H48       1.0  0.64145  0.24697  0.40825  1.0000
  H   H49       1.0  0.60459  0.25450  0.25987  1.0000
  H   H50       1.0  0.75395  0.39466  0.40826  1.0000
  H   H51       1.0  0.74643  0.35028  0.25985  1.0000
  C   C73       1.0  0.90528  0.43929  0.32285  1.0000
  C   C74       1.0  0.56165  0.46618  0.32291  1.0000
  C   C75       1.0  0.53473  0.09565  0.32301  1.0000
  O   O4        1.0  0.58156  0.49644  0.28076  1.0000
  O   O5        1.0  0.50448  0.08529  0.28081  1.0000
  O   O6        1.0  0.91564  0.41938  0.28080  1.0000
  C   C76       1.0  0.48907  0.51038  0.41239  1.0000
  C   C77       1.0  0.50453  0.48990  0.42404  1.0000
  C   C78       1.0  0.51697  0.48044  0.34853  1.0000
  H   H52       1.0  0.48113  0.51792  0.46747  1.0000
  N   N4        1.0  0.50886  0.47958  0.50997  1.0000
  O   O7        1.0  0.48052  0.46165  0.54827  1.0000
  O   O8        1.0  0.52741  0.50500  0.55844  1.0000
  N   N5        1.0  0.53085  0.45950  0.35725  1.0000
  H   H53       1.0  0.51926  0.44022  0.39820  1.0000
  C   C79       1.0  0.49054  0.97886  0.41239  1.0000
  C   C80       1.0  0.51101  0.01480  0.42406  1.0000
  C   C81       1.0  0.52048  0.03671  0.34857  1.0000
  H   H54       1.0  0.48299  0.96338  0.46746  1.0000
  N   N6        1.0  0.52133  0.02944  0.51000  1.0000
  O   O9        1.0  0.53925  0.01903  0.54831  1.0000
  O   O10       1.0  0.49590  0.02258  0.55846  1.0000
  N   N7        1.0  0.54142  0.07153  0.35731  1.0000
  H   H55       1.0  0.56069  0.07921  0.39827  1.0000
  C   C82       1.0  0.02205  0.51185  0.41235  1.0000
  C   C83       1.0  0.98612  0.49641  0.42400  1.0000
  C   C84       1.0  0.96422  0.48396  0.34849  1.0000
  H   H56       1.0  0.03754  0.51979  0.46743  1.0000
  N   N8        1.0  0.97147  0.49207  0.50993  1.0000
  O   O11       1.0  0.98188  0.52040  0.54824  1.0000
  O   O12       1.0  0.97833  0.47351  0.55839  1.0000
  N   N9        1.0  0.92939  0.47009  0.35719  1.0000
  H   H57       1.0  0.92173  0.48170  0.39816  1.0000
