data_image0
_chemical_formula_structural       C3H2CH2C3HNO2C3HNO2C3HNO2C3HNO2C3HNO2C3HNO2C20H11C24H15C24H15C24H15C3HNO2C3HNO2C3HNO2C3HNO2C3HNO2C3HNO2
_chemical_formula_sum              "C132 H72 N12 O24"
_cell_length_a       45.8468
_cell_length_b       45.8468
_cell_length_c       14.9527
_cell_angle_alpha    90
_cell_angle_beta     90
_cell_angle_gamma    120

_space_group_name_H-M_alt    "P 1"
_space_group_IT_number       1

loop_
  _space_group_symop_operation_xyz
  'x, y, z'

loop_
  _atom_site_type_symbol
  _atom_site_label
  _atom_site_symmetry_multiplicity
  _atom_site_fract_x
  _atom_site_fract_y
  _atom_site_fract_z
  _atom_site_occupancy
  C   C1        1.0  0.01240  0.03327  0.34189  1.0000
  C   C2        1.0  0.03076  0.01600  0.33913  1.0000
  C   C3        1.0  0.01227  0.98035  0.33667  1.0000
  H   H1        1.0  0.02532  0.05900  0.34663  1.0000
  H   H2        1.0  0.02515  0.96754  0.33132  1.0000
  C   C4        1.0  0.06689  0.03396  0.33980  1.0000
  H   H3        1.0  0.07274  0.00254  0.43419  1.0000
  H   H4        1.0  0.07364  0.07157  0.24550  1.0000
  C   C5        1.0  0.24742  0.12361  0.33770  1.0000
  C   C6        1.0  0.22849  0.11105  0.25765  1.0000
  C   C7        1.0  0.19285  0.09360  0.26156  1.0000
  H   H5        1.0  0.17960  0.08427  0.20338  1.0000
  N   N1        1.0  0.24532  0.11505  0.17517  1.0000
  O   O1        1.0  0.23800  0.08712  0.14129  1.0000
  O   O2        1.0  0.23835  0.13127  0.11972  1.0000
  C   C8        1.0  0.86770  0.12373  0.34312  1.0000
  C   C9        1.0  0.87376  0.11082  0.26327  1.0000
  C   C10       1.0  0.89193  0.09336  0.26734  1.0000
  H   H6        1.0  0.89562  0.08378  0.20930  1.0000
  N   N2        1.0  0.86069  0.11456  0.18089  1.0000
  O   O3        1.0  0.83995  0.08652  0.14779  1.0000
  O   O4        1.0  0.88372  0.13056  0.12485  1.0000
  C   C11       1.0  0.86717  0.74484  0.33576  1.0000
  C   C12       1.0  0.87635  0.76374  0.25507  1.0000
  C   C13       1.0  0.89437  0.79939  0.25888  1.0000
  H   H7        1.0  0.90107  0.81252  0.19993  1.0000
  N   N3        1.0  0.86639  0.74692  0.17158  1.0000
  O   O5        1.0  0.84698  0.75416  0.13023  1.0000
  O   O6        1.0  0.89134  0.75396  0.12258  1.0000
  C   C14       1.0  0.60177  0.14935  0.32977  1.0000
  C   C15       1.0  0.57852  0.13559  0.25798  1.0000
  C   C16       1.0  0.54787  0.13599  0.26206  1.0000
  H   H8        1.0  0.53189  0.12707  0.20836  1.0000
  N   N4        1.0  0.58649  0.12214  0.18263  1.0000
  O   O7        1.0  0.56551  0.09140  0.17276  1.0000
  O   O8        1.0  0.58732  0.13738  0.11190  1.0000
  C   C17       1.0  0.84215  0.45273  0.34088  1.0000
  C   C18       1.0  0.85681  0.44364  0.27045  1.0000
  C   C19       1.0  0.85636  0.41258  0.27471  1.0000
  H   H9        1.0  0.86587  0.40577  0.22183  1.0000
  N   N5        1.0  0.87112  0.46544  0.19615  1.0000
  O   O9        1.0  0.90197  0.47527  0.18888  1.0000
  O   O10       1.0  0.85673  0.45140  0.12424  1.0000
  C   C20       1.0  0.53916  0.39024  0.33476  1.0000
  C   C21       1.0  0.54824  0.41364  0.26347  1.0000
  C   C22       1.0  0.57921  0.44436  0.26727  1.0000
  H   H10       1.0  0.58604  0.46040  0.21376  1.0000
  N   N6        1.0  0.52651  0.40572  0.18882  1.0000
  O   O11       1.0  0.51654  0.42659  0.18028  1.0000
  O   O12       1.0  0.54068  0.40515  0.11738  1.0000
  C   C23       1.0  0.97674  0.01608  0.34254  1.0000
  C   C24       1.0  0.97660  0.96189  0.33812  1.0000
  C   C25       1.0  0.95946  0.98042  0.34103  1.0000
  C   C26       1.0  0.08566  0.06313  0.28675  1.0000
  C   C27       1.0  0.12113  0.08081  0.28778  1.0000
  C   C28       1.0  0.13922  0.07015  0.34247  1.0000
  C   C29       1.0  0.12060  0.04091  0.39503  1.0000
  C   C30       1.0  0.08514  0.02321  0.39382  1.0000
  C   C31       1.0  0.95875  0.03421  0.34490  1.0000
  C   C32       1.0  0.96862  0.06298  0.29056  1.0000
  C   C33       1.0  0.95082  0.08065  0.29200  1.0000
  C   C34       1.0  0.92252  0.07035  0.34824  1.0000
  C   C35       1.0  0.91244  0.04152  0.40218  1.0000
  C   C36       1.0  0.93025  0.02387  0.40067  1.0000
  C   C37       1.0  0.95849  0.92570  0.33777  1.0000
  C   C38       1.0  0.92853  0.90710  0.28745  1.0000
  C   C39       1.0  0.91051  0.87164  0.28859  1.0000
  C   C40       1.0  0.92172  0.85322  0.34002  1.0000
  C   C41       1.0  0.95192  0.87167  0.38914  1.0000
  C   C42       1.0  0.96977  0.90712  0.38850  1.0000
  H   H11       1.0  0.95892  0.10136  0.25184  1.0000
  H   H12       1.0  0.98863  0.07107  0.24784  1.0000
  H   H13       1.0  0.89172  0.03286  0.44253  1.0000
  H   H14       1.0  0.92232  0.00346  0.44185  1.0000
  H   H15       1.0  0.91961  0.91923  0.24830  1.0000
  H   H16       1.0  0.88879  0.85932  0.25199  1.0000
  H   H17       1.0  0.99098  0.91926  0.42706  1.0000
  H   H18       1.0  0.96138  0.85940  0.42568  1.0000
  H   H19       1.0  0.13274  0.03202  0.43429  1.0000
  H   H20       1.0  0.13369  0.10184  0.24869  1.0000
  H   H21       1.0  0.93370  0.96761  0.34222  1.0000
  C   C43       1.0  0.44596  0.24992  0.33006  1.0000
  C   C44       1.0  0.41048  0.23197  0.33707  1.0000
  C   C45       1.0  0.39194  0.19621  0.33862  1.0000
  C   C46       1.0  0.41015  0.17866  0.33531  1.0000
  C   C47       1.0  0.44565  0.19594  0.32853  1.0000
  C   C48       1.0  0.46302  0.23147  0.32691  1.0000
  C   C49       1.0  0.35581  0.17832  0.33975  1.0000
  C   C50       1.0  0.33728  0.18863  0.28539  1.0000
  C   C51       1.0  0.30183  0.17081  0.28489  1.0000
  C   C52       1.0  0.28345  0.14176  0.33829  1.0000
  C   C53       1.0  0.30180  0.13153  0.39338  1.0000
  C   C54       1.0  0.33729  0.14939  0.39380  1.0000
  C   C55       1.0  0.46500  0.28570  0.32464  1.0000
  C   C56       1.0  0.46409  0.30625  0.39386  1.0000
  C   C57       1.0  0.48749  0.34109  0.39562  1.0000
  C   C58       1.0  0.51199  0.35640  0.32748  1.0000
  C   C59       1.0  0.51195  0.33595  0.25664  1.0000
  C   C60       1.0  0.48876  0.30124  0.25503  1.0000
  C   C61       1.0  0.46452  0.17902  0.32247  1.0000
  C   C62       1.0  0.48858  0.18756  0.25349  1.0000
  C   C63       1.0  0.51213  0.17650  0.25604  1.0000
  C   C64       1.0  0.51232  0.15635  0.32743  1.0000
  C   C65       1.0  0.48708  0.14624  0.39384  1.0000
  C   C66       1.0  0.46343  0.15736  0.39136  1.0000
  H   H22       1.0  0.48743  0.35498  0.44912  1.0000
  H   H23       1.0  0.44805  0.29566  0.44686  1.0000
  H   H24       1.0  0.53019  0.34569  0.20833  1.0000
  H   H25       1.0  0.49055  0.28708  0.20469  1.0000
  H   H26       1.0  0.49047  0.20362  0.20333  1.0000
  H   H27       1.0  0.53050  0.18512  0.20801  1.0000
  H   H28       1.0  0.44705  0.15153  0.44372  1.0000
  H   H29       1.0  0.48678  0.13206  0.44704  1.0000
  H   H30       1.0  0.34950  0.14120  0.43514  1.0000
  H   H31       1.0  0.28944  0.11063  0.43301  1.0000
  H   H32       1.0  0.28952  0.17941  0.24529  1.0000
  H   H33       1.0  0.34945  0.20902  0.24400  1.0000
  H   H34       1.0  0.39803  0.24527  0.33971  1.0000
  H   H35       1.0  0.48884  0.24429  0.32426  1.0000
  H   H36       1.0  0.39740  0.15288  0.33367  1.0000
  C   C67       1.0  0.74188  0.19593  0.32992  1.0000
  C   C68       1.0  0.76012  0.17870  0.33737  1.0000
  C   C69       1.0  0.79584  0.19632  0.34235  1.0000
  C   C70       1.0  0.81300  0.23208  0.34195  1.0000
  C   C71       1.0  0.79543  0.24999  0.33450  1.0000
  C   C72       1.0  0.75996  0.23147  0.32952  1.0000
  C   C73       1.0  0.81411  0.17848  0.34407  1.0000
  C   C74       1.0  0.80359  0.14955  0.39816  1.0000
  C   C75       1.0  0.82122  0.13170  0.39822  1.0000
  C   C76       1.0  0.84988  0.14192  0.34345  1.0000
  C   C77       1.0  0.86066  0.17098  0.29000  1.0000
  C   C78       1.0  0.84306  0.18883  0.29015  1.0000
  C   C79       1.0  0.70613  0.17893  0.32216  1.0000
  C   C80       1.0  0.68519  0.15716  0.39034  1.0000
  C   C81       1.0  0.65039  0.14593  0.39110  1.0000
  C   C82       1.0  0.63549  0.15559  0.32292  1.0000
  C   C83       1.0  0.65635  0.17627  0.25299  1.0000
  C   C84       1.0  0.69103  0.18758  0.25234  1.0000
  C   C85       1.0  0.81209  0.28580  0.33093  1.0000
  C   C86       1.0  0.80426  0.30180  0.26170  1.0000
  C   C87       1.0  0.81543  0.33641  0.26533  1.0000
  C   C88       1.0  0.83488  0.35624  0.33828  1.0000
  C   C89       1.0  0.84421  0.34063  0.40522  1.0000
  C   C90       1.0  0.83304  0.30587  0.40153  1.0000
  H   H37       1.0  0.63621  0.13178  0.44399  1.0000
  H   H38       1.0  0.69546  0.15146  0.44360  1.0000
  H   H39       1.0  0.64695  0.18518  0.20483  1.0000
  H   H40       1.0  0.70552  0.20392  0.20302  1.0000
  H   H41       1.0  0.78877  0.28800  0.21018  1.0000
  H   H42       1.0  0.80732  0.34651  0.21693  1.0000
  H   H43       1.0  0.83843  0.29497  0.45389  1.0000
  H   H44       1.0  0.85794  0.35418  0.45939  1.0000
  H   H45       1.0  0.85137  0.20925  0.24881  1.0000
  H   H46       1.0  0.88162  0.17953  0.25058  1.0000
  H   H47       1.0  0.81261  0.11078  0.43782  1.0000
  H   H48       1.0  0.78308  0.14134  0.43913  1.0000
  H   H49       1.0  0.74717  0.15293  0.33486  1.0000
  H   H50       1.0  0.74691  0.24423  0.32657  1.0000
  H   H51       1.0  0.83874  0.24540  0.34586  1.0000
  C   C91       1.0  0.79528  0.54606  0.33267  1.0000
  C   C92       1.0  0.81277  0.58156  0.33916  1.0000
  C   C93       1.0  0.79556  0.60013  0.33933  1.0000
  C   C94       1.0  0.75980  0.58182  0.33555  1.0000
  C   C95       1.0  0.74162  0.54630  0.32990  1.0000
  C   C96       1.0  0.75979  0.52894  0.32919  1.0000
  C   C97       1.0  0.81373  0.63630  0.33985  1.0000
  C   C98       1.0  0.84352  0.65485  0.28882  1.0000
  C   C99       1.0  0.86108  0.69030  0.28782  1.0000
  C   C100      1.0  0.84933  0.70877  0.33680  1.0000
  C   C101      1.0  0.81975  0.69039  0.38843  1.0000
  C   C102      1.0  0.80234  0.65493  0.38991  1.0000
  C   C103      1.0  0.81207  0.52705  0.32825  1.0000
  C   C104      1.0  0.83314  0.52786  0.39840  1.0000
  C   C105      1.0  0.84454  0.50444  0.40099  1.0000
  C   C106      1.0  0.83567  0.47999  0.33284  1.0000
  C   C107      1.0  0.81560  0.48010  0.26115  1.0000
  C   C108      1.0  0.80413  0.50332  0.25870  1.0000
  C   C109      1.0  0.70583  0.52741  0.32452  1.0000
  C   C110      1.0  0.69013  0.50315  0.25612  1.0000
  C   C111      1.0  0.65551  0.47969  0.25932  1.0000
  C   C112      1.0  0.63541  0.47971  0.33105  1.0000
  C   C113      1.0  0.65075  0.50503  0.39715  1.0000
  C   C114      1.0  0.68550  0.52868  0.39380  1.0000
  H   H52       1.0  0.85826  0.50447  0.45499  1.0000
  H   H53       1.0  0.83844  0.54394  0.45122  1.0000
  H   H54       1.0  0.80723  0.46184  0.21291  1.0000
  H   H55       1.0  0.78835  0.50152  0.20786  1.0000
  H   H56       1.0  0.70415  0.50117  0.20567  1.0000
  H   H57       1.0  0.64558  0.46122  0.21156  1.0000
  H   H58       1.0  0.69621  0.54519  0.44582  1.0000
  H   H59       1.0  0.63701  0.50547  0.45054  1.0000
  H   H60       1.0  0.78128  0.64282  0.42902  1.0000
  H   H61       1.0  0.81034  0.70273  0.42490  1.0000
  H   H62       1.0  0.88277  0.70253  0.25111  1.0000
  H   H63       1.0  0.85256  0.64271  0.25017  1.0000
  H   H64       1.0  0.83851  0.59398  0.34240  1.0000
  H   H65       1.0  0.74682  0.50312  0.32715  1.0000
  H   H66       1.0  0.74669  0.59447  0.33292  1.0000
  C   C115      1.0  0.17524  0.08806  0.34318  1.0000
  C   C116      1.0  0.19416  0.10056  0.42324  1.0000
  C   C117      1.0  0.22981  0.11802  0.41934  1.0000
  H   H67       1.0  0.24305  0.12739  0.47751  1.0000
  N   N7        1.0  0.17730  0.09650  0.50569  1.0000
  O   O13       1.0  0.18425  0.08023  0.56101  1.0000
  O   O14       1.0  0.18463  0.12441  0.53974  1.0000
  C   C118      1.0  0.90431  0.08817  0.34891  1.0000
  C   C119      1.0  0.89818  0.10101  0.42877  1.0000
  C   C120      1.0  0.87996  0.11844  0.42473  1.0000
  H   H68       1.0  0.87630  0.12807  0.48272  1.0000
  N   N8        1.0  0.91133  0.09737  0.51111  1.0000
  O   O15       1.0  0.93204  0.12544  0.54408  1.0000
  O   O16       1.0  0.88834  0.08135  0.56723  1.0000
  C   C121      1.0  0.90345  0.81715  0.34092  1.0000
  C   C122      1.0  0.89367  0.79825  0.42160  1.0000
  C   C123      1.0  0.87593  0.76260  0.41780  1.0000
  H   H69       1.0  0.86948  0.74947  0.47675  1.0000
  N   N9        1.0  0.90057  0.81505  0.50511  1.0000
  O   O17       1.0  0.87394  0.80790  0.54644  1.0000
  O   O18       1.0  0.91843  0.80793  0.55408  1.0000
  C   C124      1.0  0.53982  0.15018  0.33533  1.0000
  C   C125      1.0  0.56251  0.16280  0.40866  1.0000
  C   C126      1.0  0.59292  0.16191  0.40515  1.0000
  H   H70       1.0  0.60989  0.17296  0.45615  1.0000
  N   N10       1.0  0.55583  0.17835  0.48158  1.0000
  O   O19       1.0  0.55416  0.16369  0.55403  1.0000
  O   O20       1.0  0.57779  0.20893  0.48886  1.0000
  C   C127      1.0  0.84119  0.38992  0.34673  1.0000
  C   C128      1.0  0.82773  0.39961  0.41890  1.0000
  C   C129      1.0  0.82872  0.43096  0.41534  1.0000
  H   H71       1.0  0.81697  0.43656  0.46516  1.0000
  N   N11       1.0  0.81128  0.37699  0.49052  1.0000
  O   O21       1.0  0.82508  0.38955  0.56415  1.0000
  O   O22       1.0  0.78065  0.36839  0.49520  1.0000
  C   C130      1.0  0.60178  0.45228  0.33969  1.0000
  C   C131      1.0  0.59208  0.42948  0.41270  1.0000
  C   C132      1.0  0.56082  0.39903  0.40959  1.0000
  H   H72       1.0  0.55523  0.38191  0.46003  1.0000
  N   N12       1.0  0.61464  0.43612  0.48478  1.0000
  O   O23       1.0  0.60193  0.43762  0.55789  1.0000
  O   O24       1.0  0.62337  0.41420  0.49090  1.0000
