data_image0
_chemical_formula_structural       C4HON2C2H2C2NH2C2H2C4HON2C2H2C2NH2C2H2C3HOCOHN2H2C2H2C2HC2NH2C3HOCOHN2H2C2H2C2HC2NH2C5HC3N4C4HC4NH3C4NH2C5HC3N4C4HC4NH3C4NH2C4OHC3OHCON4C2H3C2H2C4NH3C4NH3C4OHC3OHCON4C2H3C2H2C4NH3C4NH3C4HOC4OHC4HOC4OHC4HOC4OHN12C4H4C4H4C4H4C4NH3C4NH3C4NH3C4NH3C4NH3C4NH3C4HOC4OHC4HOC4OHC4HOC4OHN12C4H4C4H4C4H4C4NH3C4NH3C4NH3C4NH3C4NH3C4NH3
_chemical_formula_sum              "C240 H144 O24 N72"
_cell_length_a       46.482
_cell_length_b       46.482
_cell_length_c       14.815
_cell_angle_alpha    90
_cell_angle_beta     90
_cell_angle_gamma    120

_space_group_name_H-M_alt    "P 1"
_space_group_IT_number       1

loop_
  _space_group_symop_operation_xyz
  'x, y, z'

loop_
  _atom_site_type_symbol
  _atom_site_label
  _atom_site_symmetry_multiplicity
  _atom_site_fract_x
  _atom_site_fract_y
  _atom_site_fract_z
  _atom_site_occupancy
  C   C1        1.0  0.02745  0.26525  0.36138  1.0000
  C   C2        1.0  0.04678  0.30087  0.35914  1.0000
  C   C3        1.0  0.08163  0.31887  0.34636  1.0000
  C   C4        1.0  0.09866  0.30080  0.34218  1.0000
  H   H1        1.0  0.03571  0.31496  0.36196  1.0000
  O   O1        1.0  0.13265  0.31782  0.34343  1.0000
  N   N1        1.0  0.12139  0.25873  0.26953  1.0000
  N   N2        1.0  0.12222  0.36606  0.26908  1.0000
  C   C5        1.0  0.08169  0.26573  0.34813  1.0000
  C   C6        1.0  0.04672  0.24891  0.35848  1.0000
  H   H2        1.0  0.13906  0.32124  0.40754  1.0000
  H   H3        1.0  0.03558  0.22373  0.36041  1.0000
  C   C7        1.0  0.11076  0.23859  0.41966  1.0000
  C   C8        1.0  0.10066  0.24948  0.34198  1.0000
  N   N3        1.0  0.09409  0.23162  0.49936  1.0000
  H   H4        1.0  0.10162  0.22471  0.55206  1.0000
  H   H5        1.0  0.07340  0.23182  0.50528  1.0000
  C   C9        1.0  0.10048  0.35401  0.33911  1.0000
  C   C10       1.0  0.10941  0.37448  0.41658  1.0000
  H   H6        1.0  0.13537  0.41418  0.55271  1.0000
  H   H7        1.0  0.09585  0.36507  0.47448  1.0000
  C   C11       1.0  0.02745  0.76525  0.36138  1.0000
  C   C12       1.0  0.04678  0.80087  0.35914  1.0000
  C   C13       1.0  0.08163  0.81887  0.34636  1.0000
  C   C14       1.0  0.09866  0.80080  0.34218  1.0000
  H   H8        1.0  0.03572  0.81497  0.36196  1.0000
  O   O2        1.0  0.13265  0.81782  0.34343  1.0000
  N   N4        1.0  0.12139  0.75873  0.26953  1.0000
  N   N5        1.0  0.12222  0.86606  0.26908  1.0000
  C   C15       1.0  0.08169  0.76573  0.34813  1.0000
  C   C16       1.0  0.04672  0.74891  0.35848  1.0000
  H   H9        1.0  0.13906  0.82124  0.40754  1.0000
  H   H10       1.0  0.03558  0.72373  0.36041  1.0000
  C   C17       1.0  0.11076  0.73859  0.41966  1.0000
  C   C18       1.0  0.10066  0.74948  0.34198  1.0000
  N   N6        1.0  0.09409  0.73162  0.49936  1.0000
  H   H11       1.0  0.10162  0.72471  0.55206  1.0000
  H   H12       1.0  0.07340  0.73183  0.50528  1.0000
  C   C19       1.0  0.10048  0.85402  0.33911  1.0000
  C   C20       1.0  0.10941  0.87448  0.41658  1.0000
  H   H13       1.0  0.13537  0.91418  0.55271  1.0000
  H   H14       1.0  0.09584  0.86507  0.47448  1.0000
  C   C21       1.0  0.21467  0.24888  0.35864  1.0000
  C   C22       1.0  0.19665  0.26571  0.34599  1.0000
  C   C23       1.0  0.21468  0.30081  0.34196  1.0000
  H   H15       1.0  0.20060  0.22371  0.36084  1.0000
  O   O3        1.0  0.19757  0.31770  0.34310  1.0000
  C   C24       1.0  0.21478  0.41701  0.34345  1.0000
  O   O4        1.0  0.19786  0.38302  0.34517  1.0000
  H   H16       1.0  0.22690  0.03253  0.36110  1.0000
  N   N7        1.0  0.14947  0.25888  0.26769  1.0000
  N   N8        1.0  0.15012  0.39418  0.27099  1.0000
  H   H17       1.0  0.19425  0.32080  0.40719  1.0000
  H   H18       1.0  0.22687  0.19751  0.36092  1.0000
  C   C25       1.0  0.19665  0.43396  0.34906  1.0000
  C   C26       1.0  0.21478  0.46895  0.35907  1.0000
  H   H19       1.0  0.19488  0.37673  0.40936  1.0000
  H   H20       1.0  0.20071  0.48006  0.36111  1.0000
  C   C27       1.0  0.16152  0.24940  0.33808  1.0000
  C   C28       1.0  0.14118  0.23812  0.41585  1.0000
  H   H21       1.0  0.15063  0.23410  0.47388  1.0000
  C   C29       1.0  0.14028  0.40490  0.42057  1.0000
  C   C30       1.0  0.16140  0.41503  0.34324  1.0000
  N   N9        1.0  0.14987  0.42167  0.50013  1.0000
  H   H22       1.0  0.17076  0.44238  0.50605  1.0000
  H   H23       1.0  0.22812  0.13261  0.55251  1.0000
  C   C31       1.0  0.21467  0.74888  0.35864  1.0000
  C   C32       1.0  0.19665  0.76571  0.34599  1.0000
  C   C33       1.0  0.21468  0.80081  0.34196  1.0000
  H   H24       1.0  0.20060  0.72371  0.36084  1.0000
  O   O5        1.0  0.19757  0.81770  0.34310  1.0000
  C   C34       1.0  0.21478  0.91701  0.34345  1.0000
  O   O6        1.0  0.19786  0.88302  0.34517  1.0000
  H   H25       1.0  0.22690  0.53253  0.36110  1.0000
  N   N10       1.0  0.14947  0.75888  0.26769  1.0000
  N   N11       1.0  0.15012  0.89417  0.27099  1.0000
  H   H26       1.0  0.19425  0.82080  0.40719  1.0000
  H   H27       1.0  0.22687  0.69751  0.36092  1.0000
  C   C35       1.0  0.19665  0.93396  0.34906  1.0000
  C   C36       1.0  0.21478  0.96895  0.35907  1.0000
  H   H28       1.0  0.19487  0.87673  0.40936  1.0000
  H   H29       1.0  0.20071  0.98006  0.36111  1.0000
  C   C37       1.0  0.16152  0.74940  0.33808  1.0000
  C   C38       1.0  0.14118  0.73812  0.41585  1.0000
  H   H30       1.0  0.15063  0.73410  0.47388  1.0000
  C   C39       1.0  0.14028  0.90490  0.42057  1.0000
  C   C40       1.0  0.16140  0.91503  0.34324  1.0000
  N   N12       1.0  0.14987  0.92167  0.50013  1.0000
  H   H31       1.0  0.17076  0.94238  0.50605  1.0000
  H   H32       1.0  0.22812  0.63261  0.55251  1.0000
  C   C41       1.0  0.25029  0.26522  0.36121  1.0000
  C   C42       1.0  0.26836  0.24718  0.36121  1.0000
  C   C43       1.0  0.25039  0.48826  0.36152  1.0000
  C   C44       1.0  0.26672  0.46898  0.35907  1.0000
  C   C45       1.0  0.24989  0.43410  0.34703  1.0000
  H   H33       1.0  0.29190  0.48009  0.36122  1.0000
  C   C46       1.0  0.26841  0.02436  0.36137  1.0000
  C   C47       1.0  0.26889  0.07848  0.34616  1.0000
  C   C48       1.0  0.25207  0.04364  0.35882  1.0000
  N   N13       1.0  0.25662  0.36575  0.27053  1.0000
  N   N14       1.0  0.25654  0.39372  0.26900  1.0000
  N   N15       1.0  0.26180  0.14677  0.26962  1.0000
  N   N16       1.0  0.26197  0.11884  0.26783  1.0000
  C   C49       1.0  0.24975  0.31895  0.34829  1.0000
  C   C50       1.0  0.26659  0.30083  0.35873  1.0000
  C   C51       1.0  0.25204  0.21157  0.35866  1.0000
  C   C52       1.0  0.26887  0.19344  0.34814  1.0000
  H   H34       1.0  0.29176  0.31489  0.36119  1.0000
  C   C53       1.0  0.26622  0.41531  0.33936  1.0000
  C   C54       1.0  0.27764  0.40616  0.41667  1.0000
  C   C55       1.0  0.27703  0.37521  0.42020  1.0000
  C   C56       1.0  0.26597  0.35418  0.34259  1.0000
  N   N17       1.0  0.28410  0.36547  0.49968  1.0000
  H   H35       1.0  0.29100  0.37984  0.55251  1.0000
  H   H36       1.0  0.28365  0.34445  0.50562  1.0000
  H   H37       1.0  0.28168  0.41960  0.47476  1.0000
  C   C57       1.0  0.25258  0.09729  0.33818  1.0000
  C   C58       1.0  0.24138  0.10641  0.41606  1.0000
  C   C59       1.0  0.24182  0.13728  0.41999  1.0000
  C   C60       1.0  0.25259  0.15820  0.34221  1.0000
  N   N18       1.0  0.23495  0.14702  0.49976  1.0000
  H   H38       1.0  0.23514  0.16791  0.50568  1.0000
  H   H39       1.0  0.23742  0.09297  0.47411  1.0000
  C   C61       1.0  0.25029  0.76522  0.36121  1.0000
  C   C62       1.0  0.26836  0.74718  0.36121  1.0000
  C   C63       1.0  0.25039  0.98826  0.36152  1.0000
  C   C64       1.0  0.26672  0.96898  0.35907  1.0000
  C   C65       1.0  0.24989  0.93410  0.34703  1.0000
  H   H40       1.0  0.29190  0.98009  0.36122  1.0000
  C   C66       1.0  0.26841  0.52436  0.36137  1.0000
  C   C67       1.0  0.26889  0.57848  0.34616  1.0000
  C   C68       1.0  0.25207  0.54363  0.35882  1.0000
  N   N19       1.0  0.25662  0.86576  0.27053  1.0000
  N   N20       1.0  0.25654  0.89372  0.26900  1.0000
  N   N21       1.0  0.26180  0.64677  0.26962  1.0000
  N   N22       1.0  0.26197  0.61884  0.26783  1.0000
  C   C69       1.0  0.24975  0.81895  0.34829  1.0000
  C   C70       1.0  0.26659  0.80083  0.35873  1.0000
  C   C71       1.0  0.25204  0.71157  0.35866  1.0000
  C   C72       1.0  0.26887  0.69344  0.34814  1.0000
  H   H41       1.0  0.29176  0.81489  0.36119  1.0000
  C   C73       1.0  0.26623  0.91531  0.33936  1.0000
  C   C74       1.0  0.27764  0.90616  0.41667  1.0000
  C   C75       1.0  0.27702  0.87520  0.42020  1.0000
  C   C76       1.0  0.26597  0.85418  0.34259  1.0000
  N   N23       1.0  0.28410  0.86547  0.49968  1.0000
  H   H42       1.0  0.29100  0.87984  0.55251  1.0000
  H   H43       1.0  0.28365  0.84445  0.50562  1.0000
  H   H44       1.0  0.28168  0.91960  0.47476  1.0000
  C   C77       1.0  0.25258  0.59729  0.33818  1.0000
  C   C78       1.0  0.24138  0.60642  0.41606  1.0000
  C   C79       1.0  0.24182  0.63728  0.41999  1.0000
  C   C80       1.0  0.25259  0.65820  0.34221  1.0000
  N   N24       1.0  0.23495  0.64702  0.49976  1.0000
  H   H45       1.0  0.23514  0.66791  0.50568  1.0000
  H   H46       1.0  0.23742  0.59297  0.47411  1.0000
  C   C81       1.0  0.49135  0.24722  0.36148  1.0000
  C   C82       1.0  0.42012  0.21168  0.34283  1.0000
  C   C83       1.0  0.43715  0.19361  0.34674  1.0000
  C   C84       1.0  0.47202  0.21160  0.35918  1.0000
  O   O7        1.0  0.38613  0.19464  0.34429  1.0000
  H   H47       1.0  0.48309  0.19751  0.36153  1.0000
  C   C85       1.0  0.30394  0.21156  0.34192  1.0000
  C   C86       1.0  0.32199  0.24665  0.34614  1.0000
  C   C87       1.0  0.30398  0.26350  0.35870  1.0000
  O   O8        1.0  0.32098  0.19461  0.34290  1.0000
  H   H48       1.0  0.31805  0.28867  0.36115  1.0000
  C   C88       1.0  0.30398  0.09556  0.34200  1.0000
  O   O9        1.0  0.32086  0.12955  0.34309  1.0000
  N   N25       1.0  0.39743  0.25370  0.27033  1.0000
  N   N26       1.0  0.36930  0.25345  0.26823  1.0000
  N   N27       1.0  0.36881  0.11849  0.27015  1.0000
  N   N28       1.0  0.39675  0.14656  0.26858  1.0000
  C   C89       1.0  0.47208  0.26357  0.35882  1.0000
  C   C90       1.0  0.43711  0.24676  0.34866  1.0000
  H   H49       1.0  0.37978  0.19129  0.40844  1.0000
  H   H50       1.0  0.48323  0.28875  0.36083  1.0000
  H   H51       1.0  0.32442  0.19159  0.40697  1.0000
  C   C91       1.0  0.30403  0.04369  0.35879  1.0000
  C   C92       1.0  0.32214  0.07865  0.34830  1.0000
  H   H52       1.0  0.32398  0.13599  0.40717  1.0000
  H   H53       1.0  0.31810  0.03259  0.36115  1.0000
  C   C93       1.0  0.35711  0.26292  0.33830  1.0000
  C   C94       1.0  0.37743  0.27426  0.41613  1.0000
  C   C95       1.0  0.40786  0.27385  0.42022  1.0000
  C   C96       1.0  0.41819  0.26307  0.34279  1.0000
  N   N29       1.0  0.42448  0.28082  0.50001  1.0000
  H   H54       1.0  0.41688  0.28767  0.55267  1.0000
  H   H55       1.0  0.44520  0.28066  0.50602  1.0000
  H   H56       1.0  0.36793  0.27827  0.47407  1.0000
  C   C97       1.0  0.41831  0.15847  0.33898  1.0000
  C   C98       1.0  0.40930  0.13797  0.41642  1.0000
  C   C99       1.0  0.37836  0.10761  0.42009  1.0000
  C   C100      1.0  0.35739  0.09768  0.34242  1.0000
  N   N30       1.0  0.36866  0.09080  0.49958  1.0000
  H   H57       1.0  0.38305  0.09830  0.55237  1.0000
  H   H58       1.0  0.34766  0.07022  0.50553  1.0000
  H   H59       1.0  0.42277  0.14741  0.47444  1.0000
  C   C101      1.0  0.49135  0.74722  0.36148  1.0000
  C   C102      1.0  0.42013  0.71168  0.34283  1.0000
  C   C103      1.0  0.43716  0.69361  0.34674  1.0000
  C   C104      1.0  0.47202  0.71160  0.35918  1.0000
  O   O10       1.0  0.38613  0.69464  0.34429  1.0000
  H   H60       1.0  0.48309  0.69751  0.36153  1.0000
  C   C105      1.0  0.30394  0.71156  0.34192  1.0000
  C   C106      1.0  0.32198  0.74665  0.34614  1.0000
  C   C107      1.0  0.30398  0.76350  0.35870  1.0000
  O   O11       1.0  0.32098  0.69461  0.34290  1.0000
  H   H61       1.0  0.31805  0.78867  0.36115  1.0000
  C   C108      1.0  0.30398  0.59556  0.34200  1.0000
  O   O12       1.0  0.32086  0.62955  0.34309  1.0000
  N   N31       1.0  0.39743  0.75370  0.27033  1.0000
  N   N32       1.0  0.36930  0.75345  0.26823  1.0000
  N   N33       1.0  0.36881  0.61849  0.27015  1.0000
  N   N34       1.0  0.39675  0.64656  0.26858  1.0000
  C   C109      1.0  0.47208  0.76357  0.35882  1.0000
  C   C110      1.0  0.43711  0.74676  0.34866  1.0000
  H   H62       1.0  0.37978  0.69129  0.40844  1.0000
  H   H63       1.0  0.48323  0.78875  0.36083  1.0000
  H   H64       1.0  0.32442  0.69159  0.40697  1.0000
  C   C111      1.0  0.30403  0.54368  0.35879  1.0000
  C   C112      1.0  0.32214  0.57865  0.34830  1.0000
  H   H65       1.0  0.32398  0.63599  0.40717  1.0000
  H   H66       1.0  0.31810  0.53259  0.36115  1.0000
  C   C113      1.0  0.35711  0.76292  0.33830  1.0000
  C   C114      1.0  0.37743  0.77426  0.41613  1.0000
  C   C115      1.0  0.40786  0.77385  0.42022  1.0000
  C   C116      1.0  0.41819  0.76307  0.34279  1.0000
  N   N35       1.0  0.42448  0.78082  0.50001  1.0000
  H   H67       1.0  0.41688  0.78767  0.55267  1.0000
  H   H68       1.0  0.44520  0.78066  0.50602  1.0000
  H   H69       1.0  0.36793  0.77827  0.47407  1.0000
  C   C117      1.0  0.41831  0.65847  0.33898  1.0000
  C   C118      1.0  0.40929  0.63797  0.41642  1.0000
  C   C119      1.0  0.37836  0.60761  0.42009  1.0000
  C   C120      1.0  0.35739  0.59768  0.34242  1.0000
  N   N36       1.0  0.36866  0.59080  0.49958  1.0000
  H   H70       1.0  0.38305  0.59830  0.55237  1.0000
  H   H71       1.0  0.34765  0.57022  0.50553  1.0000
  H   H72       1.0  0.42276  0.64741  0.47444  1.0000
  C   C121      1.0  0.52745  0.26525  0.36138  1.0000
  C   C122      1.0  0.54678  0.30087  0.35914  1.0000
  C   C123      1.0  0.58163  0.31887  0.34636  1.0000
  C   C124      1.0  0.59866  0.30080  0.34218  1.0000
  H   H73       1.0  0.53572  0.31496  0.36196  1.0000
  O   O13       1.0  0.63266  0.31782  0.34343  1.0000
  C   C125      1.0  0.99135  0.24722  0.36148  1.0000
  C   C126      1.0  0.92012  0.21168  0.34283  1.0000
  C   C127      1.0  0.93715  0.19361  0.34674  1.0000
  C   C128      1.0  0.97202  0.21160  0.35918  1.0000
  O   O14       1.0  0.88613  0.19464  0.34429  1.0000
  H   H74       1.0  0.98310  0.19751  0.36153  1.0000
  C   C129      1.0  0.75029  0.26522  0.36121  1.0000
  C   C130      1.0  0.71467  0.24888  0.35864  1.0000
  C   C131      1.0  0.69665  0.26571  0.34599  1.0000
  C   C132      1.0  0.71468  0.30081  0.34196  1.0000
  H   H75       1.0  0.70060  0.22371  0.36084  1.0000
  O   O15       1.0  0.69757  0.31770  0.34310  1.0000
  C   C133      1.0  0.76836  0.24718  0.36121  1.0000
  C   C134      1.0  0.80393  0.21156  0.34192  1.0000
  C   C135      1.0  0.82198  0.24665  0.34614  1.0000
  C   C136      1.0  0.80397  0.26350  0.35870  1.0000
  O   O16       1.0  0.82098  0.19461  0.34290  1.0000
  H   H76       1.0  0.81805  0.28867  0.36115  1.0000
  C   C137      1.0  0.75039  0.48826  0.36152  1.0000
  C   C138      1.0  0.76672  0.46898  0.35907  1.0000
  C   C139      1.0  0.74989  0.43410  0.34703  1.0000
  C   C140      1.0  0.71478  0.41701  0.34345  1.0000
  H   H77       1.0  0.79190  0.48009  0.36122  1.0000
  O   O17       1.0  0.69786  0.38302  0.34517  1.0000
  C   C141      1.0  0.76841  0.02436  0.36137  1.0000
  C   C142      1.0  0.80398  0.09556  0.34200  1.0000
  C   C143      1.0  0.76889  0.07848  0.34616  1.0000
  C   C144      1.0  0.75207  0.04364  0.35882  1.0000
  O   O18       1.0  0.82086  0.12955  0.34309  1.0000
  H   H78       1.0  0.72690  0.03253  0.36110  1.0000
  N   N37       1.0  0.62138  0.25873  0.26953  1.0000
  N   N38       1.0  0.64947  0.25888  0.26769  1.0000
  N   N39       1.0  0.75662  0.36575  0.27053  1.0000
  N   N40       1.0  0.75654  0.39372  0.26900  1.0000
  N   N41       1.0  0.65012  0.39418  0.27099  1.0000
  N   N42       1.0  0.62222  0.36606  0.26908  1.0000
  N   N43       1.0  0.89743  0.25370  0.27033  1.0000
  N   N44       1.0  0.86930  0.25345  0.26823  1.0000
  N   N45       1.0  0.76180  0.14677  0.26962  1.0000
  N   N46       1.0  0.76197  0.11884  0.26783  1.0000
  N   N47       1.0  0.86881  0.11849  0.27015  1.0000
  N   N48       1.0  0.89675  0.14656  0.26858  1.0000
  C   C145      1.0  0.58169  0.26573  0.34813  1.0000
  C   C146      1.0  0.54672  0.24891  0.35848  1.0000
  C   C147      1.0  0.97208  0.26357  0.35882  1.0000
  C   C148      1.0  0.93711  0.24676  0.34866  1.0000
  H   H79       1.0  0.63906  0.32124  0.40754  1.0000
  H   H80       1.0  0.87979  0.19129  0.40844  1.0000
  H   H81       1.0  0.53558  0.22373  0.36041  1.0000
  H   H82       1.0  0.98323  0.28875  0.36083  1.0000
  C   C149      1.0  0.74975  0.31895  0.34829  1.0000
  C   C150      1.0  0.76659  0.30083  0.35873  1.0000
  C   C151      1.0  0.75204  0.21157  0.35866  1.0000
  C   C152      1.0  0.76887  0.19344  0.34814  1.0000
  H   H83       1.0  0.69425  0.32080  0.40719  1.0000
  H   H84       1.0  0.82442  0.19159  0.40697  1.0000
  H   H85       1.0  0.79176  0.31489  0.36119  1.0000
  H   H86       1.0  0.72687  0.19751  0.36092  1.0000
  C   C153      1.0  0.69665  0.43396  0.34906  1.0000
  C   C154      1.0  0.71478  0.46895  0.35907  1.0000
  C   C155      1.0  0.80403  0.04369  0.35879  1.0000
  C   C156      1.0  0.82214  0.07865  0.34830  1.0000
  H   H87       1.0  0.69487  0.37673  0.40936  1.0000
  H   H88       1.0  0.82398  0.13599  0.40717  1.0000
  H   H89       1.0  0.70071  0.48006  0.36111  1.0000
  H   H90       1.0  0.81810  0.03259  0.36115  1.0000
  C   C157      1.0  0.66152  0.24940  0.33808  1.0000
  C   C158      1.0  0.64118  0.23812  0.41585  1.0000
  C   C159      1.0  0.61077  0.23859  0.41966  1.0000
  C   C160      1.0  0.60066  0.24948  0.34198  1.0000
  N   N49       1.0  0.59409  0.23162  0.49936  1.0000
  H   H91       1.0  0.60162  0.22471  0.55206  1.0000
  H   H92       1.0  0.57340  0.23182  0.50528  1.0000
  H   H93       1.0  0.65063  0.23410  0.47388  1.0000
  C   C161      1.0  0.76623  0.41531  0.33936  1.0000
  C   C162      1.0  0.77764  0.40616  0.41667  1.0000
  C   C163      1.0  0.77702  0.37521  0.42020  1.0000
  C   C164      1.0  0.76597  0.35418  0.34259  1.0000
  N   N50       1.0  0.78410  0.36547  0.49968  1.0000
  H   H94       1.0  0.79100  0.37984  0.55251  1.0000
  H   H95       1.0  0.78365  0.34445  0.50562  1.0000
  H   H96       1.0  0.78168  0.41960  0.47476  1.0000
  C   C165      1.0  0.60048  0.35401  0.33911  1.0000
  C   C166      1.0  0.60941  0.37448  0.41658  1.0000
  C   C167      1.0  0.64028  0.40490  0.42057  1.0000
  C   C168      1.0  0.66140  0.41503  0.34324  1.0000
  N   N51       1.0  0.64987  0.42167  0.50013  1.0000
  H   H97       1.0  0.63537  0.41418  0.55271  1.0000
  H   H98       1.0  0.67076  0.44238  0.50605  1.0000
  H   H99       1.0  0.59585  0.36507  0.47448  1.0000
  C   C169      1.0  0.85711  0.26292  0.33830  1.0000
  C   C170      1.0  0.87743  0.27426  0.41613  1.0000
  C   C171      1.0  0.90786  0.27385  0.42022  1.0000
  C   C172      1.0  0.91819  0.26307  0.34279  1.0000
  N   N52       1.0  0.92448  0.28082  0.50001  1.0000
  H   H100      1.0  0.91688  0.28767  0.55267  1.0000
  H   H101      1.0  0.94520  0.28066  0.50602  1.0000
  H   H102      1.0  0.86793  0.27827  0.47407  1.0000
  C   C173      1.0  0.75258  0.09729  0.33818  1.0000
  C   C174      1.0  0.74138  0.10641  0.41606  1.0000
  C   C175      1.0  0.74182  0.13728  0.41999  1.0000
  C   C176      1.0  0.75259  0.15820  0.34221  1.0000
  N   N53       1.0  0.73495  0.14702  0.49976  1.0000
  H   H103      1.0  0.72812  0.13261  0.55251  1.0000
  H   H104      1.0  0.73515  0.16791  0.50568  1.0000
  H   H105      1.0  0.73742  0.09297  0.47411  1.0000
  C   C177      1.0  0.91831  0.15847  0.33898  1.0000
  C   C178      1.0  0.90929  0.13797  0.41642  1.0000
  C   C179      1.0  0.87836  0.10761  0.42009  1.0000
  C   C180      1.0  0.85739  0.09768  0.34242  1.0000
  N   N54       1.0  0.86866  0.09080  0.49958  1.0000
  H   H106      1.0  0.88305  0.09830  0.55237  1.0000
  H   H107      1.0  0.84766  0.07022  0.50553  1.0000
  H   H108      1.0  0.92276  0.14741  0.47444  1.0000
  C   C181      1.0  0.52745  0.76525  0.36138  1.0000
  C   C182      1.0  0.54678  0.80087  0.35914  1.0000
  C   C183      1.0  0.58163  0.81887  0.34636  1.0000
  C   C184      1.0  0.59866  0.80080  0.34218  1.0000
  H   H109      1.0  0.53572  0.81497  0.36196  1.0000
  O   O19       1.0  0.63265  0.81782  0.34343  1.0000
  C   C185      1.0  0.99135  0.74722  0.36148  1.0000
  C   C186      1.0  0.92013  0.71168  0.34283  1.0000
  C   C187      1.0  0.93715  0.69361  0.34674  1.0000
  C   C188      1.0  0.97202  0.71160  0.35918  1.0000
  O   O20       1.0  0.88613  0.69464  0.34429  1.0000
  H   H110      1.0  0.98310  0.69751  0.36153  1.0000
  C   C189      1.0  0.75029  0.76522  0.36121  1.0000
  C   C190      1.0  0.71467  0.74888  0.35864  1.0000
  C   C191      1.0  0.69665  0.76571  0.34599  1.0000
  C   C192      1.0  0.71468  0.80081  0.34196  1.0000
  H   H111      1.0  0.70060  0.72371  0.36084  1.0000
  O   O21       1.0  0.69757  0.81770  0.34310  1.0000
  C   C193      1.0  0.76836  0.74718  0.36121  1.0000
  C   C194      1.0  0.80394  0.71156  0.34192  1.0000
  C   C195      1.0  0.82198  0.74665  0.34614  1.0000
  C   C196      1.0  0.80397  0.76350  0.35870  1.0000
  O   O22       1.0  0.82098  0.69461  0.34290  1.0000
  H   H112      1.0  0.81805  0.78867  0.36115  1.0000
  C   C197      1.0  0.75039  0.98826  0.36152  1.0000
  C   C198      1.0  0.76672  0.96898  0.35907  1.0000
  C   C199      1.0  0.74989  0.93410  0.34703  1.0000
  C   C200      1.0  0.71478  0.91701  0.34345  1.0000
  H   H113      1.0  0.79190  0.98009  0.36122  1.0000
  O   O23       1.0  0.69786  0.88302  0.34517  1.0000
  C   C201      1.0  0.76841  0.52436  0.36137  1.0000
  C   C202      1.0  0.80398  0.59556  0.34200  1.0000
  C   C203      1.0  0.76889  0.57848  0.34616  1.0000
  C   C204      1.0  0.75207  0.54363  0.35882  1.0000
  O   O24       1.0  0.82086  0.62955  0.34309  1.0000
  H   H114      1.0  0.72690  0.53253  0.36110  1.0000
  N   N55       1.0  0.62138  0.75873  0.26953  1.0000
  N   N56       1.0  0.64947  0.75888  0.26769  1.0000
  N   N57       1.0  0.75662  0.86576  0.27053  1.0000
  N   N58       1.0  0.75654  0.89372  0.26900  1.0000
  N   N59       1.0  0.65012  0.89417  0.27099  1.0000
  N   N60       1.0  0.62222  0.86606  0.26908  1.0000
  N   N61       1.0  0.89743  0.75370  0.27033  1.0000
  N   N62       1.0  0.86930  0.75345  0.26823  1.0000
  N   N63       1.0  0.76180  0.64677  0.26962  1.0000
  N   N64       1.0  0.76197  0.61884  0.26783  1.0000
  N   N65       1.0  0.86881  0.61849  0.27015  1.0000
  N   N66       1.0  0.89675  0.64656  0.26858  1.0000
  C   C205      1.0  0.58169  0.76573  0.34813  1.0000
  C   C206      1.0  0.54672  0.74891  0.35848  1.0000
  C   C207      1.0  0.97208  0.76357  0.35882  1.0000
  C   C208      1.0  0.93711  0.74676  0.34866  1.0000
  H   H115      1.0  0.63906  0.82124  0.40754  1.0000
  H   H116      1.0  0.87979  0.69129  0.40844  1.0000
  H   H117      1.0  0.53558  0.72373  0.36041  1.0000
  H   H118      1.0  0.98323  0.78875  0.36083  1.0000
  C   C209      1.0  0.74975  0.81895  0.34829  1.0000
  C   C210      1.0  0.76659  0.80083  0.35873  1.0000
  C   C211      1.0  0.75203  0.71157  0.35866  1.0000
  C   C212      1.0  0.76887  0.69344  0.34814  1.0000
  H   H119      1.0  0.69425  0.82080  0.40719  1.0000
  H   H120      1.0  0.82442  0.69159  0.40697  1.0000
  H   H121      1.0  0.79176  0.81489  0.36119  1.0000
  H   H122      1.0  0.72687  0.69751  0.36092  1.0000
  C   C213      1.0  0.69665  0.93396  0.34906  1.0000
  C   C214      1.0  0.71478  0.96895  0.35907  1.0000
  C   C215      1.0  0.80403  0.54368  0.35879  1.0000
  C   C216      1.0  0.82214  0.57865  0.34830  1.0000
  H   H123      1.0  0.69487  0.87673  0.40936  1.0000
  H   H124      1.0  0.82398  0.63599  0.40717  1.0000
  H   H125      1.0  0.70071  0.98006  0.36111  1.0000
  H   H126      1.0  0.81810  0.53259  0.36115  1.0000
  C   C217      1.0  0.66152  0.74940  0.33808  1.0000
  C   C218      1.0  0.64118  0.73812  0.41585  1.0000
  C   C219      1.0  0.61076  0.73859  0.41966  1.0000
  C   C220      1.0  0.60066  0.74948  0.34198  1.0000
  N   N67       1.0  0.59409  0.73162  0.49936  1.0000
  H   H127      1.0  0.60162  0.72471  0.55206  1.0000
  H   H128      1.0  0.57340  0.73183  0.50528  1.0000
  H   H129      1.0  0.65063  0.73410  0.47388  1.0000
  C   C221      1.0  0.76623  0.91531  0.33936  1.0000
  C   C222      1.0  0.77764  0.90616  0.41667  1.0000
  C   C223      1.0  0.77702  0.87520  0.42020  1.0000
  C   C224      1.0  0.76597  0.85418  0.34259  1.0000
  N   N68       1.0  0.78410  0.86547  0.49968  1.0000
  H   H130      1.0  0.79100  0.87984  0.55251  1.0000
  H   H131      1.0  0.78365  0.84445  0.50562  1.0000
  H   H132      1.0  0.78168  0.91960  0.47476  1.0000
  C   C225      1.0  0.60048  0.85402  0.33911  1.0000
  C   C226      1.0  0.60941  0.87448  0.41658  1.0000
  C   C227      1.0  0.64028  0.90490  0.42057  1.0000
  C   C228      1.0  0.66140  0.91503  0.34324  1.0000
  N   N69       1.0  0.64987  0.92167  0.50013  1.0000
  H   H133      1.0  0.63537  0.91418  0.55271  1.0000
  H   H134      1.0  0.67076  0.94238  0.50605  1.0000
  H   H135      1.0  0.59585  0.86507  0.47448  1.0000
  C   C229      1.0  0.85711  0.76292  0.33830  1.0000
  C   C230      1.0  0.87743  0.77426  0.41613  1.0000
  C   C231      1.0  0.90786  0.77385  0.42022  1.0000
  C   C232      1.0  0.91819  0.76307  0.34279  1.0000
  N   N70       1.0  0.92448  0.78082  0.50001  1.0000
  H   H136      1.0  0.91688  0.78767  0.55267  1.0000
  H   H137      1.0  0.94520  0.78066  0.50602  1.0000
  H   H138      1.0  0.86793  0.77827  0.47407  1.0000
  C   C233      1.0  0.75258  0.59729  0.33818  1.0000
  C   C234      1.0  0.74138  0.60642  0.41606  1.0000
  C   C235      1.0  0.74182  0.63728  0.41999  1.0000
  C   C236      1.0  0.75259  0.65820  0.34221  1.0000
  N   N71       1.0  0.73495  0.64702  0.49976  1.0000
  H   H139      1.0  0.72812  0.63261  0.55251  1.0000
  H   H140      1.0  0.73515  0.66791  0.50568  1.0000
  H   H141      1.0  0.73742  0.59297  0.47411  1.0000
  C   C237      1.0  0.91831  0.65847  0.33898  1.0000
  C   C238      1.0  0.90929  0.63797  0.41642  1.0000
  C   C239      1.0  0.87836  0.60761  0.42009  1.0000
  C   C240      1.0  0.85739  0.59768  0.34242  1.0000
  N   N72       1.0  0.86866  0.59080  0.49958  1.0000
  H   H142      1.0  0.88305  0.59830  0.55237  1.0000
  H   H143      1.0  0.84766  0.57022  0.50553  1.0000
  H   H144      1.0  0.92276  0.64741  0.47444  1.0000
