data_image0
_chemical_formula_structural       C5H2NHC3H2NHC3H2NHNCNCNC3O3NCNCNC3O3C3NC2NHOHNHC3NC2NHOHNHC3NC2NHOHNHC5H2NHC3H2NHC3H2NHNCNCNC3O3NCNCNC3O3C3NC2NHOHNHC3NC2NHOHNHC3NC2NHOHNHC5H2NHC3H2NHC3H2NHNCNCNC3O3NCNCNC3O3C3NC2NHOHNHC3NC2NHOHNHC3NC2NHOHNHC5H2NHC3H2NHC3H2NHNCNCNC3O3NCNCNC3O3C3NC2NHOHNHC3NC2NHOHNHC3NC2NHOHNH
_chemical_formula_sum              "C144 H72 N72 O36"
_cell_length_a       43.4772
_cell_length_b       43.4772
_cell_length_c       15.0401
_cell_angle_alpha    90
_cell_angle_beta     90
_cell_angle_gamma    120

_space_group_name_H-M_alt    "P 1"
_space_group_IT_number       1

loop_
  _space_group_symop_operation_xyz
  'x, y, z'

loop_
  _atom_site_type_symbol
  _atom_site_label
  _atom_site_symmetry_multiplicity
  _atom_site_fract_x
  _atom_site_fract_y
  _atom_site_fract_z
  _atom_site_occupancy
  C   C1        1.0  0.13051  0.32592  0.39429  1.0000
  C   C2        1.0  0.36743  0.17952  0.25746  1.0000
  C   C3        1.0  0.25273  0.21566  0.31767  1.0000
  C   C4        1.0  0.21949  0.20930  0.28596  1.0000
  C   C5        1.0  0.20428  0.22913  0.31710  1.0000
  H   H1        1.0  0.18285  0.22664  0.28308  1.0000
  H   H2        1.0  0.20774  0.19260  0.23321  1.0000
  N   N1        1.0  0.26774  0.19774  0.27941  1.0000
  H   H3        1.0  0.25181  0.17526  0.25006  1.0000
  C   C6        1.0  0.28107  0.03643  0.31783  1.0000
  C   C7        1.0  0.28741  0.00954  0.28604  1.0000
  C   C8        1.0  0.26748  0.47449  0.31693  1.0000
  H   H4        1.0  0.27001  0.45553  0.28305  1.0000
  H   H5        1.0  0.30409  0.01452  0.23322  1.0000
  N   N2        1.0  0.29896  0.06935  0.27959  1.0000
  H   H6        1.0  0.32145  0.07591  0.25027  1.0000
  C   C9        1.0  0.46025  0.24392  0.31767  1.0000
  C   C10       1.0  0.48714  0.27714  0.28588  1.0000
  C   C11       1.0  0.02218  0.29235  0.31700  1.0000
  H   H7        1.0  0.04115  0.31375  0.28294  1.0000
  H   H8        1.0  0.48219  0.28887  0.23308  1.0000
  N   N3        1.0  0.42732  0.22892  0.27945  1.0000
  H   H9        1.0  0.42078  0.24484  0.24999  1.0000
  N   N4        1.0  0.15868  0.35948  0.39377  1.0000
  C   C12       1.0  0.19273  0.36614  0.39420  1.0000
  N   N5        1.0  0.19812  0.33797  0.39374  1.0000
  C   C13       1.0  0.17073  0.30391  0.39427  1.0000
  N   N6        1.0  0.13717  0.29853  0.39383  1.0000
  C   C14       1.0  0.22165  0.40107  0.39060  1.0000
  C   C15       1.0  0.17674  0.27499  0.39071  1.0000
  C   C16       1.0  0.09558  0.31991  0.39077  1.0000
  O   O1        1.0  0.14784  0.24207  0.38435  1.0000
  O   O2        1.0  0.09153  0.34879  0.38423  1.0000
  O   O3        1.0  0.25458  0.40510  0.38422  1.0000
  N   N7        1.0  0.34524  0.14380  0.25850  1.0000
  C   C17       1.0  0.30939  0.12923  0.25756  1.0000
  N   N8        1.0  0.29587  0.15142  0.25844  1.0000
  C   C18       1.0  0.31715  0.18725  0.25742  1.0000
  N   N9        1.0  0.35286  0.20079  0.25837  1.0000
  C   C19       1.0  0.28681  0.09267  0.27103  1.0000
  C   C20       1.0  0.30320  0.20988  0.27082  1.0000
  C   C21       1.0  0.40398  0.19345  0.27092  1.0000
  O   O4        1.0  0.32673  0.24521  0.27638  1.0000
  O   O5        1.0  0.41577  0.16991  0.27662  1.0000
  O   O6        1.0  0.25147  0.08085  0.27664  1.0000
  C   C22       1.0  0.22088  0.25527  0.38413  1.0000
  C   C23       1.0  0.25193  0.25855  0.42550  1.0000
  C   C24       1.0  0.26745  0.23875  0.39179  1.0000
  N   N10       1.0  0.29534  0.24042  0.43702  1.0000
  C   C25       1.0  0.30998  0.26042  0.51034  1.0000
  C   C26       1.0  0.29512  0.28018  0.54348  1.0000
  N   N11       1.0  0.26677  0.27857  0.50074  1.0000
  H   H10       1.0  0.33083  0.26035  0.54138  1.0000
  O   O7        1.0  0.30818  0.29944  0.61880  1.0000
  H   H11       1.0  0.25609  0.29106  0.52895  1.0000
  N   N12       1.0  0.20966  0.27895  0.40211  1.0000
  H   H12       1.0  0.22783  0.30208  0.42362  1.0000
  C   C27       1.0  0.24139  0.46494  0.38408  1.0000
  C   C28       1.0  0.23814  0.49271  0.42556  1.0000
  C   C29       1.0  0.25796  0.02804  0.39193  1.0000
  N   N13       1.0  0.25632  0.05426  0.43725  1.0000
  C   C30       1.0  0.23634  0.04888  0.51061  1.0000
  C   C31       1.0  0.21655  0.51424  0.54367  1.0000
  N   N14       1.0  0.21812  0.48751  0.50080  1.0000
  H   H13       1.0  0.23641  0.06980  0.54170  1.0000
  O   O8        1.0  0.19732  0.50804  0.61904  1.0000
  H   H14       1.0  0.20565  0.46433  0.52903  1.0000
  N   N15       1.0  0.21770  0.43003  0.40207  1.0000
  H   H15       1.0  0.19458  0.42508  0.42364  1.0000
  C   C32       1.0  0.03171  0.27576  0.38406  1.0000
  C   C33       1.0  0.00394  0.24474  0.42556  1.0000
  C   C34       1.0  0.46861  0.22923  0.39185  1.0000
  N   N16       1.0  0.44238  0.20138  0.43719  1.0000
  C   C35       1.0  0.44775  0.18677  0.51056  1.0000
  C   C36       1.0  0.98238  0.20164  0.54370  1.0000
  N   N17       1.0  0.00912  0.22992  0.50082  1.0000
  H   H16       1.0  0.42682  0.16598  0.54174  1.0000
  O   O9        1.0  0.98856  0.18863  0.61914  1.0000
  H   H17       1.0  0.03229  0.24064  0.52909  1.0000
  N   N18       1.0  0.06661  0.28699  0.40211  1.0000
  H   H18       1.0  0.07157  0.26882  0.42368  1.0000
  C   C37       1.0  0.13051  0.82592  0.39429  1.0000
  C   C38       1.0  0.36743  0.67952  0.25746  1.0000
  C   C39       1.0  0.25273  0.71566  0.31767  1.0000
  C   C40       1.0  0.21950  0.70930  0.28596  1.0000
  C   C41       1.0  0.20428  0.72913  0.31710  1.0000
  H   H19       1.0  0.18285  0.72664  0.28308  1.0000
  H   H20       1.0  0.20774  0.69260  0.23321  1.0000
  N   N19       1.0  0.26774  0.69774  0.27941  1.0000
  H   H21       1.0  0.25181  0.67526  0.25006  1.0000
  C   C42       1.0  0.28107  0.53643  0.31783  1.0000
  C   C43       1.0  0.28741  0.50955  0.28604  1.0000
  C   C44       1.0  0.26748  0.97449  0.31693  1.0000
  H   H22       1.0  0.27001  0.95553  0.28305  1.0000
  H   H23       1.0  0.30409  0.51452  0.23322  1.0000
  N   N20       1.0  0.29896  0.56935  0.27959  1.0000
  H   H24       1.0  0.32145  0.57591  0.25027  1.0000
  C   C45       1.0  0.46025  0.74392  0.31767  1.0000
  C   C46       1.0  0.48714  0.77714  0.28588  1.0000
  C   C47       1.0  0.02218  0.79235  0.31700  1.0000
  H   H25       1.0  0.04115  0.81375  0.28294  1.0000
  H   H26       1.0  0.48219  0.78887  0.23308  1.0000
  N   N21       1.0  0.42732  0.72892  0.27945  1.0000
  H   H27       1.0  0.42078  0.74484  0.24999  1.0000
  N   N22       1.0  0.15868  0.85948  0.39377  1.0000
  C   C48       1.0  0.19273  0.86614  0.39420  1.0000
  N   N23       1.0  0.19812  0.83797  0.39374  1.0000
  C   C49       1.0  0.17073  0.80391  0.39427  1.0000
  N   N24       1.0  0.13717  0.79853  0.39383  1.0000
  C   C50       1.0  0.22165  0.90107  0.39060  1.0000
  C   C51       1.0  0.17674  0.77500  0.39071  1.0000
  C   C52       1.0  0.09558  0.81991  0.39077  1.0000
  O   O10       1.0  0.14784  0.74206  0.38435  1.0000
  O   O11       1.0  0.09153  0.84879  0.38423  1.0000
  O   O12       1.0  0.25458  0.90510  0.38422  1.0000
  N   N25       1.0  0.34524  0.64380  0.25850  1.0000
  C   C53       1.0  0.30939  0.62923  0.25756  1.0000
  N   N26       1.0  0.29587  0.65142  0.25844  1.0000
  C   C54       1.0  0.31715  0.68725  0.25742  1.0000
  N   N27       1.0  0.35286  0.70079  0.25837  1.0000
  C   C55       1.0  0.28681  0.59267  0.27103  1.0000
  C   C56       1.0  0.30320  0.70988  0.27082  1.0000
  C   C57       1.0  0.40398  0.69345  0.27092  1.0000
  O   O13       1.0  0.32674  0.74521  0.27638  1.0000
  O   O14       1.0  0.41577  0.66991  0.27662  1.0000
  O   O15       1.0  0.25147  0.58085  0.27664  1.0000
  C   C58       1.0  0.22088  0.75526  0.38413  1.0000
  C   C59       1.0  0.25193  0.75855  0.42550  1.0000
  C   C60       1.0  0.26745  0.73875  0.39179  1.0000
  N   N28       1.0  0.29534  0.74042  0.43702  1.0000
  C   C61       1.0  0.30998  0.76042  0.51034  1.0000
  C   C62       1.0  0.29512  0.78018  0.54348  1.0000
  N   N29       1.0  0.26677  0.77857  0.50074  1.0000
  H   H28       1.0  0.33083  0.76035  0.54138  1.0000
  O   O16       1.0  0.30818  0.79944  0.61880  1.0000
  H   H29       1.0  0.25609  0.79106  0.52895  1.0000
  N   N30       1.0  0.20966  0.77895  0.40211  1.0000
  H   H30       1.0  0.22783  0.80209  0.42362  1.0000
  C   C63       1.0  0.24139  0.96494  0.38408  1.0000
  C   C64       1.0  0.23814  0.99271  0.42556  1.0000
  C   C65       1.0  0.25796  0.52804  0.39193  1.0000
  N   N31       1.0  0.25632  0.55426  0.43725  1.0000
  C   C66       1.0  0.23634  0.54888  0.51061  1.0000
  C   C67       1.0  0.21655  0.01424  0.54367  1.0000
  N   N32       1.0  0.21812  0.98752  0.50080  1.0000
  H   H31       1.0  0.23641  0.56980  0.54170  1.0000
  O   O17       1.0  0.19732  0.00805  0.61904  1.0000
  H   H32       1.0  0.20565  0.96434  0.52903  1.0000
  N   N33       1.0  0.21770  0.93003  0.40207  1.0000
  H   H33       1.0  0.19458  0.92508  0.42364  1.0000
  C   C68       1.0  0.03171  0.77576  0.38406  1.0000
  C   C69       1.0  0.00394  0.74474  0.42556  1.0000
  C   C70       1.0  0.46862  0.72923  0.39185  1.0000
  N   N34       1.0  0.44238  0.70138  0.43719  1.0000
  C   C71       1.0  0.44775  0.68677  0.51056  1.0000
  C   C72       1.0  0.98238  0.70164  0.54370  1.0000
  N   N35       1.0  0.00912  0.72992  0.50082  1.0000
  H   H34       1.0  0.42682  0.66598  0.54174  1.0000
  O   O18       1.0  0.98856  0.68863  0.61914  1.0000
  H   H35       1.0  0.03229  0.74064  0.52909  1.0000
  N   N36       1.0  0.06661  0.78699  0.40211  1.0000
  H   H36       1.0  0.07157  0.76882  0.42368  1.0000
  C   C73       1.0  0.63051  0.32592  0.39429  1.0000
  C   C74       1.0  0.86743  0.17952  0.25746  1.0000
  C   C75       1.0  0.75273  0.21566  0.31767  1.0000
  C   C76       1.0  0.71950  0.20930  0.28596  1.0000
  C   C77       1.0  0.70428  0.22913  0.31710  1.0000
  H   H37       1.0  0.68285  0.22664  0.28308  1.0000
  H   H38       1.0  0.70774  0.19260  0.23321  1.0000
  N   N37       1.0  0.76774  0.19774  0.27941  1.0000
  H   H39       1.0  0.75181  0.17526  0.25006  1.0000
  C   C78       1.0  0.78107  0.03643  0.31783  1.0000
  C   C79       1.0  0.78741  0.00954  0.28604  1.0000
  C   C80       1.0  0.76748  0.47449  0.31693  1.0000
  H   H40       1.0  0.77001  0.45553  0.28305  1.0000
  H   H41       1.0  0.80409  0.01452  0.23322  1.0000
  N   N38       1.0  0.79896  0.06935  0.27959  1.0000
  H   H42       1.0  0.82145  0.07591  0.25027  1.0000
  C   C81       1.0  0.96025  0.24392  0.31767  1.0000
  C   C82       1.0  0.98714  0.27714  0.28588  1.0000
  C   C83       1.0  0.52218  0.29235  0.31700  1.0000
  H   H43       1.0  0.54115  0.31375  0.28294  1.0000
  H   H44       1.0  0.98219  0.28887  0.23308  1.0000
  N   N39       1.0  0.92732  0.22892  0.27945  1.0000
  H   H45       1.0  0.92078  0.24484  0.24999  1.0000
  N   N40       1.0  0.65868  0.35948  0.39377  1.0000
  C   C84       1.0  0.69273  0.36614  0.39420  1.0000
  N   N41       1.0  0.69812  0.33797  0.39374  1.0000
  C   C85       1.0  0.67073  0.30391  0.39427  1.0000
  N   N42       1.0  0.63717  0.29853  0.39383  1.0000
  C   C86       1.0  0.72165  0.40107  0.39060  1.0000
  C   C87       1.0  0.67674  0.27499  0.39071  1.0000
  C   C88       1.0  0.59558  0.31991  0.39077  1.0000
  O   O19       1.0  0.64784  0.24207  0.38435  1.0000
  O   O20       1.0  0.59153  0.34879  0.38423  1.0000
  O   O21       1.0  0.75458  0.40510  0.38422  1.0000
  N   N43       1.0  0.84524  0.14380  0.25850  1.0000
  C   C89       1.0  0.80939  0.12923  0.25756  1.0000
  N   N44       1.0  0.79587  0.15142  0.25844  1.0000
  C   C90       1.0  0.81714  0.18725  0.25742  1.0000
  N   N45       1.0  0.85286  0.20079  0.25837  1.0000
  C   C91       1.0  0.78681  0.09267  0.27103  1.0000
  C   C92       1.0  0.80320  0.20988  0.27082  1.0000
  C   C93       1.0  0.90398  0.19345  0.27092  1.0000
  O   O22       1.0  0.82674  0.24521  0.27638  1.0000
  O   O23       1.0  0.91577  0.16991  0.27662  1.0000
  O   O24       1.0  0.75147  0.08085  0.27664  1.0000
  C   C94       1.0  0.72088  0.25527  0.38413  1.0000
  C   C95       1.0  0.75193  0.25855  0.42550  1.0000
  C   C96       1.0  0.76745  0.23875  0.39179  1.0000
  N   N46       1.0  0.79534  0.24042  0.43702  1.0000
  C   C97       1.0  0.80998  0.26042  0.51034  1.0000
  C   C98       1.0  0.79511  0.28018  0.54348  1.0000
  N   N47       1.0  0.76678  0.27857  0.50074  1.0000
  H   H46       1.0  0.83083  0.26035  0.54138  1.0000
  O   O25       1.0  0.80819  0.29944  0.61880  1.0000
  H   H47       1.0  0.75609  0.29106  0.52895  1.0000
  N   N48       1.0  0.70966  0.27895  0.40211  1.0000
  H   H48       1.0  0.72783  0.30208  0.42362  1.0000
  C   C99       1.0  0.74139  0.46494  0.38408  1.0000
  C   C100      1.0  0.73814  0.49271  0.42556  1.0000
  C   C101      1.0  0.75796  0.02804  0.39193  1.0000
  N   N49       1.0  0.75632  0.05426  0.43725  1.0000
  C   C102      1.0  0.73634  0.04888  0.51061  1.0000
  C   C103      1.0  0.71655  0.51424  0.54367  1.0000
  N   N50       1.0  0.71812  0.48751  0.50080  1.0000
  H   H49       1.0  0.73641  0.06980  0.54170  1.0000
  O   O26       1.0  0.69732  0.50804  0.61904  1.0000
  H   H50       1.0  0.70566  0.46433  0.52903  1.0000
  N   N51       1.0  0.71770  0.43003  0.40207  1.0000
  H   H51       1.0  0.69458  0.42508  0.42364  1.0000
  C   C104      1.0  0.53171  0.27576  0.38406  1.0000
  C   C105      1.0  0.50394  0.24474  0.42556  1.0000
  C   C106      1.0  0.96862  0.22923  0.39185  1.0000
  N   N52       1.0  0.94238  0.20138  0.43719  1.0000
  C   C107      1.0  0.94775  0.18677  0.51056  1.0000
  C   C108      1.0  0.48238  0.20164  0.54370  1.0000
  N   N53       1.0  0.50912  0.22992  0.50082  1.0000
  H   H52       1.0  0.92682  0.16598  0.54174  1.0000
  O   O27       1.0  0.48856  0.18863  0.61914  1.0000
  H   H53       1.0  0.53229  0.24064  0.52909  1.0000
  N   N54       1.0  0.56661  0.28699  0.40211  1.0000
  H   H54       1.0  0.57157  0.26882  0.42368  1.0000
  C   C109      1.0  0.63051  0.82592  0.39429  1.0000
  C   C110      1.0  0.86743  0.67952  0.25746  1.0000
  C   C111      1.0  0.75273  0.71566  0.31767  1.0000
  C   C112      1.0  0.71950  0.70930  0.28596  1.0000
  C   C113      1.0  0.70428  0.72913  0.31710  1.0000
  H   H55       1.0  0.68285  0.72664  0.28308  1.0000
  H   H56       1.0  0.70774  0.69260  0.23321  1.0000
  N   N55       1.0  0.76774  0.69774  0.27941  1.0000
  H   H57       1.0  0.75181  0.67526  0.25006  1.0000
  C   C114      1.0  0.78107  0.53643  0.31783  1.0000
  C   C115      1.0  0.78741  0.50955  0.28604  1.0000
  C   C116      1.0  0.76748  0.97449  0.31693  1.0000
  H   H58       1.0  0.77001  0.95553  0.28305  1.0000
  H   H59       1.0  0.80409  0.51452  0.23322  1.0000
  N   N56       1.0  0.79896  0.56935  0.27959  1.0000
  H   H60       1.0  0.82145  0.57591  0.25027  1.0000
  C   C117      1.0  0.96025  0.74392  0.31767  1.0000
  C   C118      1.0  0.98714  0.77714  0.28588  1.0000
  C   C119      1.0  0.52218  0.79235  0.31700  1.0000
  H   H61       1.0  0.54115  0.81375  0.28294  1.0000
  H   H62       1.0  0.98219  0.78887  0.23308  1.0000
  N   N57       1.0  0.92732  0.72892  0.27945  1.0000
  H   H63       1.0  0.92078  0.74484  0.24999  1.0000
  N   N58       1.0  0.65868  0.85948  0.39377  1.0000
  C   C120      1.0  0.69273  0.86614  0.39420  1.0000
  N   N59       1.0  0.69812  0.83797  0.39374  1.0000
  C   C121      1.0  0.67073  0.80391  0.39427  1.0000
  N   N60       1.0  0.63717  0.79853  0.39383  1.0000
  C   C122      1.0  0.72165  0.90107  0.39060  1.0000
  C   C123      1.0  0.67674  0.77500  0.39071  1.0000
  C   C124      1.0  0.59558  0.81991  0.39077  1.0000
  O   O28       1.0  0.64784  0.74206  0.38435  1.0000
  O   O29       1.0  0.59153  0.84879  0.38423  1.0000
  O   O30       1.0  0.75458  0.90510  0.38422  1.0000
  N   N61       1.0  0.84524  0.64380  0.25850  1.0000
  C   C125      1.0  0.80939  0.62923  0.25756  1.0000
  N   N62       1.0  0.79587  0.65142  0.25844  1.0000
  C   C126      1.0  0.81714  0.68725  0.25742  1.0000
  N   N63       1.0  0.85286  0.70079  0.25837  1.0000
  C   C127      1.0  0.78681  0.59267  0.27103  1.0000
  C   C128      1.0  0.80320  0.70988  0.27082  1.0000
  C   C129      1.0  0.90398  0.69345  0.27092  1.0000
  O   O31       1.0  0.82674  0.74521  0.27638  1.0000
  O   O32       1.0  0.91577  0.66991  0.27662  1.0000
  O   O33       1.0  0.75147  0.58085  0.27664  1.0000
  C   C130      1.0  0.72088  0.75526  0.38413  1.0000
  C   C131      1.0  0.75193  0.75855  0.42550  1.0000
  C   C132      1.0  0.76745  0.73875  0.39179  1.0000
  N   N64       1.0  0.79534  0.74042  0.43702  1.0000
  C   C133      1.0  0.80998  0.76042  0.51034  1.0000
  C   C134      1.0  0.79511  0.78018  0.54348  1.0000
  N   N65       1.0  0.76678  0.77857  0.50074  1.0000
  H   H64       1.0  0.83083  0.76035  0.54138  1.0000
  O   O34       1.0  0.80819  0.79944  0.61880  1.0000
  H   H65       1.0  0.75609  0.79106  0.52895  1.0000
  N   N66       1.0  0.70966  0.77895  0.40211  1.0000
  H   H66       1.0  0.72783  0.80209  0.42362  1.0000
  C   C135      1.0  0.74139  0.96494  0.38408  1.0000
  C   C136      1.0  0.73814  0.99271  0.42556  1.0000
  C   C137      1.0  0.75796  0.52804  0.39193  1.0000
  N   N67       1.0  0.75632  0.55426  0.43725  1.0000
  C   C138      1.0  0.73634  0.54888  0.51061  1.0000
  C   C139      1.0  0.71655  0.01424  0.54367  1.0000
  N   N68       1.0  0.71812  0.98752  0.50080  1.0000
  H   H67       1.0  0.73641  0.56980  0.54170  1.0000
  O   O35       1.0  0.69732  0.00805  0.61904  1.0000
  H   H68       1.0  0.70566  0.96434  0.52903  1.0000
  N   N69       1.0  0.71770  0.93003  0.40207  1.0000
  H   H69       1.0  0.69458  0.92508  0.42364  1.0000
  C   C140      1.0  0.53171  0.77576  0.38406  1.0000
  C   C141      1.0  0.50394  0.74474  0.42556  1.0000
  C   C142      1.0  0.96862  0.72923  0.39185  1.0000
  N   N70       1.0  0.94238  0.70138  0.43719  1.0000
  C   C143      1.0  0.94775  0.68677  0.51056  1.0000
  C   C144      1.0  0.48238  0.70164  0.54370  1.0000
  N   N71       1.0  0.50912  0.72992  0.50082  1.0000
  H   H70       1.0  0.92682  0.66598  0.54174  1.0000
  O   O36       1.0  0.48856  0.68863  0.61914  1.0000
  H   H71       1.0  0.53229  0.74064  0.52909  1.0000
  N   N72       1.0  0.56661  0.78699  0.40211  1.0000
  H   H72       1.0  0.57157  0.76882  0.42368  1.0000
