data_image0
_chemical_formula_structural       C8H5CN2HNC8H5CN2HNC3HOHCHC3HOHCHC3HOHCHC10H6CNCN2C10H6CNCN2C3OH2CHC3OH2CHC3OH2CH
_chemical_formula_sum              "C66 H42 N12 O6"
_cell_length_a       37.1514
_cell_length_b       37.1515
_cell_length_c       14.7581
_cell_angle_alpha    90
_cell_angle_beta     90
_cell_angle_gamma    120

_space_group_name_H-M_alt    "P 1"
_space_group_IT_number       1

loop_
  _space_group_symop_operation_xyz
  'x, y, z'

loop_
  _atom_site_type_symbol
  _atom_site_label
  _atom_site_symmetry_multiplicity
  _atom_site_fract_x
  _atom_site_fract_y
  _atom_site_fract_z
  _atom_site_occupancy
  C   C1        1.0  0.38772  0.62954  0.35162  1.0000
  C   C2        1.0  0.43474  0.78448  0.36270  1.0000
  C   C3        1.0  0.45736  0.82827  0.36386  1.0000
  C   C4        1.0  0.19072  0.56783  0.34220  1.0000
  C   C5        1.0  0.23449  0.58899  0.34162  1.0000
  C   C6        1.0  0.36613  0.58575  0.36270  1.0000
  C   C7        1.0  0.38730  0.56313  0.36386  1.0000
  C   C8        1.0  0.43080  0.58329  0.35278  1.0000
  H   H1        1.0  0.48890  0.84307  0.37258  1.0000
  H   H2        1.0  0.24881  0.57177  0.33365  1.0000
  H   H3        1.0  0.17503  0.53621  0.33588  1.0000
  H   H4        1.0  0.33456  0.56965  0.37105  1.0000
  H   H5        1.0  0.37056  0.53159  0.37258  1.0000
  C   C9        1.0  0.36631  0.65258  0.35129  1.0000
  N   N1        1.0  0.32405  0.63325  0.35131  1.0000
  N   N2        1.0  0.38724  0.69490  0.35131  1.0000
  H   H6        1.0  0.45084  0.76901  0.37102  1.0000
  N   N3        1.0  0.44877  0.55987  0.35591  1.0000
  C   C10       1.0  0.63687  0.38686  0.34794  1.0000
  C   C11       1.0  0.58984  0.23192  0.33688  1.0000
  C   C12       1.0  0.56722  0.18812  0.33570  1.0000
  C   C13       1.0  0.83387  0.44856  0.35734  1.0000
  C   C14       1.0  0.79010  0.42740  0.35792  1.0000
  C   C15       1.0  0.65847  0.43065  0.33691  1.0000
  C   C16       1.0  0.63730  0.45327  0.33573  1.0000
  C   C17       1.0  0.59379  0.43311  0.34679  1.0000
  H   H7        1.0  0.53568  0.17332  0.32699  1.0000
  H   H8        1.0  0.77578  0.44462  0.36586  1.0000
  H   H9        1.0  0.84956  0.48018  0.36364  1.0000
  H   H10       1.0  0.69003  0.44674  0.32858  1.0000
  H   H11       1.0  0.65404  0.48481  0.32704  1.0000
  C   C18       1.0  0.65828  0.36381  0.34828  1.0000
  N   N4        1.0  0.70054  0.38314  0.34825  1.0000
  N   N5        1.0  0.63735  0.32149  0.34826  1.0000
  H   H12       1.0  0.57375  0.24739  0.32857  1.0000
  N   N6        1.0  0.57583  0.45653  0.34364  1.0000
  C   C19       1.0  0.49719  0.53687  0.34130  1.0000
  C   C20       1.0  0.52403  0.53511  0.27554  1.0000
  C   C21       1.0  0.53919  0.50717  0.28348  1.0000
  H   H13       1.0  0.53289  0.55441  0.22037  1.0000
  O   O1        1.0  0.56345  0.50620  0.21537  1.0000
  H   H14       1.0  0.59180  0.52905  0.22742  1.0000
  C   C22       1.0  0.48491  0.56651  0.33187  1.0000
  H   H15       1.0  0.50467  0.59346  0.30299  1.0000
  C   C23       1.0  0.48362  0.96442  0.34130  1.0000
  C   C24       1.0  0.48537  0.99301  0.27554  1.0000
  C   C25       1.0  0.51331  0.03611  0.28346  1.0000
  H   H16       1.0  0.46607  0.98258  0.22039  1.0000
  O   O2        1.0  0.51428  0.06134  0.21535  1.0000
  H   H17       1.0  0.49143  0.06685  0.22741  1.0000
  C   C26       1.0  0.45396  0.92249  0.33191  1.0000
  H   H18       1.0  0.42702  0.91531  0.30303  1.0000
  C   C27       1.0  0.05607  0.52330  0.34133  1.0000
  C   C28       1.0  0.02748  0.49645  0.27558  1.0000
  C   C29       1.0  0.98438  0.48129  0.28349  1.0000
  H   H19       1.0  0.03792  0.48757  0.22045  1.0000
  O   O3        1.0  0.95916  0.45702  0.21539  1.0000
  H   H20       1.0  0.95365  0.42866  0.22747  1.0000
  C   C30       1.0  0.09799  0.53556  0.33196  1.0000
  H   H21       1.0  0.10518  0.51579  0.30313  1.0000
  C   C31       1.0  0.25821  0.63277  0.35164  1.0000
  C   C32       1.0  0.39095  0.76228  0.35163  1.0000
  C   C33       1.0  0.43720  0.85161  0.35281  1.0000
  C   C34       1.0  0.39350  0.82977  0.34220  1.0000
  C   C35       1.0  0.37089  0.78600  0.34162  1.0000
  C   C36       1.0  0.23601  0.65436  0.36272  1.0000
  C   C37       1.0  0.19222  0.63319  0.36390  1.0000
  C   C38       1.0  0.16888  0.58968  0.35286  1.0000
  C   C39       1.0  0.45266  0.62699  0.34219  1.0000
  C   C40       1.0  0.43150  0.64960  0.34160  1.0000
  H   H22       1.0  0.37757  0.84546  0.33586  1.0000
  H   H23       1.0  0.33935  0.77168  0.33366  1.0000
  H   H24       1.0  0.25148  0.68592  0.37102  1.0000
  H   H25       1.0  0.17742  0.64993  0.37261  1.0000
  H   H26       1.0  0.48428  0.64291  0.33582  1.0000
  H   H27       1.0  0.44872  0.68114  0.33365  1.0000
  C   C41       1.0  0.30267  0.65418  0.35129  1.0000
  N   N7        1.0  0.32559  0.69644  0.35131  1.0000
  C   C42       1.0  0.36790  0.71783  0.35129  1.0000
  N   N8        1.0  0.12749  0.57171  0.35596  1.0000
  N   N9        1.0  0.46061  0.89299  0.35593  1.0000
  C   C43       1.0  0.76638  0.38362  0.34792  1.0000
  C   C44       1.0  0.63363  0.25411  0.34793  1.0000
  C   C45       1.0  0.58738  0.16478  0.34671  1.0000
  C   C46       1.0  0.63108  0.18662  0.35736  1.0000
  C   C47       1.0  0.65369  0.23039  0.35793  1.0000
  C   C48       1.0  0.78857  0.36202  0.33687  1.0000
  C   C49       1.0  0.83236  0.38319  0.33571  1.0000
  C   C50       1.0  0.85571  0.42670  0.34670  1.0000
  C   C51       1.0  0.57193  0.38941  0.35736  1.0000
  C   C52       1.0  0.59309  0.36680  0.35793  1.0000
  H   H28       1.0  0.64701  0.17093  0.36365  1.0000
  H   H29       1.0  0.68523  0.24471  0.36587  1.0000
  H   H30       1.0  0.77311  0.33046  0.32859  1.0000
  H   H31       1.0  0.84717  0.36645  0.32701  1.0000
  H   H32       1.0  0.54031  0.37348  0.36367  1.0000
  H   H33       1.0  0.57587  0.33525  0.36585  1.0000
  C   C53       1.0  0.72192  0.36221  0.34828  1.0000
  N   N10       1.0  0.69900  0.31995  0.34825  1.0000
  C   C54       1.0  0.65668  0.29857  0.34828  1.0000
  N   N11       1.0  0.89709  0.44467  0.34360  1.0000
  N   N12       1.0  0.56397  0.12340  0.34359  1.0000
  C   C55       1.0  0.50057  0.48129  0.42398  1.0000
  C   C56       1.0  0.48540  0.50922  0.41603  1.0000
  C   C57       1.0  0.52742  0.47954  0.35824  1.0000
  O   O4        1.0  0.46115  0.51020  0.48414  1.0000
  H   H34       1.0  0.49170  0.46199  0.47914  1.0000
  H   H35       1.0  0.43279  0.48735  0.47209  1.0000
  C   C58       1.0  0.53967  0.44987  0.36762  1.0000
  H   H36       1.0  0.51991  0.42294  0.39651  1.0000
  C   C59       1.0  0.53921  0.02338  0.42395  1.0000
  C   C60       1.0  0.51127  0.98028  0.41602  1.0000
  C   C61       1.0  0.54095  0.05198  0.35820  1.0000
  O   O5        1.0  0.51030  0.95506  0.48414  1.0000
  H   H37       1.0  0.55851  0.03382  0.47910  1.0000
  H   H38       1.0  0.53315  0.94954  0.47209  1.0000
  C   C62       1.0  0.57062  0.09389  0.36755  1.0000
  H   H39       1.0  0.59757  0.10107  0.39642  1.0000
  C   C63       1.0  0.99711  0.51993  0.42394  1.0000
  C   C64       1.0  0.04021  0.53510  0.41602  1.0000
  C   C65       1.0  0.96851  0.49307  0.35820  1.0000
  O   O6        1.0  0.06543  0.55936  0.48413  1.0000
  H   H40       1.0  0.98667  0.52882  0.47907  1.0000
  H   H41       1.0  0.07094  0.58772  0.47205  1.0000
  C   C66       1.0  0.92660  0.48083  0.36753  1.0000
  H   H42       1.0  0.91942  0.50061  0.39637  1.0000
