data_image0
_chemical_formula_structural       C14H12C7NC12H12C2NC3NC3NC15H14C3HCH3C3HCH3C3HCH3C3HCH3C3HCH3C3HCH3C3NC2NC5NC3NC17H14CNC2NC4NC18H14C2NC19H12C3HCH3C3HCH3C3HCH3C3HCH3C3HCH3C3HCH3
_chemical_formula_sum              "C180 H126 N12"
_cell_length_a       41.85
_cell_length_b       41.85
_cell_length_c       15.0069
_cell_angle_alpha    90.0372
_cell_angle_beta     89.9628
_cell_angle_gamma    120

_space_group_name_H-M_alt    "P 1"
_space_group_IT_number       1

loop_
  _space_group_symop_operation_xyz
  'x, y, z'

loop_
  _atom_site_type_symbol
  _atom_site_label
  _atom_site_symmetry_multiplicity
  _atom_site_fract_x
  _atom_site_fract_y
  _atom_site_fract_z
  _atom_site_occupancy
  C   C1        1.0  0.94977  0.54914  0.32216  1.0000
  C   C2        1.0  0.09826  0.53587  0.32706  1.0000
  C   C3        1.0  0.11035  0.57424  0.32151  1.0000
  C   C4        1.0  0.14694  0.63563  0.30911  1.0000
  C   C5        1.0  0.14684  0.60273  0.31216  1.0000
  C   C6        1.0  0.15679  0.75692  0.28041  1.0000
  C   C7        1.0  0.12936  0.71949  0.27441  1.0000
  C   C8        1.0  0.12588  0.52503  0.32633  1.0000
  C   C9        1.0  0.17911  0.52594  0.25558  1.0000
  C   C10       1.0  0.14945  0.53272  0.25217  1.0000
  C   C11       1.0  0.93105  0.40395  0.27401  1.0000
  C   C12       1.0  0.90382  0.36645  0.28001  1.0000
  C   C13       1.0  0.91073  0.59053  0.25213  1.0000
  C   C14       1.0  0.88095  0.59713  0.25542  1.0000
  H   H1        1.0  0.86250  0.58726  0.20402  1.0000
  H   H2        1.0  0.91341  0.57734  0.19758  1.0000
  H   H3        1.0  0.99719  0.66593  0.35368  1.0000
  H   H4        1.0  0.95073  0.41192  0.22534  1.0000
  H   H5        1.0  0.90541  0.34854  0.23632  1.0000
  H   H6        1.0  0.06292  0.45750  0.35423  1.0000
  H   H7        1.0  0.17025  0.66071  0.30151  1.0000
  H   H8        1.0  0.17018  0.60087  0.30777  1.0000
  H   H9        1.0  0.14685  0.54588  0.19750  1.0000
  H   H10       1.0  0.19756  0.53565  0.20413  1.0000
  H   H11       1.0  0.10979  0.71162  0.22555  1.0000
  H   H12       1.0  0.15543  0.77490  0.23661  1.0000
  C   C15       1.0  0.43817  0.45145  0.34858  1.0000
  C   C16       1.0  0.44528  0.50826  0.33849  1.0000
  C   C17       1.0  0.54201  0.49272  0.32151  1.0000
  C   C18       1.0  0.61368  0.61269  0.33833  1.0000
  C   C19       1.0  0.62078  0.66950  0.34820  1.0000
  C   C20       1.0  0.55532  0.65449  0.32671  1.0000
  C   C21       1.0  0.51694  0.62822  0.32130  1.0000
  N   N1        1.0  0.50020  0.59102  0.32841  1.0000
  C   C22       1.0  0.45556  0.60339  0.30879  1.0000
  C   C23       1.0  0.48845  0.63619  0.31166  1.0000
  C   C24       1.0  0.33426  0.49190  0.28026  1.0000
  C   C25       1.0  0.37169  0.50191  0.27421  1.0000
  C   C26       1.0  0.56616  0.69294  0.32598  1.0000
  C   C27       1.0  0.58442  0.76909  0.32745  1.0000
  C   C28       1.0  0.56529  0.74525  0.25519  1.0000
  C   C29       1.0  0.55847  0.70879  0.25183  1.0000
  C   C30       1.0  0.68720  0.61910  0.27389  1.0000
  C   C31       1.0  0.72469  0.62935  0.27985  1.0000
  C   C32       1.0  0.50059  0.41224  0.25166  1.0000
  C   C33       1.0  0.49401  0.37587  0.25498  1.0000
  H   H13       1.0  0.50386  0.36725  0.20355  1.0000
  H   H14       1.0  0.51375  0.42807  0.19706  1.0000
  H   H15       1.0  0.42524  0.42341  0.35376  1.0000
  H   H16       1.0  0.67923  0.63077  0.22516  1.0000
  H   H17       1.0  0.74261  0.64881  0.23617  1.0000
  H   H18       1.0  0.63371  0.69754  0.35341  1.0000
  H   H19       1.0  0.43048  0.60158  0.30068  1.0000
  H   H20       1.0  0.49032  0.66139  0.30701  1.0000
  H   H21       1.0  0.54534  0.69303  0.19712  1.0000
  H   H22       1.0  0.55558  0.75397  0.20375  1.0000
  H   H23       1.0  0.37955  0.49013  0.22547  1.0000
  H   H24       1.0  0.31626  0.47250  0.23657  1.0000
  C   C34       1.0  0.63978  0.07886  0.34788  1.0000
  C   C35       1.0  0.58297  0.02913  0.33795  1.0000
  N   N2        1.0  0.58127  0.06055  0.32893  1.0000
  C   C36       1.0  0.62475  0.12930  0.32668  1.0000
  C   C37       1.0  0.59846  0.14140  0.32130  1.0000
  C   C38       1.0  0.47848  0.09308  0.33783  1.0000
  N   N3        1.0  0.48017  0.06167  0.32862  1.0000
  C   C39       1.0  0.42166  0.04335  0.34759  1.0000
  C   C40       1.0  0.43670  0.99290  0.32657  1.0000
  C   C41       1.0  0.46298  0.98080  0.32127  1.0000
  N   N4        1.0  0.50018  0.00126  0.32823  1.0000
  C   C42       1.0  0.48780  0.94423  0.30889  1.0000
  C   C43       1.0  0.45501  0.94432  0.31173  1.0000
  C   C44       1.0  0.56444  0.96322  0.33557  1.0000
  C   C45       1.0  0.58258  0.90527  0.34274  1.0000
  C   C46       1.0  0.59930  0.93442  0.27987  1.0000
  C   C47       1.0  0.58929  0.96185  0.27386  1.0000
  C   C48       1.0  0.39827  0.96529  0.32592  1.0000
  C   C49       1.0  0.32213  0.90740  0.32759  1.0000
  C   C50       1.0  0.34596  0.91204  0.25532  1.0000
  C   C51       1.0  0.38239  0.94172  0.25177  1.0000
  C   C52       1.0  0.47208  0.16018  0.27349  1.0000
  C   C53       1.0  0.46183  0.18742  0.27947  1.0000
  C   C54       1.0  0.67898  0.18048  0.25167  1.0000
  C   C55       1.0  0.73919  0.21510  0.32742  1.0000
  C   C56       1.0  0.71535  0.21026  0.25511  1.0000
  H   H25       1.0  0.72401  0.22872  0.20371  1.0000
  H   H26       1.0  0.66318  0.17782  0.19705  1.0000
  H   H27       1.0  0.66782  0.09399  0.35308  1.0000
  H   H28       1.0  0.55911  0.06075  0.31294  1.0000
  H   H29       1.0  0.50237  0.06144  0.31314  1.0000
  H   H30       1.0  0.46044  0.14055  0.22470  1.0000
  H   H31       1.0  0.44239  0.18588  0.23573  1.0000
  H   H32       1.0  0.39362  0.02823  0.35295  1.0000
  H   H33       1.0  0.48962  0.92096  0.30067  1.0000
  H   H34       1.0  0.42980  0.92098  0.30707  1.0000
  H   H35       1.0  0.39816  0.94424  0.19716  1.0000
  H   H36       1.0  0.33722  0.89354  0.20397  1.0000
  H   H37       1.0  0.60102  0.98143  0.22503  1.0000
  H   H38       1.0  0.61868  0.93580  0.23612  1.0000
  C   C57       1.0  0.21491  0.50081  0.33118  1.0000
  C   C58       1.0  0.23031  0.49315  0.25481  1.0000
  C   C59       1.0  0.26566  0.49669  0.26127  1.0000
  H   H39       1.0  0.27781  0.49519  0.20345  1.0000
  C   C60       1.0  0.21107  0.47990  0.16755  1.0000
  H   H40       1.0  0.18177  0.47090  0.17143  1.0000
  H   H41       1.0  0.21289  0.45605  0.14478  1.0000
  H   H42       1.0  0.22403  0.50171  0.11771  1.0000
  C   C61       1.0  0.59043  0.80621  0.33082  1.0000
  C   C62       1.0  0.59808  0.82923  0.25444  1.0000
  C   C63       1.0  0.59453  0.86103  0.26093  1.0000
  H   H43       1.0  0.59602  0.87466  0.20311  1.0000
  C   C64       1.0  0.61133  0.82321  0.16718  1.0000
  H   H44       1.0  0.62033  0.80291  0.17105  1.0000
  H   H45       1.0  0.63517  0.84886  0.14441  1.0000
  H   H46       1.0  0.58952  0.81434  0.11735  1.0000
  C   C65       1.0  0.28502  0.87627  0.33106  1.0000
  C   C66       1.0  0.26198  0.86084  0.25473  1.0000
  C   C67       1.0  0.23019  0.82549  0.26129  1.0000
  H   H47       1.0  0.21654  0.81330  0.20350  1.0000
  C   C68       1.0  0.26797  0.88004  0.16742  1.0000
  H   H48       1.0  0.28827  0.90934  0.17123  1.0000
  H   H49       1.0  0.24231  0.87821  0.14469  1.0000
  H   H50       1.0  0.27683  0.86706  0.11761  1.0000
  C   C69       1.0  0.84476  0.62185  0.33103  1.0000
  C   C70       1.0  0.82923  0.62927  0.25464  1.0000
  C   C71       1.0  0.79371  0.62532  0.26104  1.0000
  H   H51       1.0  0.78150  0.62666  0.20319  1.0000
  C   C72       1.0  0.84848  0.64267  0.16742  1.0000
  H   H52       1.0  0.87784  0.65191  0.17133  1.0000
  H   H53       1.0  0.84643  0.66638  0.14472  1.0000
  H   H54       1.0  0.83571  0.62085  0.11752  1.0000
  C   C73       1.0  0.46931  0.31499  0.33064  1.0000
  C   C74       1.0  0.46191  0.29202  0.25424  1.0000
  C   C75       1.0  0.46587  0.26046  0.26066  1.0000
  H   H55       1.0  0.46454  0.24689  0.20281  1.0000
  C   C76       1.0  0.44850  0.29781  0.16703  1.0000
  H   H56       1.0  0.43923  0.31791  0.17094  1.0000
  H   H57       1.0  0.42479  0.27203  0.14435  1.0000
  H   H58       1.0  0.47031  0.30684  0.11711  1.0000
  C   C77       1.0  0.77621  0.24640  0.33089  1.0000
  C   C78       1.0  0.79922  0.26193  0.25456  1.0000
  C   C79       1.0  0.83080  0.29744  0.26104  1.0000
  H   H59       1.0  0.84440  0.30966  0.20323  1.0000
  C   C80       1.0  0.79344  0.24270  0.16732  1.0000
  H   H60       1.0  0.77331  0.21335  0.17119  1.0000
  H   H61       1.0  0.81922  0.24473  0.14471  1.0000
  H   H62       1.0  0.78446  0.25549  0.11739  1.0000
  C   C81       1.0  0.01232  0.65303  0.34820  1.0000
  C   C82       1.0  0.05022  0.67131  0.35362  1.0000
  C   C83       1.0  0.06206  0.64593  0.33832  1.0000
  N   N5        1.0  0.03063  0.61283  0.32920  1.0000
  C   C84       1.0  0.99966  0.61550  0.33513  1.0000
  C   C85       1.0  0.96187  0.58752  0.32734  1.0000
  N   N6        1.0  0.97023  0.53239  0.32896  1.0000
  C   C86       1.0  0.94929  0.49519  0.32303  1.0000
  C   C87       1.0  0.91318  0.48774  0.30977  1.0000
  C   C88       1.0  0.91328  0.52063  0.31286  1.0000
  C   C89       1.0  0.96047  0.46832  0.33159  1.0000
  C   C90       1.0  0.99809  0.47749  0.33849  1.0000
  N   N7        1.0  0.02951  0.51061  0.32947  1.0000
  C   C91       1.0  0.06048  0.50793  0.33527  1.0000
  C   C92       1.0  0.04781  0.47042  0.34874  1.0000
  C   C93       1.0  0.00992  0.45215  0.35423  1.0000
  N   N8        1.0  0.08990  0.59099  0.32857  1.0000
  C   C94       1.0  0.11083  0.62818  0.32260  1.0000
  C   C95       1.0  0.09967  0.65506  0.33162  1.0000
  C   C96       1.0  0.12798  0.69329  0.33612  1.0000
  C   C97       1.0  0.15596  0.70580  0.40160  1.0000
  C   C98       1.0  0.18541  0.74236  0.40124  1.0000
  C   C99       1.0  0.18597  0.76938  0.34320  1.0000
  C   C100      1.0  0.13151  0.50789  0.40104  1.0000
  C   C101      1.0  0.15864  0.49741  0.39986  1.0000
  C   C102      1.0  0.18379  0.50682  0.32784  1.0000
  C   C103      1.0  0.93221  0.43006  0.33577  1.0000
  C   C104      1.0  0.87461  0.35380  0.34281  1.0000
  C   C105      1.0  0.87489  0.38073  0.40074  1.0000
  C   C106      1.0  0.90413  0.41739  0.40109  1.0000
  C   C107      1.0  0.93426  0.59834  0.32638  1.0000
  C   C108      1.0  0.92853  0.61554  0.40093  1.0000
  C   C109      1.0  0.90127  0.62583  0.39964  1.0000
  C   C110      1.0  0.87608  0.61617  0.32766  1.0000
  H   H63       1.0  0.89949  0.63968  0.45381  1.0000
  H   H64       1.0  0.94475  0.62139  0.45641  1.0000
  H   H65       1.0  0.06602  0.69904  0.36442  1.0000
  H   H66       1.0  0.03040  0.59038  0.31389  1.0000
  H   H67       1.0  0.02973  0.53292  0.31274  1.0000
  H   H68       1.0  0.88994  0.52251  0.30841  1.0000
  H   H69       1.0  0.88989  0.46267  0.30182  1.0000
  H   H70       1.0  0.90361  0.43537  0.44657  1.0000
  H   H71       1.0  0.85358  0.37406  0.44395  1.0000
  H   H72       1.0  0.99412  0.42443  0.36513  1.0000
  H   H73       1.0  0.11528  0.50215  0.45650  1.0000
  H   H74       1.0  0.16026  0.48350  0.45404  1.0000
  H   H75       1.0  0.20667  0.74888  0.44442  1.0000
  H   H76       1.0  0.15637  0.68773  0.44692  1.0000
  C   C111      1.0  0.41992  0.47109  0.35436  1.0000
  N   N9        1.0  0.47840  0.50996  0.32950  1.0000
  C   C112      1.0  0.47569  0.47629  0.33527  1.0000
  C   C113      1.0  0.50363  0.46645  0.32688  1.0000
  N   N10       1.0  0.55877  0.52992  0.32862  1.0000
  C   C114      1.0  0.59596  0.54617  0.32273  1.0000
  C   C115      1.0  0.60341  0.51752  0.30930  1.0000
  C   C116      1.0  0.57051  0.48473  0.31216  1.0000
  C   C117      1.0  0.62284  0.58423  0.33149  1.0000
  N   N11       1.0  0.58057  0.61099  0.32922  1.0000
  C   C118      1.0  0.58326  0.64466  0.33494  1.0000
  C   C119      1.0  0.63902  0.64987  0.35410  1.0000
  C   C120      1.0  0.46301  0.57475  0.32237  1.0000
  C   C121      1.0  0.43612  0.53671  0.33134  1.0000
  C   C122      1.0  0.39790  0.52678  0.33585  1.0000
  C   C123      1.0  0.38540  0.54232  0.40128  1.0000
  C   C124      1.0  0.34883  0.53518  0.40097  1.0000
  C   C125      1.0  0.32180  0.50865  0.34308  1.0000
  C   C126      1.0  0.58333  0.71576  0.40066  1.0000
  C   C127      1.0  0.59382  0.75337  0.39948  1.0000
  C   C128      1.0  0.66109  0.59421  0.33567  1.0000
  C   C129      1.0  0.73733  0.61281  0.34270  1.0000
  C   C130      1.0  0.71039  0.58620  0.40064  1.0000
  C   C131      1.0  0.67374  0.57882  0.40101  1.0000
  C   C132      1.0  0.49279  0.42800  0.32590  1.0000
  C   C133      1.0  0.47565  0.40513  0.40052  1.0000
  C   C134      1.0  0.46537  0.36758  0.39926  1.0000
  C   C135      1.0  0.47500  0.35201  0.32726  1.0000
  H   H77       1.0  0.45155  0.35200  0.45348  1.0000
  H   H78       1.0  0.46985  0.41554  0.45604  1.0000
  H   H79       1.0  0.39215  0.45915  0.36450  1.0000
  H   H80       1.0  0.50071  0.53203  0.31270  1.0000
  H   H81       1.0  0.55821  0.58883  0.31313  1.0000
  H   H82       1.0  0.56864  0.45952  0.30765  1.0000
  H   H83       1.0  0.62849  0.51930  0.30142  1.0000
  H   H84       1.0  0.65574  0.56031  0.44641  1.0000
  H   H85       1.0  0.71705  0.57158  0.44385  1.0000
  H   H86       1.0  0.66678  0.66182  0.36443  1.0000
  H   H87       1.0  0.58907  0.70530  0.45612  1.0000
  H   H88       1.0  0.60773  0.76892  0.45366  1.0000
  H   H89       1.0  0.34232  0.54996  0.44412  1.0000
  H   H90       1.0  0.40347  0.56085  0.44654  1.0000
  C   C136      1.0  0.62015  0.04097  0.35358  1.0000
  C   C137      1.0  0.61492  0.09152  0.33477  1.0000
  N   N12       1.0  0.56126  0.12095  0.32824  1.0000
  C   C138      1.0  0.54500  0.14188  0.32229  1.0000
  C   C139      1.0  0.57366  0.17800  0.30911  1.0000
  C   C140      1.0  0.60646  0.17789  0.31208  1.0000
  C   C141      1.0  0.50694  0.13070  0.33106  1.0000
  C   C142      1.0  0.44652  0.03069  0.33450  1.0000
  C   C143      1.0  0.44128  0.08124  0.35332  1.0000
  C   C144      1.0  0.51645  0.98034  0.32229  1.0000
  C   C145      1.0  0.55451  0.99152  0.33106  1.0000
  C   C146      1.0  0.54894  0.93524  0.40105  1.0000
  C   C147      1.0  0.55608  0.90580  0.40071  1.0000
  C   C148      1.0  0.37546  0.95972  0.40062  1.0000
  C   C149      1.0  0.33786  0.93260  0.39951  1.0000
  C   C150      1.0  0.49696  0.15897  0.33529  1.0000
  C   C151      1.0  0.47836  0.21662  0.34233  1.0000
  C   C152      1.0  0.50495  0.21630  0.40032  1.0000
  C   C153      1.0  0.51234  0.18703  0.40065  1.0000
  C   C154      1.0  0.66318  0.15692  0.32585  1.0000
  C   C155      1.0  0.68602  0.16263  0.40050  1.0000
  C   C156      1.0  0.72358  0.18990  0.39936  1.0000
  H   H91       1.0  0.73915  0.19163  0.45355  1.0000
  H   H92       1.0  0.67560  0.14639  0.45593  1.0000
  H   H93       1.0  0.63212  0.02517  0.36376  1.0000
  H   H94       1.0  0.63167  0.20124  0.30772  1.0000
  H   H95       1.0  0.57188  0.20129  0.30129  1.0000
  H   H96       1.0  0.53082  0.18754  0.44613  1.0000
  H   H97       1.0  0.51957  0.23759  0.44355  1.0000
  H   H98       1.0  0.42933  0.09703  0.36388  1.0000
  H   H99       1.0  0.38595  0.97597  0.45604  1.0000
  H   H100      1.0  0.32232  0.93098  0.45374  1.0000
  H   H101      1.0  0.54132  0.88455  0.44390  1.0000
  H   H102      1.0  0.53044  0.93482  0.44637  1.0000
  C   C157      1.0  0.28441  0.50192  0.34340  1.0000
  C   C158      1.0  0.26544  0.50231  0.42203  1.0000
  C   C159      1.0  0.23303  0.50467  0.41370  1.0000
  H   H103      1.0  0.22247  0.50926  0.47063  1.0000
  C   C160      1.0  0.27640  0.49888  0.51452  1.0000
  H   H104      1.0  0.29693  0.49012  0.51622  1.0000
  H   H105      1.0  0.25247  0.47803  0.55122  1.0000
  H   H106      1.0  0.28724  0.52519  0.54935  1.0000
  C   C161      1.0  0.58932  0.87461  0.34306  1.0000
  C   C162      1.0  0.58893  0.85528  0.42168  1.0000
  C   C163      1.0  0.58656  0.82050  0.41334  1.0000
  H   H107      1.0  0.58198  0.80537  0.47027  1.0000
  C   C164      1.0  0.59238  0.86972  0.51418  1.0000
  H   H108      1.0  0.60115  0.89900  0.51588  1.0000
  H   H109      1.0  0.61323  0.86665  0.55086  1.0000
  H   H110      1.0  0.56607  0.85427  0.54903  1.0000
  C   C165      1.0  0.21663  0.80676  0.34346  1.0000
  C   C166      1.0  0.23599  0.82577  0.42204  1.0000
  C   C167      1.0  0.27076  0.85818  0.41362  1.0000
  H   H111      1.0  0.28591  0.86877  0.47051  1.0000
  C   C168      1.0  0.22158  0.81484  0.51458  1.0000
  H   H112      1.0  0.19230  0.79434  0.51634  1.0000
  H   H113      1.0  0.22468  0.83879  0.55123  1.0000
  H   H114      1.0  0.23704  0.80400  0.54939  1.0000
  C   C169      1.0  0.77484  0.61991  0.34312  1.0000
  C   C170      1.0  0.79389  0.61975  0.42179  1.0000
  C   C171      1.0  0.82653  0.61780  0.41352  1.0000
  H   H115      1.0  0.83718  0.61337  0.47046  1.0000
  C   C172      1.0  0.78276  0.62303  0.51428  1.0000
  H   H116      1.0  0.76204  0.63153  0.51594  1.0000
  H   H117      1.0  0.80656  0.64402  0.55106  1.0000
  H   H118      1.0  0.77211  0.59674  0.54903  1.0000
  C   C173      1.0  0.47128  0.24704  0.34275  1.0000
  C   C174      1.0  0.47144  0.26629  0.42141  1.0000
  C   C175      1.0  0.47339  0.30087  0.41312  1.0000
  H   H119      1.0  0.47783  0.31599  0.47005  1.0000
  C   C176      1.0  0.46815  0.25192  0.51390  1.0000
  H   H120      1.0  0.45964  0.22270  0.51558  1.0000
  H   H121      1.0  0.44717  0.25477  0.55068  1.0000
  H   H122      1.0  0.49445  0.26758  0.54865  1.0000
  C   C177      1.0  0.84419  0.31629  0.34316  1.0000
  C   C178      1.0  0.82491  0.29723  0.42177  1.0000
  C   C179      1.0  0.79032  0.26461  0.41341  1.0000
  H   H123      1.0  0.77518  0.25395  0.47031  1.0000
  C   C180      1.0  0.83924  0.30834  0.51430  1.0000
  H   H124      1.0  0.86846  0.32905  0.51604  1.0000
  H   H125      1.0  0.83638  0.28452  0.55107  1.0000
  H   H126      1.0  0.82357  0.31899  0.54902  1.0000
