data_image0
_chemical_formula_structural       C2HNO2NCNC3HNO2C2HNO2NCNC3HNO2CNCNC3NCNC6HNO2C4HNO2NC2HNO2C2HNO2C4HNO2C4HNO2NC2HNO2C2HNO2C2HNO2C2HNO2C4HNO2CNC2NCNCNCNCNCNC4HNO2C4HNO2C2HNO2C2HNO2C2HNO2C4HNO2CNC2NCNCNCNCNCNC4HNO2C4HNO2C2HNO2C2HNO2C2HNO2C2HNO2C4HNO2C4HNO2C4HNO2CNCNCNCNCNCNCNCNCNCNCNCNC4HNO2C4HNO2C4HNO2C2HNO2C2HNO2C2HNO2C2HNO2C2HNO2C2HNO2C4HNO2C4HNO2C4HNO2CNCNCNCNCNCNCNCNCNCNCNCNC4HNO2C4HNO2C4HNO2C2HNO2C2HNO2C2HNO2
_chemical_formula_sum              "C192 H48 N96 O96"
_cell_length_a       44.9954
_cell_length_b       45
_cell_length_c       14.7776
_cell_angle_alpha    90
_cell_angle_beta     90
_cell_angle_gamma    120.01

_space_group_name_H-M_alt    "P 1"
_space_group_IT_number       1

loop_
  _space_group_symop_operation_xyz
  'x, y, z'

loop_
  _atom_site_type_symbol
  _atom_site_label
  _atom_site_symmetry_multiplicity
  _atom_site_fract_x
  _atom_site_fract_y
  _atom_site_fract_z
  _atom_site_occupancy
  C   C1        1.0  0.09905  0.05140  0.26604  1.0000
  C   C2        1.0  0.13553  0.06965  0.26693  1.0000
  H   H1        1.0  0.14851  0.07615  0.20663  1.0000
  N   N1        1.0  0.08063  0.04216  0.18336  1.0000
  O   O1        1.0  0.08726  0.02276  0.13708  1.0000
  O   O2        1.0  0.08725  0.06814  0.13689  1.0000
  N   N2        1.0  0.02608  0.04098  0.34912  1.0000
  C   C3        1.0  0.04394  0.02387  0.34916  1.0000
  N   N3        1.0  0.02606  0.48889  0.34914  1.0000
  C   C4        1.0  0.13564  0.06973  0.43054  1.0000
  C   C5        1.0  0.09916  0.05148  0.43177  1.0000
  C   C6        1.0  0.08056  0.04217  0.34899  1.0000
  H   H2        1.0  0.14871  0.07629  0.49071  1.0000
  N   N4        1.0  0.08085  0.04231  0.51464  1.0000
  O   O3        1.0  0.08754  0.06834  0.56099  1.0000
  O   O4        1.0  0.08755  0.02296  0.56090  1.0000
  C   C7        1.0  0.09905  0.55141  0.26604  1.0000
  C   C8        1.0  0.13553  0.56965  0.26693  1.0000
  H   H3        1.0  0.14851  0.57615  0.20663  1.0000
  N   N5        1.0  0.08063  0.54216  0.18336  1.0000
  O   O5        1.0  0.08726  0.52276  0.13708  1.0000
  O   O6        1.0  0.08725  0.56814  0.13689  1.0000
  N   N6        1.0  0.02608  0.54099  0.34912  1.0000
  C   C9        1.0  0.04394  0.52387  0.34916  1.0000
  N   N7        1.0  0.02606  0.98889  0.34914  1.0000
  C   C10       1.0  0.13564  0.56973  0.43054  1.0000
  C   C11       1.0  0.09916  0.55148  0.43177  1.0000
  C   C12       1.0  0.08056  0.54217  0.34899  1.0000
  H   H4        1.0  0.14871  0.57629  0.49071  1.0000
  N   N8        1.0  0.08085  0.54231  0.51464  1.0000
  O   O7        1.0  0.08754  0.56834  0.56099  1.0000
  O   O8        1.0  0.08755  0.52296  0.56090  1.0000
  C   C13       1.0  0.24342  0.15028  0.34807  1.0000
  N   N9        1.0  0.20843  0.13250  0.34832  1.0000
  C   C14       1.0  0.19077  0.09738  0.34847  1.0000
  N   N10       1.0  0.20871  0.08021  0.34833  1.0000
  C   C15       1.0  0.24370  0.09773  0.34806  1.0000
  C   C16       1.0  0.15427  0.07903  0.34865  1.0000
  C   C17       1.0  0.24342  0.65028  0.34807  1.0000
  N   N11       1.0  0.20843  0.63250  0.34832  1.0000
  C   C18       1.0  0.19077  0.59738  0.34847  1.0000
  N   N12       1.0  0.20871  0.58021  0.34833  1.0000
  C   C19       1.0  0.24370  0.59772  0.34806  1.0000
  C   C20       1.0  0.15427  0.57903  0.34865  1.0000
  C   C21       1.0  0.32856  0.08210  0.34811  1.0000
  C   C22       1.0  0.31232  0.08182  0.26616  1.0000
  C   C23       1.0  0.28125  0.08271  0.26508  1.0000
  C   C24       1.0  0.26545  0.08329  0.34791  1.0000
  H   H5        1.0  0.32509  0.08502  0.20626  1.0000
  N   N13       1.0  0.26746  0.08644  0.18233  1.0000
  O   O9        1.0  0.28792  0.11385  0.14237  1.0000
  O   O10       1.0  0.25998  0.06166  0.13004  1.0000
  C   C25       1.0  0.26477  0.18640  0.34786  1.0000
  C   C26       1.0  0.28076  0.20268  0.26598  1.0000
  C   C27       1.0  0.31267  0.23379  0.26493  1.0000
  C   C28       1.0  0.32897  0.24952  0.34787  1.0000
  H   H6        1.0  0.27112  0.18995  0.20607  1.0000
  N   N14       1.0  0.33018  0.24766  0.18221  1.0000
  O   O11       1.0  0.33718  0.22727  0.14213  1.0000
  O   O12       1.0  0.31285  0.25512  0.13002  1.0000
  N   N15       1.0  0.26024  0.13241  0.34792  1.0000
  C   C29       1.0  0.28111  0.08253  0.43085  1.0000
  C   C30       1.0  0.31218  0.08164  0.42994  1.0000
  H   H7        1.0  0.32485  0.08472  0.48993  1.0000
  N   N16       1.0  0.26718  0.08607  0.51359  1.0000
  O   O13       1.0  0.25961  0.06118  0.56552  1.0000
  O   O14       1.0  0.28757  0.11339  0.55401  1.0000
  C   C31       1.0  0.31264  0.23383  0.43083  1.0000
  C   C32       1.0  0.28073  0.20272  0.42976  1.0000
  H   H8        1.0  0.27105  0.19002  0.48971  1.0000
  N   N17       1.0  0.33008  0.24774  0.51361  1.0000
  O   O15       1.0  0.31270  0.25522  0.56557  1.0000
  O   O16       1.0  0.33706  0.22738  0.55394  1.0000
  C   C33       1.0  0.32856  0.58210  0.34811  1.0000
  C   C34       1.0  0.31232  0.58183  0.26616  1.0000
  C   C35       1.0  0.28125  0.58271  0.26508  1.0000
  C   C36       1.0  0.26545  0.58329  0.34791  1.0000
  H   H9        1.0  0.32509  0.58502  0.20626  1.0000
  N   N18       1.0  0.26746  0.58644  0.18233  1.0000
  O   O17       1.0  0.28792  0.61385  0.14237  1.0000
  O   O18       1.0  0.25998  0.56166  0.13004  1.0000
  C   C37       1.0  0.26477  0.68640  0.34786  1.0000
  C   C38       1.0  0.28076  0.70268  0.26598  1.0000
  C   C39       1.0  0.31267  0.73380  0.26493  1.0000
  C   C40       1.0  0.32897  0.74952  0.34787  1.0000
  H   H10       1.0  0.27112  0.68995  0.20607  1.0000
  N   N19       1.0  0.33018  0.74766  0.18221  1.0000
  O   O19       1.0  0.33718  0.72727  0.14213  1.0000
  O   O20       1.0  0.31285  0.75512  0.13002  1.0000
  N   N20       1.0  0.26024  0.63241  0.34792  1.0000
  C   C41       1.0  0.28111  0.58253  0.43085  1.0000
  C   C42       1.0  0.31218  0.58164  0.42994  1.0000
  H   H11       1.0  0.32485  0.58472  0.48993  1.0000
  N   N21       1.0  0.26718  0.58607  0.51359  1.0000
  O   O21       1.0  0.25961  0.56118  0.56552  1.0000
  O   O22       1.0  0.28758  0.61339  0.55401  1.0000
  C   C43       1.0  0.31264  0.73384  0.43083  1.0000
  C   C44       1.0  0.28073  0.70272  0.42976  1.0000
  H   H12       1.0  0.27105  0.69002  0.48971  1.0000
  N   N22       1.0  0.33008  0.74774  0.51361  1.0000
  O   O23       1.0  0.31270  0.75523  0.56557  1.0000
  O   O24       1.0  0.33706  0.72737  0.55394  1.0000
  C   C45       1.0  0.46359  0.05146  0.26602  1.0000
  C   C46       1.0  0.44534  0.06969  0.26690  1.0000
  H   H13       1.0  0.43886  0.07618  0.20660  1.0000
  N   N23       1.0  0.47284  0.04230  0.18334  1.0000
  O   O25       1.0  0.49225  0.06833  0.13709  1.0000
  O   O26       1.0  0.44686  0.02293  0.13684  1.0000
  C   C47       1.0  0.46352  0.41592  0.26604  1.0000
  C   C48       1.0  0.44529  0.37945  0.26692  1.0000
  H   H14       1.0  0.43881  0.36646  0.20662  1.0000
  N   N24       1.0  0.47269  0.43434  0.18336  1.0000
  O   O27       1.0  0.44666  0.42770  0.13706  1.0000
  O   O28       1.0  0.49207  0.42774  0.13690  1.0000
  C   C49       1.0  0.43281  0.25025  0.34765  1.0000
  C   C50       1.0  0.43310  0.23420  0.26591  1.0000
  C   C51       1.0  0.43232  0.20230  0.26490  1.0000
  C   C52       1.0  0.43167  0.18594  0.34780  1.0000
  H   H15       1.0  0.43007  0.24383  0.20591  1.0000
  N   N25       1.0  0.42871  0.18480  0.18218  1.0000
  O   O29       1.0  0.40132  0.17780  0.14201  1.0000
  O   O30       1.0  0.45353  0.20215  0.13005  1.0000
  C   C53       1.0  0.49108  0.47102  0.34916  1.0000
  N   N26       1.0  0.47397  0.48890  0.34913  1.0000
  C   C54       1.0  0.49109  0.02387  0.34915  1.0000
  C   C55       1.0  0.36468  0.09689  0.34812  1.0000
  N   N27       1.0  0.38247  0.07970  0.34838  1.0000
  C   C56       1.0  0.41759  0.09717  0.34842  1.0000
  N   N28       1.0  0.43476  0.13229  0.34822  1.0000
  C   C57       1.0  0.41724  0.14975  0.34800  1.0000
  N   N29       1.0  0.38255  0.13159  0.34795  1.0000
  C   C58       1.0  0.41804  0.27157  0.34798  1.0000
  N   N30       1.0  0.43525  0.30656  0.34825  1.0000
  C   C59       1.0  0.41778  0.32421  0.34844  1.0000
  N   N31       1.0  0.38266  0.30627  0.34833  1.0000
  C   C60       1.0  0.36518  0.27127  0.34804  1.0000
  N   N32       1.0  0.38334  0.25475  0.34784  1.0000
  C   C61       1.0  0.43594  0.07903  0.34861  1.0000
  C   C62       1.0  0.44522  0.06968  0.43051  1.0000
  C   C63       1.0  0.46346  0.05146  0.43175  1.0000
  C   C64       1.0  0.47279  0.04219  0.34898  1.0000
  H   H16       1.0  0.43865  0.07618  0.49068  1.0000
  N   N33       1.0  0.47262  0.04231  0.51462  1.0000
  O   O31       1.0  0.44658  0.02295  0.56094  1.0000
  O   O32       1.0  0.49196  0.06836  0.56092  1.0000
  C   C65       1.0  0.43592  0.36070  0.34863  1.0000
  C   C66       1.0  0.44524  0.37933  0.43053  1.0000
  C   C67       1.0  0.46346  0.41580  0.43177  1.0000
  C   C68       1.0  0.47276  0.43440  0.34899  1.0000
  H   H17       1.0  0.43872  0.36626  0.49070  1.0000
  N   N34       1.0  0.47259  0.43411  0.51464  1.0000
  O   O33       1.0  0.49194  0.42744  0.56100  1.0000
  O   O34       1.0  0.44653  0.42740  0.56089  1.0000
  C   C69       1.0  0.43233  0.20235  0.43065  1.0000
  C   C70       1.0  0.43321  0.23430  0.42955  1.0000
  H   H18       1.0  0.43012  0.24391  0.48952  1.0000
  N   N35       1.0  0.42875  0.18492  0.51347  1.0000
  O   O35       1.0  0.45362  0.20227  0.56547  1.0000
  O   O36       1.0  0.40140  0.17797  0.55373  1.0000
  C   C71       1.0  0.46358  0.55146  0.26602  1.0000
  C   C72       1.0  0.44534  0.56969  0.26690  1.0000
  H   H19       1.0  0.43886  0.57618  0.20660  1.0000
  N   N36       1.0  0.47284  0.54230  0.18334  1.0000
  O   O37       1.0  0.49225  0.56833  0.13709  1.0000
  O   O38       1.0  0.44686  0.52293  0.13685  1.0000
  C   C73       1.0  0.46351  0.91592  0.26604  1.0000
  C   C74       1.0  0.44529  0.87945  0.26692  1.0000
  H   H20       1.0  0.43882  0.86647  0.20662  1.0000
  N   N37       1.0  0.47270  0.93434  0.18336  1.0000
  O   O39       1.0  0.44666  0.92770  0.13706  1.0000
  O   O40       1.0  0.49208  0.92774  0.13690  1.0000
  C   C75       1.0  0.43281  0.75025  0.34765  1.0000
  C   C76       1.0  0.43310  0.73420  0.26591  1.0000
  C   C77       1.0  0.43232  0.70230  0.26490  1.0000
  C   C78       1.0  0.43167  0.68594  0.34780  1.0000
  H   H21       1.0  0.43007  0.74383  0.20591  1.0000
  N   N38       1.0  0.42871  0.68481  0.18218  1.0000
  O   O41       1.0  0.40132  0.67780  0.14201  1.0000
  O   O42       1.0  0.45353  0.70215  0.13005  1.0000
  C   C79       1.0  0.49108  0.97103  0.34916  1.0000
  N   N39       1.0  0.47397  0.98890  0.34913  1.0000
  C   C80       1.0  0.49109  0.52387  0.34915  1.0000
  C   C81       1.0  0.36468  0.59689  0.34812  1.0000
  N   N40       1.0  0.38246  0.57969  0.34838  1.0000
  C   C82       1.0  0.41759  0.59717  0.34842  1.0000
  N   N41       1.0  0.43476  0.63228  0.34822  1.0000
  C   C83       1.0  0.41724  0.64975  0.34800  1.0000
  N   N42       1.0  0.38255  0.63159  0.34795  1.0000
  C   C84       1.0  0.41804  0.77157  0.34798  1.0000
  N   N43       1.0  0.43525  0.80656  0.34825  1.0000
  C   C85       1.0  0.41778  0.82421  0.34844  1.0000
  N   N44       1.0  0.38266  0.80627  0.34833  1.0000
  C   C86       1.0  0.36518  0.77127  0.34804  1.0000
  N   N45       1.0  0.38334  0.75475  0.34784  1.0000
  C   C87       1.0  0.43594  0.57903  0.34861  1.0000
  C   C88       1.0  0.44522  0.56968  0.43051  1.0000
  C   C89       1.0  0.46347  0.55146  0.43175  1.0000
  C   C90       1.0  0.47279  0.54219  0.34898  1.0000
  H   H22       1.0  0.43865  0.57618  0.49068  1.0000
  N   N46       1.0  0.47262  0.54231  0.51462  1.0000
  O   O43       1.0  0.44658  0.52296  0.56094  1.0000
  O   O44       1.0  0.49196  0.56836  0.56092  1.0000
  C   C91       1.0  0.43592  0.86071  0.34863  1.0000
  C   C92       1.0  0.44524  0.87933  0.43053  1.0000
  C   C93       1.0  0.46346  0.91581  0.43177  1.0000
  C   C94       1.0  0.47276  0.93441  0.34899  1.0000
  H   H23       1.0  0.43872  0.86626  0.49070  1.0000
  N   N47       1.0  0.47259  0.93411  0.51464  1.0000
  O   O45       1.0  0.49194  0.92744  0.56100  1.0000
  O   O46       1.0  0.44653  0.92740  0.56089  1.0000
  C   C95       1.0  0.43233  0.70235  0.43065  1.0000
  C   C96       1.0  0.43321  0.73430  0.42955  1.0000
  H   H24       1.0  0.43012  0.74391  0.48952  1.0000
  N   N48       1.0  0.42875  0.68492  0.51347  1.0000
  O   O47       1.0  0.45361  0.70227  0.56547  1.0000
  O   O48       1.0  0.40140  0.67797  0.55373  1.0000
  C   C97       1.0  0.59905  0.05140  0.26604  1.0000
  C   C98       1.0  0.63553  0.06965  0.26693  1.0000
  H   H25       1.0  0.64851  0.07615  0.20663  1.0000
  N   N49       1.0  0.58063  0.04216  0.18336  1.0000
  O   O49       1.0  0.58726  0.02276  0.13708  1.0000
  O   O50       1.0  0.58725  0.06814  0.13689  1.0000
  C   C99       1.0  0.96358  0.05146  0.26602  1.0000
  C   C100      1.0  0.94534  0.06969  0.26690  1.0000
  H   H26       1.0  0.93886  0.07618  0.20660  1.0000
  N   N50       1.0  0.97284  0.04230  0.18334  1.0000
  O   O51       1.0  0.99225  0.06833  0.13709  1.0000
  O   O52       1.0  0.94686  0.02293  0.13684  1.0000
  C   C101      1.0  0.96351  0.41592  0.26604  1.0000
  C   C102      1.0  0.94529  0.37945  0.26692  1.0000
  H   H27       1.0  0.93881  0.36646  0.20662  1.0000
  N   N51       1.0  0.97269  0.43434  0.18336  1.0000
  O   O53       1.0  0.94666  0.42770  0.13706  1.0000
  O   O54       1.0  0.99207  0.42774  0.13690  1.0000
  C   C103      1.0  0.82856  0.08210  0.34811  1.0000
  C   C104      1.0  0.81232  0.08182  0.26616  1.0000
  C   C105      1.0  0.78125  0.08271  0.26508  1.0000
  C   C106      1.0  0.76545  0.08329  0.34791  1.0000
  H   H28       1.0  0.82508  0.08502  0.20626  1.0000
  N   N52       1.0  0.76746  0.08644  0.18233  1.0000
  O   O55       1.0  0.78792  0.11385  0.14237  1.0000
  O   O56       1.0  0.75998  0.06166  0.13004  1.0000
  C   C107      1.0  0.93281  0.25025  0.34765  1.0000
  C   C108      1.0  0.93310  0.23420  0.26591  1.0000
  C   C109      1.0  0.93232  0.20230  0.26490  1.0000
  C   C110      1.0  0.93167  0.18594  0.34780  1.0000
  H   H29       1.0  0.93007  0.24383  0.20591  1.0000
  N   N53       1.0  0.92871  0.18480  0.18218  1.0000
  O   O57       1.0  0.90132  0.17780  0.14201  1.0000
  O   O58       1.0  0.95353  0.20215  0.13005  1.0000
  C   C111      1.0  0.76477  0.18640  0.34786  1.0000
  C   C112      1.0  0.78076  0.20268  0.26598  1.0000
  C   C113      1.0  0.81267  0.23379  0.26493  1.0000
  C   C114      1.0  0.82897  0.24952  0.34787  1.0000
  H   H30       1.0  0.77112  0.18995  0.20607  1.0000
  N   N54       1.0  0.83018  0.24766  0.18221  1.0000
  O   O59       1.0  0.83718  0.22727  0.14213  1.0000
  O   O60       1.0  0.81285  0.25512  0.13002  1.0000
  C   C115      1.0  0.99108  0.47102  0.34916  1.0000
  N   N55       1.0  0.97397  0.48890  0.34913  1.0000
  C   C116      1.0  0.99109  0.02387  0.34915  1.0000
  N   N56       1.0  0.52608  0.04098  0.34912  1.0000
  C   C117      1.0  0.54394  0.02387  0.34916  1.0000
  N   N57       1.0  0.52606  0.48889  0.34914  1.0000
  C   C118      1.0  0.74342  0.15028  0.34807  1.0000
  N   N58       1.0  0.70843  0.13250  0.34832  1.0000
  C   C119      1.0  0.69077  0.09738  0.34847  1.0000
  N   N59       1.0  0.70871  0.08021  0.34833  1.0000
  C   C120      1.0  0.74370  0.09773  0.34806  1.0000
  N   N60       1.0  0.76024  0.13241  0.34792  1.0000
  C   C121      1.0  0.86468  0.09689  0.34812  1.0000
  N   N61       1.0  0.88247  0.07970  0.34838  1.0000
  C   C122      1.0  0.91759  0.09717  0.34842  1.0000
  N   N62       1.0  0.93476  0.13229  0.34822  1.0000
  C   C123      1.0  0.91724  0.14975  0.34800  1.0000
  N   N63       1.0  0.88255  0.13159  0.34795  1.0000
  C   C124      1.0  0.91804  0.27157  0.34798  1.0000
  N   N64       1.0  0.93525  0.30656  0.34825  1.0000
  C   C125      1.0  0.91778  0.32421  0.34844  1.0000
  N   N65       1.0  0.88266  0.30627  0.34833  1.0000
  C   C126      1.0  0.86518  0.27127  0.34804  1.0000
  N   N66       1.0  0.88334  0.25475  0.34784  1.0000
  C   C127      1.0  0.65427  0.07903  0.34865  1.0000
  C   C128      1.0  0.63564  0.06973  0.43054  1.0000
  C   C129      1.0  0.59916  0.05148  0.43177  1.0000
  C   C130      1.0  0.58056  0.04217  0.34899  1.0000
  H   H31       1.0  0.64871  0.07629  0.49071  1.0000
  N   N67       1.0  0.58085  0.04231  0.51464  1.0000
  O   O61       1.0  0.58754  0.06834  0.56099  1.0000
  O   O62       1.0  0.58755  0.02296  0.56090  1.0000
  C   C131      1.0  0.93594  0.07903  0.34861  1.0000
  C   C132      1.0  0.94522  0.06968  0.43051  1.0000
  C   C133      1.0  0.96347  0.05146  0.43175  1.0000
  C   C134      1.0  0.97279  0.04219  0.34898  1.0000
  H   H32       1.0  0.93865  0.07618  0.49068  1.0000
  N   N68       1.0  0.97262  0.04231  0.51462  1.0000
  O   O63       1.0  0.94658  0.02295  0.56094  1.0000
  O   O64       1.0  0.99196  0.06836  0.56092  1.0000
  C   C135      1.0  0.93592  0.36070  0.34863  1.0000
  C   C136      1.0  0.94524  0.37933  0.43053  1.0000
  C   C137      1.0  0.96346  0.41580  0.43177  1.0000
  C   C138      1.0  0.97276  0.43440  0.34899  1.0000
  H   H33       1.0  0.93872  0.36626  0.49070  1.0000
  N   N69       1.0  0.97259  0.43411  0.51464  1.0000
  O   O65       1.0  0.99194  0.42744  0.56100  1.0000
  O   O66       1.0  0.94653  0.42740  0.56089  1.0000
  C   C139      1.0  0.78111  0.08253  0.43085  1.0000
  C   C140      1.0  0.81218  0.08164  0.42994  1.0000
  H   H34       1.0  0.82485  0.08472  0.48993  1.0000
  N   N70       1.0  0.76718  0.08607  0.51359  1.0000
  O   O67       1.0  0.75961  0.06118  0.56552  1.0000
  O   O68       1.0  0.78757  0.11339  0.55401  1.0000
  C   C141      1.0  0.93233  0.20235  0.43065  1.0000
  C   C142      1.0  0.93320  0.23430  0.42955  1.0000
  H   H35       1.0  0.93012  0.24391  0.48952  1.0000
  N   N71       1.0  0.92875  0.18492  0.51347  1.0000
  O   O69       1.0  0.95361  0.20227  0.56547  1.0000
  O   O70       1.0  0.90140  0.17797  0.55373  1.0000
  C   C143      1.0  0.81264  0.23383  0.43083  1.0000
  C   C144      1.0  0.78073  0.20272  0.42976  1.0000
  H   H36       1.0  0.77105  0.19002  0.48971  1.0000
  N   N72       1.0  0.83008  0.24774  0.51361  1.0000
  O   O71       1.0  0.81270  0.25522  0.56557  1.0000
  O   O72       1.0  0.83706  0.22738  0.55394  1.0000
  C   C145      1.0  0.59905  0.55141  0.26604  1.0000
  C   C146      1.0  0.63553  0.56965  0.26693  1.0000
  H   H37       1.0  0.64851  0.57615  0.20663  1.0000
  N   N73       1.0  0.58063  0.54216  0.18336  1.0000
  O   O73       1.0  0.58726  0.52276  0.13708  1.0000
  O   O74       1.0  0.58725  0.56814  0.13689  1.0000
  C   C147      1.0  0.96358  0.55146  0.26602  1.0000
  C   C148      1.0  0.94534  0.56969  0.26690  1.0000
  H   H38       1.0  0.93885  0.57618  0.20660  1.0000
  N   N74       1.0  0.97284  0.54230  0.18334  1.0000
  O   O75       1.0  0.99225  0.56833  0.13709  1.0000
  O   O76       1.0  0.94686  0.52293  0.13685  1.0000
  C   C149      1.0  0.96351  0.91592  0.26604  1.0000
  C   C150      1.0  0.94529  0.87945  0.26692  1.0000
  H   H39       1.0  0.93882  0.86647  0.20662  1.0000
  N   N75       1.0  0.97269  0.93434  0.18336  1.0000
  O   O77       1.0  0.94666  0.92770  0.13706  1.0000
  O   O78       1.0  0.99207  0.92774  0.13690  1.0000
  C   C151      1.0  0.82856  0.58210  0.34811  1.0000
  C   C152      1.0  0.81232  0.58183  0.26616  1.0000
  C   C153      1.0  0.78125  0.58271  0.26508  1.0000
  C   C154      1.0  0.76545  0.58329  0.34791  1.0000
  H   H40       1.0  0.82508  0.58502  0.20626  1.0000
  N   N76       1.0  0.76746  0.58644  0.18233  1.0000
  O   O79       1.0  0.78792  0.61385  0.14237  1.0000
  O   O80       1.0  0.75997  0.56166  0.13004  1.0000
  C   C155      1.0  0.93281  0.75025  0.34765  1.0000
  C   C156      1.0  0.93310  0.73420  0.26591  1.0000
  C   C157      1.0  0.93232  0.70230  0.26490  1.0000
  C   C158      1.0  0.93167  0.68594  0.34780  1.0000
  H   H41       1.0  0.93007  0.74383  0.20591  1.0000
  N   N77       1.0  0.92871  0.68481  0.18218  1.0000
  O   O81       1.0  0.90132  0.67780  0.14201  1.0000
  O   O82       1.0  0.95353  0.70215  0.13005  1.0000
  C   C159      1.0  0.76477  0.68640  0.34786  1.0000
  C   C160      1.0  0.78076  0.70268  0.26598  1.0000
  C   C161      1.0  0.81267  0.73380  0.26493  1.0000
  C   C162      1.0  0.82897  0.74952  0.34787  1.0000
  H   H42       1.0  0.77112  0.68995  0.20607  1.0000
  N   N78       1.0  0.83018  0.74766  0.18221  1.0000
  O   O83       1.0  0.83718  0.72727  0.14213  1.0000
  O   O84       1.0  0.81285  0.75512  0.13002  1.0000
  C   C163      1.0  0.99108  0.97103  0.34916  1.0000
  N   N79       1.0  0.97397  0.98890  0.34913  1.0000
  C   C164      1.0  0.99109  0.52387  0.34915  1.0000
  N   N80       1.0  0.52608  0.54099  0.34912  1.0000
  C   C165      1.0  0.54394  0.52387  0.34916  1.0000
  N   N81       1.0  0.52606  0.98889  0.34914  1.0000
  C   C166      1.0  0.74342  0.65028  0.34807  1.0000
  N   N82       1.0  0.70843  0.63250  0.34832  1.0000
  C   C167      1.0  0.69077  0.59738  0.34847  1.0000
  N   N83       1.0  0.70871  0.58021  0.34833  1.0000
  C   C168      1.0  0.74370  0.59772  0.34806  1.0000
  N   N84       1.0  0.76024  0.63241  0.34792  1.0000
  C   C169      1.0  0.86468  0.59689  0.34812  1.0000
  N   N85       1.0  0.88246  0.57969  0.34838  1.0000
  C   C170      1.0  0.91759  0.59717  0.34842  1.0000
  N   N86       1.0  0.93476  0.63228  0.34822  1.0000
  C   C171      1.0  0.91724  0.64975  0.34800  1.0000
  N   N87       1.0  0.88255  0.63159  0.34795  1.0000
  C   C172      1.0  0.91804  0.77157  0.34798  1.0000
  N   N88       1.0  0.93525  0.80656  0.34825  1.0000
  C   C173      1.0  0.91778  0.82421  0.34844  1.0000
  N   N89       1.0  0.88266  0.80627  0.34833  1.0000
  C   C174      1.0  0.86518  0.77127  0.34804  1.0000
  N   N90       1.0  0.88334  0.75475  0.34784  1.0000
  C   C175      1.0  0.65427  0.57903  0.34865  1.0000
  C   C176      1.0  0.63564  0.56973  0.43054  1.0000
  C   C177      1.0  0.59916  0.55148  0.43177  1.0000
  C   C178      1.0  0.58056  0.54217  0.34899  1.0000
  H   H43       1.0  0.64871  0.57629  0.49071  1.0000
  N   N91       1.0  0.58085  0.54231  0.51464  1.0000
  O   O85       1.0  0.58754  0.56834  0.56099  1.0000
  O   O86       1.0  0.58755  0.52296  0.56090  1.0000
  C   C179      1.0  0.93594  0.57903  0.34861  1.0000
  C   C180      1.0  0.94522  0.56968  0.43051  1.0000
  C   C181      1.0  0.96347  0.55146  0.43175  1.0000
  C   C182      1.0  0.97279  0.54219  0.34898  1.0000
  H   H44       1.0  0.93865  0.57618  0.49068  1.0000
  N   N92       1.0  0.97262  0.54231  0.51462  1.0000
  O   O87       1.0  0.94658  0.52296  0.56094  1.0000
  O   O88       1.0  0.99196  0.56836  0.56092  1.0000
  C   C183      1.0  0.93592  0.86071  0.34863  1.0000
  C   C184      1.0  0.94524  0.87933  0.43053  1.0000
  C   C185      1.0  0.96346  0.91581  0.43177  1.0000
  C   C186      1.0  0.97276  0.93441  0.34899  1.0000
  H   H45       1.0  0.93872  0.86626  0.49070  1.0000
  N   N93       1.0  0.97259  0.93411  0.51464  1.0000
  O   O89       1.0  0.99194  0.92744  0.56100  1.0000
  O   O90       1.0  0.94653  0.92740  0.56089  1.0000
  C   C187      1.0  0.78111  0.58253  0.43085  1.0000
  C   C188      1.0  0.81217  0.58164  0.42994  1.0000
  H   H46       1.0  0.82485  0.58472  0.48993  1.0000
  N   N94       1.0  0.76719  0.58607  0.51359  1.0000
  O   O91       1.0  0.75961  0.56118  0.56552  1.0000
  O   O92       1.0  0.78757  0.61339  0.55401  1.0000
  C   C189      1.0  0.93233  0.70235  0.43065  1.0000
  C   C190      1.0  0.93320  0.73430  0.42955  1.0000
  H   H47       1.0  0.93012  0.74391  0.48952  1.0000
  N   N95       1.0  0.92875  0.68492  0.51347  1.0000
  O   O93       1.0  0.95361  0.70227  0.56547  1.0000
  O   O94       1.0  0.90140  0.67797  0.55373  1.0000
  C   C191      1.0  0.81264  0.73384  0.43083  1.0000
  C   C192      1.0  0.78073  0.70272  0.42976  1.0000
  H   H48       1.0  0.77105  0.69002  0.48971  1.0000
  N   N96       1.0  0.83008  0.74774  0.51361  1.0000
  O   O95       1.0  0.81270  0.75523  0.56557  1.0000
  O   O96       1.0  0.83706  0.72737  0.55394  1.0000
