data_image0
_chemical_formula_structural       C2H2CH3CH3C2H2CH2CH2C2H2CH2CH2NC18H12NC18H12C4NC2NC4NC2NH2C4NC2NH2C2H2CH3CH3C2H2CH2CH2C2H2CH2CH2NC18H12NC18H12C4NC2NC4NC2NH2C4NC2NH2C2H2CH3CH3C2H2CH2CH2C2H2CH2CH2NC18H12NC18H12C4NC2NC4NC2NH2C4NC2NH2C2H2CH3CH3C2H2CH2CH2C2H2CH2CH2NC18H12NC18H12C4NC2NC4NC2NH2C4NC2NH2
_chemical_formula_sum              "C264 H192 N32"
_cell_length_a       50.7318
_cell_length_b       50.7318
_cell_length_c       14.6819
_cell_angle_alpha    90
_cell_angle_beta     90
_cell_angle_gamma    120

_space_group_name_H-M_alt    "P 1"
_space_group_IT_number       1

loop_
  _space_group_symop_operation_xyz
  'x, y, z'

loop_
  _atom_site_type_symbol
  _atom_site_label
  _atom_site_symmetry_multiplicity
  _atom_site_fract_x
  _atom_site_fract_y
  _atom_site_fract_z
  _atom_site_occupancy
  C   C1        1.0  0.26251  0.27837  0.28119  1.0000
  C   C2        1.0  0.27862  0.26225  0.28138  1.0000
  H   H1        1.0  0.28665  0.25962  0.22041  1.0000
  H   H2        1.0  0.26071  0.28733  0.22094  1.0000
  C   C3        1.0  0.23369  0.26959  0.01845  1.0000
  H   H3        1.0  0.22063  0.28060  0.00007  1.0000
  H   H4        1.0  0.25202  0.28479  0.06372  1.0000
  H   H5        1.0  0.21853  0.24843  0.05400  1.0000
  C   C4        1.0  0.27166  0.23646  0.02047  1.0000
  H   H6        1.0  0.25994  0.23766  0.08090  1.0000
  H   H7        1.0  0.29614  0.24908  0.03330  1.0000
  H   H8        1.0  0.26464  0.21259  0.00879  1.0000
  C   C5        1.0  0.25025  0.49750  0.27955  1.0000
  C   C6        1.0  0.26637  0.02973  0.28081  1.0000
  H   H9        1.0  0.26522  0.04055  0.22349  1.0000
  H   H10       1.0  0.23853  0.48689  0.22160  1.0000
  C   C7        1.0  0.27671  0.47662  0.00293  1.0000
  H   H11       1.0  0.26587  0.48159  0.05936  1.0000
  H   H12       1.0  0.29910  0.48090  0.02429  1.0000
  C   C8        1.0  0.31296  0.04760  0.00382  1.0000
  H   H13       1.0  0.31176  0.03448  0.06400  1.0000
  H   H14       1.0  0.30339  0.06202  0.02133  1.0000
  C   C9        1.0  0.02997  0.27860  0.28666  1.0000
  C   C10       1.0  0.49775  0.26256  0.28664  1.0000
  H   H15       1.0  0.48695  0.26309  0.22838  1.0000
  H   H16       1.0  0.04061  0.29001  0.22842  1.0000
  C   C11       1.0  0.04860  0.25214  0.01242  1.0000
  H   H17       1.0  0.04335  0.22953  0.03480  1.0000
  H   H18       1.0  0.04416  0.26366  0.06802  1.0000
  C   C12       1.0  0.47764  0.21832  0.01207  1.0000
  H   H19       1.0  0.49042  0.21928  0.07282  1.0000
  H   H20       1.0  0.46385  0.22870  0.02832  1.0000
  N   N1        1.0  0.18075  0.34706  0.34937  1.0000
  C   C13       1.0  0.19781  0.33117  0.35172  1.0000
  C   C14       1.0  0.19703  0.38003  0.35001  1.0000
  C   C15       1.0  0.14778  0.33026  0.35326  1.0000
  C   C16       1.0  0.12974  0.31528  0.27608  1.0000
  C   C17       1.0  0.09748  0.29878  0.28004  1.0000
  C   C18       1.0  0.08098  0.29700  0.36047  1.0000
  C   C19       1.0  0.09945  0.31304  0.43652  1.0000
  C   C20       1.0  0.13163  0.32833  0.43386  1.0000
  C   C21       1.0  0.21806  0.33552  0.42393  1.0000
  C   C22       1.0  0.23530  0.32054  0.42601  1.0000
  C   C23       1.0  0.23276  0.29953  0.35762  1.0000
  C   C24       1.0  0.21260  0.29558  0.28490  1.0000
  C   C25       1.0  0.19592  0.31113  0.28157  1.0000
  C   C26       1.0  0.21497  0.39724  0.27515  1.0000
  C   C27       1.0  0.23163  0.42954  0.27681  1.0000
  C   C28       1.0  0.23122  0.44657  0.35322  1.0000
  C   C29       1.0  0.21263  0.42906  0.42704  1.0000
  C   C30       1.0  0.19658  0.39689  0.42622  1.0000
  H   H21       1.0  0.25038  0.32573  0.47837  1.0000
  H   H22       1.0  0.22076  0.35024  0.47545  1.0000
  H   H23       1.0  0.18207  0.30750  0.22694  1.0000
  H   H24       1.0  0.20943  0.28074  0.23327  1.0000
  H   H25       1.0  0.14011  0.31626  0.21553  1.0000
  H   H26       1.0  0.08606  0.28768  0.22231  1.0000
  H   H27       1.0  0.21632  0.38613  0.21878  1.0000
  H   H28       1.0  0.24479  0.44064  0.22150  1.0000
  H   H29       1.0  0.21030  0.43965  0.48317  1.0000
  H   H30       1.0  0.18464  0.38586  0.48306  1.0000
  H   H31       1.0  0.14328  0.33827  0.49224  1.0000
  H   H32       1.0  0.08968  0.31440  0.49578  1.0000
  N   N2        1.0  0.34765  0.18028  0.35099  1.0000
  C   C31       1.0  0.33119  0.19691  0.35249  1.0000
  C   C32       1.0  0.33170  0.14730  0.35215  1.0000
  C   C33       1.0  0.38057  0.19668  0.35514  1.0000
  C   C34       1.0  0.39655  0.21498  0.43081  1.0000
  C   C35       1.0  0.42880  0.23161  0.43357  1.0000
  C   C36       1.0  0.44704  0.23059  0.36161  1.0000
  C   C37       1.0  0.43075  0.21242  0.28553  1.0000
  C   C38       1.0  0.39853  0.19616  0.28214  1.0000
  C   C39       1.0  0.30772  0.19062  0.41584  1.0000
  C   C40       1.0  0.29179  0.20688  0.41643  1.0000
  C   C41       1.0  0.29935  0.23197  0.35777  1.0000
  C   C42       1.0  0.32296  0.23813  0.29416  1.0000
  C   C43       1.0  0.33798  0.22089  0.29057  1.0000
  C   C44       1.0  0.31879  0.13073  0.43312  1.0000
  C   C45       1.0  0.30203  0.09854  0.43427  1.0000
  C   C46       1.0  0.29892  0.08051  0.35635  1.0000
  C   C47       1.0  0.31272  0.09751  0.27577  1.0000
  C   C48       1.0  0.32811  0.12979  0.27328  1.0000
  H   H33       1.0  0.27389  0.19947  0.46041  1.0000
  H   H34       1.0  0.30126  0.17344  0.46178  1.0000
  H   H35       1.0  0.35483  0.22660  0.24342  1.0000
  H   H36       1.0  0.33006  0.25592  0.24975  1.0000
  H   H37       1.0  0.38458  0.21658  0.48450  1.0000
  H   H38       1.0  0.43893  0.24514  0.48899  1.0000
  H   H39       1.0  0.32115  0.14215  0.49261  1.0000
  H   H40       1.0  0.29153  0.08849  0.49397  1.0000
  H   H41       1.0  0.31198  0.08646  0.21679  1.0000
  H   H42       1.0  0.33693  0.14056  0.21277  1.0000
  H   H43       1.0  0.38816  0.18378  0.22509  1.0000
  H   H44       1.0  0.44233  0.21047  0.23134  1.0000
  C   C49       1.0  0.28346  0.24952  0.36142  1.0000
  C   C50       1.0  0.27144  0.25502  0.44256  1.0000
  C   C51       1.0  0.25459  0.27077  0.44190  1.0000
  C   C52       1.0  0.24963  0.28308  0.36091  1.0000
  N   N3        1.0  0.24305  0.27349  0.52249  1.0000
  C   C53       1.0  0.24691  0.26336  0.60406  1.0000
  C   C54       1.0  0.26471  0.24900  0.60575  1.0000
  N   N4        1.0  0.27584  0.24573  0.52514  1.0000
  C   C55       1.0  0.28265  0.04704  0.35830  1.0000
  C   C56       1.0  0.28152  0.02933  0.43544  1.0000
  C   C57       1.0  0.26494  0.49674  0.43456  1.0000
  C   C58       1.0  0.24874  0.47981  0.35624  1.0000
  N   N5        1.0  0.26539  0.48226  0.51202  1.0000
  C   C59       1.0  0.27978  0.49603  0.59063  1.0000
  C   C60       1.0  0.29633  0.02824  0.59165  1.0000
  N   N6        1.0  0.29640  0.04277  0.51396  1.0000
  H   H45       1.0  0.26279  0.45249  0.65287  1.0000
  H   H46       1.0  0.33689  0.06214  0.65259  1.0000
  C   C61       1.0  0.48031  0.24704  0.36451  1.0000
  C   C62       1.0  0.49753  0.24852  0.44288  1.0000
  C   C63       1.0  0.03013  0.26437  0.44243  1.0000
  C   C64       1.0  0.04755  0.28014  0.36398  1.0000
  N   N7        1.0  0.04392  0.26345  0.52080  1.0000
  C   C65       1.0  0.02964  0.24961  0.59946  1.0000
  C   C66       1.0  0.49743  0.23423  0.59992  1.0000
  N   N8        1.0  0.48333  0.23432  0.52144  1.0000
  H   H47       1.0  0.07283  0.26519  0.66268  1.0000
  H   H48       1.0  0.46252  0.19445  0.66150  1.0000
  C   C67       1.0  0.26251  0.77837  0.28119  1.0000
  C   C68       1.0  0.27862  0.76225  0.28138  1.0000
  H   H49       1.0  0.28665  0.75962  0.22041  1.0000
  H   H50       1.0  0.26071  0.78733  0.22094  1.0000
  C   C69       1.0  0.23369  0.76958  0.01845  1.0000
  H   H51       1.0  0.22063  0.78060  0.00006  1.0000
  H   H52       1.0  0.25202  0.78478  0.06372  1.0000
  H   H53       1.0  0.21852  0.74843  0.05399  1.0000
  C   C70       1.0  0.27166  0.73646  0.02047  1.0000
  H   H54       1.0  0.25993  0.73766  0.08090  1.0000
  H   H55       1.0  0.29613  0.74907  0.03330  1.0000
  H   H56       1.0  0.26464  0.71258  0.00879  1.0000
  C   C71       1.0  0.25025  0.99750  0.27955  1.0000
  C   C72       1.0  0.26637  0.52973  0.28081  1.0000
  H   H57       1.0  0.26522  0.54055  0.22349  1.0000
  H   H58       1.0  0.23853  0.98689  0.22160  1.0000
  C   C73       1.0  0.27671  0.97662  0.00293  1.0000
  H   H59       1.0  0.26587  0.98159  0.05936  1.0000
  H   H60       1.0  0.29910  0.98090  0.02429  1.0000
  C   C74       1.0  0.31296  0.54760  0.00382  1.0000
  H   H61       1.0  0.31175  0.53448  0.06400  1.0000
  H   H62       1.0  0.30338  0.56201  0.02133  1.0000
  C   C75       1.0  0.02997  0.77860  0.28666  1.0000
  C   C76       1.0  0.49774  0.76256  0.28664  1.0000
  H   H63       1.0  0.48695  0.76309  0.22838  1.0000
  H   H64       1.0  0.04061  0.79001  0.22842  1.0000
  C   C77       1.0  0.04860  0.75214  0.01242  1.0000
  H   H65       1.0  0.04335  0.72953  0.03481  1.0000
  H   H66       1.0  0.04416  0.76366  0.06802  1.0000
  C   C78       1.0  0.47764  0.71832  0.01207  1.0000
  H   H67       1.0  0.49042  0.71928  0.07282  1.0000
  H   H68       1.0  0.46385  0.72870  0.02832  1.0000
  N   N9        1.0  0.18075  0.84706  0.34937  1.0000
  C   C79       1.0  0.19781  0.83117  0.35172  1.0000
  C   C80       1.0  0.19703  0.88003  0.35001  1.0000
  C   C81       1.0  0.14778  0.83026  0.35326  1.0000
  C   C82       1.0  0.12974  0.81527  0.27609  1.0000
  C   C83       1.0  0.09748  0.79878  0.28004  1.0000
  C   C84       1.0  0.08098  0.79700  0.36048  1.0000
  C   C85       1.0  0.09945  0.81304  0.43652  1.0000
  C   C86       1.0  0.13163  0.82833  0.43386  1.0000
  C   C87       1.0  0.21806  0.83552  0.42394  1.0000
  C   C88       1.0  0.23530  0.82054  0.42602  1.0000
  C   C89       1.0  0.23276  0.79953  0.35762  1.0000
  C   C90       1.0  0.21260  0.79558  0.28490  1.0000
  C   C91       1.0  0.19592  0.81113  0.28157  1.0000
  C   C92       1.0  0.21497  0.89724  0.27515  1.0000
  C   C93       1.0  0.23163  0.92954  0.27681  1.0000
  C   C94       1.0  0.23122  0.94657  0.35322  1.0000
  C   C95       1.0  0.21263  0.92906  0.42704  1.0000
  C   C96       1.0  0.19659  0.89689  0.42622  1.0000
  H   H69       1.0  0.25038  0.82573  0.47837  1.0000
  H   H70       1.0  0.22076  0.85023  0.47545  1.0000
  H   H71       1.0  0.18208  0.80750  0.22694  1.0000
  H   H72       1.0  0.20943  0.78074  0.23327  1.0000
  H   H73       1.0  0.14011  0.81626  0.21554  1.0000
  H   H74       1.0  0.08606  0.78768  0.22232  1.0000
  H   H75       1.0  0.21632  0.88613  0.21878  1.0000
  H   H76       1.0  0.24479  0.94064  0.22150  1.0000
  H   H77       1.0  0.21030  0.93965  0.48317  1.0000
  H   H78       1.0  0.18464  0.88586  0.48306  1.0000
  H   H79       1.0  0.14328  0.83827  0.49224  1.0000
  H   H80       1.0  0.08968  0.81440  0.49578  1.0000
  N   N10       1.0  0.34765  0.68027  0.35099  1.0000
  C   C97       1.0  0.33119  0.69691  0.35249  1.0000
  C   C98       1.0  0.33170  0.64730  0.35215  1.0000
  C   C99       1.0  0.38056  0.69668  0.35514  1.0000
  C   C100      1.0  0.39655  0.71498  0.43081  1.0000
  C   C101      1.0  0.42880  0.73161  0.43357  1.0000
  C   C102      1.0  0.44705  0.73059  0.36161  1.0000
  C   C103      1.0  0.43075  0.71242  0.28553  1.0000
  C   C104      1.0  0.39853  0.69616  0.28214  1.0000
  C   C105      1.0  0.30771  0.69061  0.41584  1.0000
  C   C106      1.0  0.29179  0.70688  0.41643  1.0000
  C   C107      1.0  0.29935  0.73197  0.35777  1.0000
  C   C108      1.0  0.32296  0.73814  0.29416  1.0000
  C   C109      1.0  0.33798  0.72089  0.29057  1.0000
  C   C110      1.0  0.31879  0.63072  0.43312  1.0000
  C   C111      1.0  0.30203  0.59854  0.43427  1.0000
  C   C112      1.0  0.29892  0.58051  0.35635  1.0000
  C   C113      1.0  0.31272  0.59751  0.27577  1.0000
  C   C114      1.0  0.32811  0.62979  0.27328  1.0000
  H   H81       1.0  0.27389  0.69947  0.46041  1.0000
  H   H82       1.0  0.30126  0.67344  0.46177  1.0000
  H   H83       1.0  0.35483  0.72660  0.24342  1.0000
  H   H84       1.0  0.33006  0.75592  0.24975  1.0000
  H   H85       1.0  0.38458  0.71658  0.48450  1.0000
  H   H86       1.0  0.43893  0.74514  0.48899  1.0000
  H   H87       1.0  0.32115  0.64215  0.49261  1.0000
  H   H88       1.0  0.29153  0.58849  0.49397  1.0000
  H   H89       1.0  0.31198  0.58646  0.21679  1.0000
  H   H90       1.0  0.33693  0.64056  0.21277  1.0000
  H   H91       1.0  0.38817  0.68378  0.22509  1.0000
  H   H92       1.0  0.44233  0.71047  0.23134  1.0000
  C   C115      1.0  0.28346  0.74952  0.36142  1.0000
  C   C116      1.0  0.27144  0.75502  0.44256  1.0000
  C   C117      1.0  0.25459  0.77077  0.44190  1.0000
  C   C118      1.0  0.24963  0.78308  0.36091  1.0000
  N   N11       1.0  0.24305  0.77348  0.52249  1.0000
  C   C119      1.0  0.24690  0.76336  0.60406  1.0000
  C   C120      1.0  0.26471  0.74900  0.60575  1.0000
  N   N12       1.0  0.27584  0.74573  0.52514  1.0000
  C   C121      1.0  0.28265  0.54704  0.35830  1.0000
  C   C122      1.0  0.28152  0.52933  0.43544  1.0000
  C   C123      1.0  0.26494  0.99674  0.43456  1.0000
  C   C124      1.0  0.24874  0.97981  0.35624  1.0000
  N   N13       1.0  0.26539  0.98226  0.51202  1.0000
  C   C125      1.0  0.27978  0.99603  0.59063  1.0000
  C   C126      1.0  0.29633  0.52824  0.59165  1.0000
  N   N14       1.0  0.29639  0.54277  0.51396  1.0000
  H   H93       1.0  0.26279  0.95249  0.65287  1.0000
  H   H94       1.0  0.33689  0.56214  0.65259  1.0000
  C   C127      1.0  0.48031  0.74704  0.36451  1.0000
  C   C128      1.0  0.49753  0.74852  0.44288  1.0000
  C   C129      1.0  0.03013  0.76437  0.44244  1.0000
  C   C130      1.0  0.04755  0.78014  0.36398  1.0000
  N   N15       1.0  0.04392  0.76345  0.52080  1.0000
  C   C131      1.0  0.02964  0.74961  0.59946  1.0000
  C   C132      1.0  0.49743  0.73423  0.59992  1.0000
  N   N16       1.0  0.48333  0.73432  0.52144  1.0000
  H   H95       1.0  0.07283  0.76519  0.66268  1.0000
  H   H96       1.0  0.46251  0.69445  0.66150  1.0000
  C   C133      1.0  0.76251  0.27837  0.28119  1.0000
  C   C134      1.0  0.77862  0.26225  0.28138  1.0000
  H   H97       1.0  0.78665  0.25962  0.22041  1.0000
  H   H98       1.0  0.76071  0.28733  0.22094  1.0000
  C   C135      1.0  0.73369  0.26959  0.01845  1.0000
  H   H99       1.0  0.72063  0.28060  0.00007  1.0000
  H   H100      1.0  0.75202  0.28479  0.06372  1.0000
  H   H101      1.0  0.71853  0.24843  0.05400  1.0000
  C   C136      1.0  0.77166  0.23646  0.02047  1.0000
  H   H102      1.0  0.75994  0.23766  0.08090  1.0000
  H   H103      1.0  0.79614  0.24908  0.03330  1.0000
  H   H104      1.0  0.76464  0.21259  0.00879  1.0000
  C   C137      1.0  0.75025  0.49750  0.27955  1.0000
  C   C138      1.0  0.76637  0.02973  0.28081  1.0000
  H   H105      1.0  0.76522  0.04055  0.22349  1.0000
  H   H106      1.0  0.73853  0.48689  0.22160  1.0000
  C   C139      1.0  0.77671  0.47662  0.00293  1.0000
  H   H107      1.0  0.76587  0.48159  0.05936  1.0000
  H   H108      1.0  0.79910  0.48090  0.02429  1.0000
  C   C140      1.0  0.81296  0.04760  0.00382  1.0000
  H   H109      1.0  0.81176  0.03448  0.06400  1.0000
  H   H110      1.0  0.80339  0.06202  0.02133  1.0000
  C   C141      1.0  0.52997  0.27860  0.28666  1.0000
  C   C142      1.0  0.99774  0.26256  0.28664  1.0000
  H   H111      1.0  0.98695  0.26309  0.22838  1.0000
  H   H112      1.0  0.54061  0.29001  0.22842  1.0000
  C   C143      1.0  0.54860  0.25214  0.01242  1.0000
  H   H113      1.0  0.54335  0.22953  0.03480  1.0000
  H   H114      1.0  0.54416  0.26366  0.06802  1.0000
  C   C144      1.0  0.97764  0.21832  0.01207  1.0000
  H   H115      1.0  0.99042  0.21928  0.07282  1.0000
  H   H116      1.0  0.96385  0.22870  0.02832  1.0000
  N   N17       1.0  0.68075  0.34706  0.34937  1.0000
  C   C145      1.0  0.69781  0.33117  0.35172  1.0000
  C   C146      1.0  0.69703  0.38003  0.35001  1.0000
  C   C147      1.0  0.64778  0.33026  0.35326  1.0000
  C   C148      1.0  0.62974  0.31528  0.27608  1.0000
  C   C149      1.0  0.59749  0.29878  0.28004  1.0000
  C   C150      1.0  0.58098  0.29700  0.36047  1.0000
  C   C151      1.0  0.59945  0.31304  0.43652  1.0000
  C   C152      1.0  0.63163  0.32833  0.43386  1.0000
  C   C153      1.0  0.71806  0.33552  0.42393  1.0000
  C   C154      1.0  0.73530  0.32054  0.42601  1.0000
  C   C155      1.0  0.73276  0.29953  0.35762  1.0000
  C   C156      1.0  0.71260  0.29558  0.28490  1.0000
  C   C157      1.0  0.69592  0.31113  0.28157  1.0000
  C   C158      1.0  0.71497  0.39724  0.27515  1.0000
  C   C159      1.0  0.73163  0.42954  0.27681  1.0000
  C   C160      1.0  0.73122  0.44657  0.35322  1.0000
  C   C161      1.0  0.71263  0.42906  0.42704  1.0000
  C   C162      1.0  0.69658  0.39689  0.42622  1.0000
  H   H117      1.0  0.75038  0.32573  0.47837  1.0000
  H   H118      1.0  0.72076  0.35024  0.47545  1.0000
  H   H119      1.0  0.68207  0.30750  0.22694  1.0000
  H   H120      1.0  0.70943  0.28074  0.23327  1.0000
  H   H121      1.0  0.64011  0.31626  0.21553  1.0000
  H   H122      1.0  0.58606  0.28768  0.22231  1.0000
  H   H123      1.0  0.71632  0.38613  0.21878  1.0000
  H   H124      1.0  0.74479  0.44064  0.22150  1.0000
  H   H125      1.0  0.71030  0.43965  0.48317  1.0000
  H   H126      1.0  0.68464  0.38586  0.48306  1.0000
  H   H127      1.0  0.64328  0.33827  0.49224  1.0000
  H   H128      1.0  0.58968  0.31440  0.49578  1.0000
  N   N18       1.0  0.84765  0.18028  0.35099  1.0000
  C   C163      1.0  0.83119  0.19691  0.35249  1.0000
  C   C164      1.0  0.83170  0.14730  0.35215  1.0000
  C   C165      1.0  0.88056  0.19668  0.35514  1.0000
  C   C166      1.0  0.89655  0.21498  0.43081  1.0000
  C   C167      1.0  0.92880  0.23161  0.43357  1.0000
  C   C168      1.0  0.94705  0.23059  0.36161  1.0000
  C   C169      1.0  0.93075  0.21242  0.28553  1.0000
  C   C170      1.0  0.89853  0.19616  0.28214  1.0000
  C   C171      1.0  0.80771  0.19062  0.41584  1.0000
  C   C172      1.0  0.79179  0.20688  0.41643  1.0000
  C   C173      1.0  0.79935  0.23197  0.35777  1.0000
  C   C174      1.0  0.82296  0.23813  0.29416  1.0000
  C   C175      1.0  0.83798  0.22089  0.29057  1.0000
  C   C176      1.0  0.81879  0.13073  0.43312  1.0000
  C   C177      1.0  0.80203  0.09854  0.43427  1.0000
  C   C178      1.0  0.79892  0.08051  0.35635  1.0000
  C   C179      1.0  0.81272  0.09751  0.27577  1.0000
  C   C180      1.0  0.82811  0.12979  0.27328  1.0000
  H   H129      1.0  0.77389  0.19947  0.46041  1.0000
  H   H130      1.0  0.80126  0.17344  0.46178  1.0000
  H   H131      1.0  0.85483  0.22660  0.24342  1.0000
  H   H132      1.0  0.83006  0.25592  0.24975  1.0000
  H   H133      1.0  0.88458  0.21658  0.48450  1.0000
  H   H134      1.0  0.93893  0.24514  0.48899  1.0000
  H   H135      1.0  0.82115  0.14215  0.49261  1.0000
  H   H136      1.0  0.79153  0.08849  0.49397  1.0000
  H   H137      1.0  0.81198  0.08646  0.21679  1.0000
  H   H138      1.0  0.83693  0.14056  0.21277  1.0000
  H   H139      1.0  0.88816  0.18378  0.22509  1.0000
  H   H140      1.0  0.94233  0.21047  0.23134  1.0000
  C   C181      1.0  0.78346  0.24952  0.36142  1.0000
  C   C182      1.0  0.77144  0.25502  0.44256  1.0000
  C   C183      1.0  0.75459  0.27077  0.44190  1.0000
  C   C184      1.0  0.74963  0.28308  0.36091  1.0000
  N   N19       1.0  0.74305  0.27349  0.52249  1.0000
  C   C185      1.0  0.74691  0.26336  0.60406  1.0000
  C   C186      1.0  0.76471  0.24900  0.60575  1.0000
  N   N20       1.0  0.77584  0.24573  0.52514  1.0000
  C   C187      1.0  0.78265  0.04704  0.35830  1.0000
  C   C188      1.0  0.78152  0.02933  0.43544  1.0000
  C   C189      1.0  0.76494  0.49674  0.43456  1.0000
  C   C190      1.0  0.74874  0.47981  0.35624  1.0000
  N   N21       1.0  0.76539  0.48226  0.51202  1.0000
  C   C191      1.0  0.77978  0.49603  0.59063  1.0000
  C   C192      1.0  0.79633  0.02824  0.59165  1.0000
  N   N22       1.0  0.79639  0.04277  0.51396  1.0000
  H   H141      1.0  0.76279  0.45249  0.65287  1.0000
  H   H142      1.0  0.83689  0.06214  0.65259  1.0000
  C   C193      1.0  0.98031  0.24704  0.36451  1.0000
  C   C194      1.0  0.99753  0.24852  0.44288  1.0000
  C   C195      1.0  0.53013  0.26437  0.44243  1.0000
  C   C196      1.0  0.54755  0.28014  0.36398  1.0000
  N   N23       1.0  0.54392  0.26345  0.52080  1.0000
  C   C197      1.0  0.52964  0.24961  0.59946  1.0000
  C   C198      1.0  0.99743  0.23423  0.59992  1.0000
  N   N24       1.0  0.98333  0.23432  0.52144  1.0000
  H   H143      1.0  0.57283  0.26519  0.66268  1.0000
  H   H144      1.0  0.96252  0.19445  0.66150  1.0000
  C   C199      1.0  0.76251  0.77837  0.28119  1.0000
  C   C200      1.0  0.77861  0.76225  0.28138  1.0000
  H   H145      1.0  0.78665  0.75962  0.22041  1.0000
  H   H146      1.0  0.76071  0.78733  0.22094  1.0000
  C   C201      1.0  0.73368  0.76958  0.01845  1.0000
  H   H147      1.0  0.72063  0.78060  0.00006  1.0000
  H   H148      1.0  0.75202  0.78478  0.06372  1.0000
  H   H149      1.0  0.71852  0.74843  0.05399  1.0000
  C   C202      1.0  0.77166  0.73646  0.02047  1.0000
  H   H150      1.0  0.75993  0.73766  0.08090  1.0000
  H   H151      1.0  0.79614  0.74907  0.03330  1.0000
  H   H152      1.0  0.76464  0.71258  0.00879  1.0000
  C   C203      1.0  0.75025  0.99750  0.27955  1.0000
  C   C204      1.0  0.76637  0.52973  0.28081  1.0000
  H   H153      1.0  0.76522  0.54055  0.22349  1.0000
  H   H154      1.0  0.73853  0.98689  0.22160  1.0000
  C   C205      1.0  0.77671  0.97662  0.00293  1.0000
  H   H155      1.0  0.76587  0.98159  0.05936  1.0000
  H   H156      1.0  0.79910  0.98090  0.02429  1.0000
  C   C206      1.0  0.81296  0.54760  0.00382  1.0000
  H   H157      1.0  0.81175  0.53448  0.06400  1.0000
  H   H158      1.0  0.80338  0.56201  0.02133  1.0000
  C   C207      1.0  0.52997  0.77860  0.28666  1.0000
  C   C208      1.0  0.99774  0.76256  0.28664  1.0000
  H   H159      1.0  0.98695  0.76309  0.22838  1.0000
  H   H160      1.0  0.54061  0.79001  0.22842  1.0000
  C   C209      1.0  0.54860  0.75214  0.01242  1.0000
  H   H161      1.0  0.54335  0.72953  0.03481  1.0000
  H   H162      1.0  0.54416  0.76366  0.06802  1.0000
  C   C210      1.0  0.97764  0.71832  0.01207  1.0000
  H   H163      1.0  0.99042  0.71928  0.07282  1.0000
  H   H164      1.0  0.96385  0.72870  0.02832  1.0000
  N   N25       1.0  0.68075  0.84706  0.34937  1.0000
  C   C211      1.0  0.69781  0.83117  0.35172  1.0000
  C   C212      1.0  0.69703  0.88003  0.35001  1.0000
  C   C213      1.0  0.64778  0.83026  0.35326  1.0000
  C   C214      1.0  0.62974  0.81527  0.27609  1.0000
  C   C215      1.0  0.59748  0.79878  0.28004  1.0000
  C   C216      1.0  0.58098  0.79700  0.36048  1.0000
  C   C217      1.0  0.59944  0.81304  0.43652  1.0000
  C   C218      1.0  0.63163  0.82833  0.43386  1.0000
  C   C219      1.0  0.71806  0.83552  0.42394  1.0000
  C   C220      1.0  0.73530  0.82054  0.42602  1.0000
  C   C221      1.0  0.73276  0.79953  0.35762  1.0000
  C   C222      1.0  0.71260  0.79558  0.28490  1.0000
  C   C223      1.0  0.69592  0.81113  0.28157  1.0000
  C   C224      1.0  0.71497  0.89724  0.27515  1.0000
  C   C225      1.0  0.73163  0.92954  0.27681  1.0000
  C   C226      1.0  0.73122  0.94657  0.35322  1.0000
  C   C227      1.0  0.71263  0.92906  0.42704  1.0000
  C   C228      1.0  0.69659  0.89689  0.42622  1.0000
  H   H165      1.0  0.75038  0.82573  0.47837  1.0000
  H   H166      1.0  0.72076  0.85023  0.47545  1.0000
  H   H167      1.0  0.68207  0.80750  0.22694  1.0000
  H   H168      1.0  0.70943  0.78074  0.23327  1.0000
  H   H169      1.0  0.64011  0.81626  0.21554  1.0000
  H   H170      1.0  0.58606  0.78768  0.22232  1.0000
  H   H171      1.0  0.71632  0.88613  0.21878  1.0000
  H   H172      1.0  0.74479  0.94064  0.22150  1.0000
  H   H173      1.0  0.71030  0.93965  0.48317  1.0000
  H   H174      1.0  0.68464  0.88586  0.48306  1.0000
  H   H175      1.0  0.64328  0.83827  0.49224  1.0000
  H   H176      1.0  0.58968  0.81440  0.49578  1.0000
  N   N26       1.0  0.84765  0.68027  0.35099  1.0000
  C   C229      1.0  0.83119  0.69691  0.35249  1.0000
  C   C230      1.0  0.83171  0.64730  0.35215  1.0000
  C   C231      1.0  0.88057  0.69668  0.35514  1.0000
  C   C232      1.0  0.89655  0.71498  0.43081  1.0000
  C   C233      1.0  0.92880  0.73161  0.43357  1.0000
  C   C234      1.0  0.94705  0.73059  0.36161  1.0000
  C   C235      1.0  0.93075  0.71242  0.28553  1.0000
  C   C236      1.0  0.89853  0.69616  0.28214  1.0000
  C   C237      1.0  0.80771  0.69061  0.41584  1.0000
  C   C238      1.0  0.79179  0.70688  0.41643  1.0000
  C   C239      1.0  0.79935  0.73197  0.35777  1.0000
  C   C240      1.0  0.82296  0.73814  0.29416  1.0000
  C   C241      1.0  0.83798  0.72089  0.29057  1.0000
  C   C242      1.0  0.81879  0.63072  0.43312  1.0000
  C   C243      1.0  0.80203  0.59854  0.43427  1.0000
  C   C244      1.0  0.79892  0.58051  0.35635  1.0000
  C   C245      1.0  0.81272  0.59751  0.27577  1.0000
  C   C246      1.0  0.82811  0.62979  0.27328  1.0000
  H   H177      1.0  0.77389  0.69947  0.46041  1.0000
  H   H178      1.0  0.80126  0.67344  0.46177  1.0000
  H   H179      1.0  0.85483  0.72660  0.24342  1.0000
  H   H180      1.0  0.83006  0.75592  0.24975  1.0000
  H   H181      1.0  0.88458  0.71658  0.48450  1.0000
  H   H182      1.0  0.93893  0.74514  0.48899  1.0000
  H   H183      1.0  0.82115  0.64215  0.49261  1.0000
  H   H184      1.0  0.79153  0.58849  0.49397  1.0000
  H   H185      1.0  0.81198  0.58646  0.21679  1.0000
  H   H186      1.0  0.83693  0.64056  0.21277  1.0000
  H   H187      1.0  0.88817  0.68378  0.22509  1.0000
  H   H188      1.0  0.94233  0.71047  0.23134  1.0000
  C   C247      1.0  0.78346  0.74952  0.36142  1.0000
  C   C248      1.0  0.77144  0.75502  0.44256  1.0000
  C   C249      1.0  0.75459  0.77077  0.44190  1.0000
  C   C250      1.0  0.74963  0.78308  0.36091  1.0000
  N   N27       1.0  0.74305  0.77348  0.52249  1.0000
  C   C251      1.0  0.74690  0.76336  0.60406  1.0000
  C   C252      1.0  0.76470  0.74900  0.60575  1.0000
  N   N28       1.0  0.77584  0.74573  0.52514  1.0000
  C   C253      1.0  0.78265  0.54704  0.35830  1.0000
  C   C254      1.0  0.78152  0.52933  0.43544  1.0000
  C   C255      1.0  0.76494  0.99674  0.43456  1.0000
  C   C256      1.0  0.74874  0.97981  0.35624  1.0000
  N   N29       1.0  0.76539  0.98226  0.51202  1.0000
  C   C257      1.0  0.77978  0.99603  0.59063  1.0000
  C   C258      1.0  0.79633  0.52824  0.59165  1.0000
  N   N30       1.0  0.79639  0.54277  0.51396  1.0000
  H   H189      1.0  0.76279  0.95249  0.65287  1.0000
  H   H190      1.0  0.83689  0.56214  0.65259  1.0000
  C   C259      1.0  0.98031  0.74704  0.36451  1.0000
  C   C260      1.0  0.99753  0.74852  0.44288  1.0000
  C   C261      1.0  0.53013  0.76437  0.44244  1.0000
  C   C262      1.0  0.54755  0.78014  0.36398  1.0000
  N   N31       1.0  0.54392  0.76345  0.52080  1.0000
  C   C263      1.0  0.52964  0.74961  0.59946  1.0000
  C   C264      1.0  0.99743  0.73423  0.59992  1.0000
  N   N32       1.0  0.98333  0.73432  0.52144  1.0000
  H   H191      1.0  0.57283  0.76519  0.66268  1.0000
  H   H192      1.0  0.96252  0.69445  0.66150  1.0000
