data_image0
_chemical_formula_structural       C4HNH2C4HNH2C4HNH2C4HNH2C4HNH2C4HNH2C2H2C2H2C2H2C2H2C2H2C2H2C4HNH2C4HNH2C4HNH2C4HNH2C4HNH2C4HNH2CNCNCNCNCNCNCNCNCNCNCNCNCNCNCNCNCNCNCNCNCNCNCNCNCNCNCNCNCNCNCNCNCNCNCNCNC2H2C2H2C2H2C2H2C2H2C2H2C4HNH2C4HNH2C4HNH2C4HNH2C4HNH2C4HNH2C2H2C2H2C2H2C2H2C2H2C2H2
_chemical_formula_sum              "C144 H90 N54"
_cell_length_a       39.3719
_cell_length_b       39.3718
_cell_length_c       14.7959
_cell_angle_alpha    90
_cell_angle_beta     90
_cell_angle_gamma    120

_space_group_name_H-M_alt    "P 1"
_space_group_IT_number       1

loop_
  _space_group_symop_operation_xyz
  'x, y, z'

loop_
  _atom_site_type_symbol
  _atom_site_label
  _atom_site_symmetry_multiplicity
  _atom_site_fract_x
  _atom_site_fract_y
  _atom_site_fract_z
  _atom_site_occupancy
  C   C1        1.0  0.27653  0.46577  0.33459  1.0000
  C   C2        1.0  0.24260  0.43320  0.29840  1.0000
  C   C3        1.0  0.20583  0.43193  0.29146  1.0000
  C   C4        1.0  0.20198  0.46385  0.32610  1.0000
  H   H1        1.0  0.24522  0.41051  0.27241  1.0000
  N   N1        1.0  0.17633  0.40051  0.24799  1.0000
  H   H2        1.0  0.18030  0.37989  0.22273  1.0000
  H   H3        1.0  0.15224  0.39971  0.23108  1.0000
  C   C5        1.0  0.56981  0.83251  0.33469  1.0000
  C   C6        1.0  0.60235  0.83113  0.29839  1.0000
  C   C7        1.0  0.60363  0.79564  0.29152  1.0000
  C   C8        1.0  0.57172  0.75988  0.32624  1.0000
  H   H4        1.0  0.62504  0.85644  0.27237  1.0000
  N   N2        1.0  0.63503  0.79753  0.24801  1.0000
  H   H5        1.0  0.65571  0.82215  0.22294  1.0000
  H   H6        1.0  0.63598  0.77430  0.23146  1.0000
  C   C9        1.0  0.20303  0.75901  0.33465  1.0000
  C   C10       1.0  0.20440  0.79294  0.29851  1.0000
  C   C11       1.0  0.23990  0.82971  0.29161  1.0000
  C   C12       1.0  0.27566  0.83355  0.32625  1.0000
  H   H7        1.0  0.17909  0.79034  0.27251  1.0000
  N   N3        1.0  0.23800  0.85924  0.24819  1.0000
  H   H8        1.0  0.21341  0.85528  0.22293  1.0000
  H   H9        1.0  0.26128  0.88332  0.23131  1.0000
  C   C13       1.0  0.75634  0.57239  0.33454  1.0000
  C   C14       1.0  0.79027  0.60496  0.29841  1.0000
  C   C15       1.0  0.82705  0.60625  0.29152  1.0000
  C   C16       1.0  0.83089  0.57431  0.32606  1.0000
  H   H10       1.0  0.78766  0.62768  0.27253  1.0000
  N   N4        1.0  0.85657  0.63770  0.24818  1.0000
  H   H11       1.0  0.85264  0.65840  0.22323  1.0000
  H   H12       1.0  0.88076  0.63866  0.23159  1.0000
  C   C17       1.0  0.46308  0.20565  0.33448  1.0000
  C   C18       1.0  0.43051  0.20701  0.29834  1.0000
  C   C19       1.0  0.42923  0.24251  0.29141  1.0000
  C   C20       1.0  0.46116  0.27828  0.32601  1.0000
  H   H13       1.0  0.40780  0.18169  0.27237  1.0000
  N   N5        1.0  0.39781  0.24060  0.24799  1.0000
  H   H14       1.0  0.37717  0.21600  0.22275  1.0000
  H   H15       1.0  0.39700  0.26387  0.23108  1.0000
  C   C21       1.0  0.82983  0.27914  0.33446  1.0000
  C   C22       1.0  0.82845  0.24522  0.29822  1.0000
  C   C23       1.0  0.79296  0.20844  0.29136  1.0000
  C   C24       1.0  0.75720  0.20459  0.32605  1.0000
  H   H16       1.0  0.85377  0.24784  0.27222  1.0000
  N   N6        1.0  0.79486  0.17893  0.24792  1.0000
  H   H17       1.0  0.81948  0.18286  0.22286  1.0000
  H   H18       1.0  0.77163  0.15474  0.23136  1.0000
  C   C25       1.0  0.16922  0.61349  0.30762  1.0000
  C   C26       1.0  0.16921  0.57775  0.30269  1.0000
  H   H19       1.0  0.18858  0.63622  0.26769  1.0000
  H   H20       1.0  0.18857  0.57569  0.26002  1.0000
  C   C27       1.0  0.42205  0.57748  0.30761  1.0000
  C   C28       1.0  0.45781  0.61319  0.30263  1.0000
  H   H21       1.0  0.39937  0.57408  0.26745  1.0000
  H   H22       1.0  0.45990  0.63458  0.25982  1.0000
  C   C29       1.0  0.45806  0.86627  0.30773  1.0000
  C   C30       1.0  0.42233  0.86628  0.30286  1.0000
  H   H23       1.0  0.46142  0.84691  0.26778  1.0000
  H   H24       1.0  0.40090  0.84692  0.26021  1.0000
  C   C31       1.0  0.86365  0.42468  0.30745  1.0000
  C   C32       1.0  0.86370  0.46044  0.30252  1.0000
  H   H25       1.0  0.84436  0.40200  0.26730  1.0000
  H   H26       1.0  0.84439  0.46254  0.25975  1.0000
  C   C33       1.0  0.61081  0.46068  0.30749  1.0000
  C   C34       1.0  0.57507  0.42496  0.30255  1.0000
  H   H27       1.0  0.63355  0.46406  0.26755  1.0000
  H   H28       1.0  0.57301  0.40354  0.25986  1.0000
  C   C35       1.0  0.57479  0.17183  0.30739  1.0000
  C   C36       1.0  0.61050  0.17179  0.30242  1.0000
  H   H29       1.0  0.57138  0.19110  0.26722  1.0000
  H   H30       1.0  0.63189  0.19109  0.25961  1.0000
  C   C37       1.0  0.97365  0.36503  0.34764  1.0000
  C   C38       1.0  0.99420  0.36495  0.26943  1.0000
  C   C39       1.0  0.03593  0.38551  0.26615  1.0000
  C   C40       1.0  0.05765  0.40611  0.34445  1.0000
  H   H31       1.0  0.97866  0.35316  0.21113  1.0000
  N   N7        1.0  0.05377  0.38703  0.18627  1.0000
  H   H32       1.0  0.03863  0.37302  0.13315  1.0000
  H   H33       1.0  0.08212  0.40048  0.18060  1.0000
  C   C41       1.0  0.67049  0.63038  0.34796  1.0000
  C   C42       1.0  0.67064  0.65106  0.26979  1.0000
  C   C43       1.0  0.65008  0.67223  0.26648  1.0000
  C   C44       1.0  0.62943  0.67324  0.34474  1.0000
  H   H34       1.0  0.68257  0.64740  0.21161  1.0000
  N   N8        1.0  0.64868  0.68866  0.18667  1.0000
  H   H35       1.0  0.66268  0.68751  0.13354  1.0000
  H   H36       1.0  0.63517  0.70350  0.18093  1.0000
  C   C45       1.0  0.40513  0.06181  0.34795  1.0000
  C   C46       1.0  0.38457  0.04129  0.26965  1.0000
  C   C47       1.0  0.36345  0.99956  0.26638  1.0000
  C   C48       1.0  0.36236  0.97790  0.34477  1.0000
  H   H37       1.0  0.38836  0.05684  0.21134  1.0000
  N   N9        1.0  0.34717  0.98171  0.18648  1.0000
  H   H38       1.0  0.34830  0.99685  0.13334  1.0000
  H   H39       1.0  0.33229  0.95337  0.18080  1.0000
  C   C49       1.0  0.05919  0.67315  0.34800  1.0000
  C   C50       1.0  0.03865  0.67329  0.26983  1.0000
  C   C51       1.0  0.99693  0.65273  0.26653  1.0000
  C   C52       1.0  0.97523  0.63208  0.34476  1.0000
  H   H40       1.0  0.05424  0.68522  0.21165  1.0000
  N   N10       1.0  0.97909  0.65131  0.18671  1.0000
  H   H41       1.0  0.99424  0.66530  0.13357  1.0000
  H   H42       1.0  0.95074  0.63780  0.18096  1.0000
  C   C53       1.0  0.36243  0.40783  0.34802  1.0000
  C   C54       1.0  0.36225  0.38720  0.26972  1.0000
  C   C55       1.0  0.38281  0.36603  0.26634  1.0000
  C   C56       1.0  0.40344  0.36489  0.34456  1.0000
  H   H43       1.0  0.35044  0.39097  0.21148  1.0000
  N   N11       1.0  0.38428  0.34970  0.18642  1.0000
  H   H44       1.0  0.37025  0.35085  0.13334  1.0000
  H   H45       1.0  0.39771  0.33480  0.18067  1.0000
  C   C57       1.0  0.62774  0.97635  0.34788  1.0000
  C   C58       1.0  0.64841  0.99686  0.26967  1.0000
  C   C59       1.0  0.66957  0.03858  0.26636  1.0000
  C   C60       1.0  0.67059  0.06026  0.34463  1.0000
  H   H46       1.0  0.64474  0.98127  0.21150  1.0000
  N   N12       1.0  0.68599  0.05642  0.18655  1.0000
  H   H47       1.0  0.68483  0.04127  0.13341  1.0000
  H   H48       1.0  0.70082  0.08476  0.18080  1.0000
  C   C61       1.0  0.09695  0.43757  0.33911  1.0000
  N   N13       1.0  0.12958  0.43399  0.33220  1.0000
  C   C62       1.0  0.16648  0.46606  0.32697  1.0000
  N   N14       1.0  0.16919  0.50206  0.33081  1.0000
  C   C63       1.0  0.13758  0.50695  0.33944  1.0000
  N   N15       1.0  0.10188  0.47413  0.34360  1.0000
  C   C64       1.0  0.59796  0.68109  0.33929  1.0000
  N   N16       1.0  0.60156  0.71731  0.33238  1.0000
  C   C65       1.0  0.56949  0.72215  0.32710  1.0000
  N   N17       1.0  0.53348  0.68888  0.33092  1.0000
  C   C66       1.0  0.52858  0.65237  0.33957  1.0000
  N   N18       1.0  0.56138  0.64946  0.34376  1.0000
  C   C67       1.0  0.35445  0.93858  0.33935  1.0000
  N   N19       1.0  0.31823  0.90596  0.33240  1.0000
  C   C68       1.0  0.31339  0.86905  0.32717  1.0000
  N   N20       1.0  0.34667  0.86633  0.33100  1.0000
  C   C69       1.0  0.38318  0.89793  0.33968  1.0000
  N   N21       1.0  0.38607  0.93363  0.34385  1.0000
  C   C70       1.0  0.93592  0.60059  0.33940  1.0000
  N   N22       1.0  0.90329  0.60417  0.33235  1.0000
  C   C71       1.0  0.86640  0.57210  0.32696  1.0000
  N   N23       1.0  0.86369  0.53610  0.33079  1.0000
  C   C72       1.0  0.89530  0.53122  0.33954  1.0000
  N   N24       1.0  0.93099  0.56403  0.34380  1.0000
  C   C73       1.0  0.43489  0.35704  0.33908  1.0000
  N   N25       1.0  0.43130  0.32083  0.33217  1.0000
  C   C74       1.0  0.46338  0.31600  0.32689  1.0000
  N   N26       1.0  0.49938  0.34929  0.33069  1.0000
  C   C75       1.0  0.50427  0.38579  0.33932  1.0000
  N   N27       1.0  0.47146  0.38868  0.34353  1.0000
  C   C76       1.0  0.67843  0.09957  0.33918  1.0000
  N   N28       1.0  0.71464  0.13219  0.33225  1.0000
  C   C77       1.0  0.71947  0.16909  0.32695  1.0000
  N   N29       1.0  0.68619  0.17181  0.33075  1.0000
  C   C78       1.0  0.64969  0.14021  0.33941  1.0000
  N   N30       1.0  0.64680  0.10451  0.34363  1.0000
  C   C79       1.0  0.43660  0.10098  0.34232  1.0000
  N   N31       1.0  0.43306  0.13365  0.33577  1.0000
  C   C80       1.0  0.46540  0.17047  0.33734  1.0000
  N   N32       1.0  0.50129  0.17330  0.34572  1.0000
  C   C81       1.0  0.50595  0.14150  0.35308  1.0000
  N   N33       1.0  0.47305  0.10582  0.35055  1.0000
  C   C82       1.0  0.67816  0.59888  0.34244  1.0000
  N   N34       1.0  0.71437  0.60241  0.33586  1.0000
  C   C83       1.0  0.71884  0.57007  0.33741  1.0000
  N   N35       1.0  0.68578  0.53418  0.34579  1.0000
  C   C84       1.0  0.64932  0.52953  0.35315  1.0000
  N   N36       1.0  0.64655  0.56243  0.35064  1.0000
  C   C85       1.0  0.93449  0.35735  0.34191  1.0000
  N   N37       1.0  0.90182  0.32113  0.33555  1.0000
  C   C86       1.0  0.86500  0.31665  0.33724  1.0000
  N   N38       1.0  0.86217  0.34970  0.34570  1.0000
  C   C87       1.0  0.89397  0.38616  0.35301  1.0000
  N   N39       1.0  0.92965  0.38895  0.35031  1.0000
  C   C88       1.0  0.59627  0.93718  0.34229  1.0000
  N   N40       1.0  0.59981  0.90451  0.33584  1.0000
  C   C89       1.0  0.56748  0.86768  0.33749  1.0000
  N   N41       1.0  0.53159  0.86485  0.34593  1.0000
  C   C90       1.0  0.52693  0.89664  0.35324  1.0000
  N   N42       1.0  0.55982  0.93233  0.35060  1.0000
  C   C91       1.0  0.35473  0.43930  0.34246  1.0000
  N   N43       1.0  0.31851  0.43575  0.33587  1.0000
  C   C92       1.0  0.31403  0.46809  0.33747  1.0000
  N   N44       1.0  0.34708  0.50398  0.34590  1.0000
  C   C93       1.0  0.38354  0.50864  0.35329  1.0000
  N   N45       1.0  0.38633  0.47574  0.35074  1.0000
  C   C94       1.0  0.09835  0.68083  0.34249  1.0000
  N   N46       1.0  0.13103  0.71703  0.33592  1.0000
  C   C95       1.0  0.16785  0.72151  0.33747  1.0000
  N   N47       1.0  0.17067  0.68844  0.34587  1.0000
  C   C96       1.0  0.13886  0.65199  0.35323  1.0000
  N   N48       1.0  0.10319  0.64921  0.35069  1.0000
  C   C97       1.0  0.23602  0.49580  0.36459  1.0000
  C   C98       1.0  0.27217  0.49698  0.36787  1.0000
  H   H49       1.0  0.23512  0.51917  0.39230  1.0000
  H   H50       1.0  0.29531  0.52102  0.39690  1.0000
  C   C99       1.0  0.53979  0.76197  0.36482  1.0000
  C   C100      1.0  0.53862  0.79695  0.36810  1.0000
  H   H51       1.0  0.51644  0.73772  0.39262  1.0000
  H   H52       1.0  0.51460  0.79607  0.39720  1.0000
  C   C101      1.0  0.27357  0.79950  0.36469  1.0000
  C   C102      1.0  0.23859  0.76335  0.36793  1.0000
  H   H53       1.0  0.29784  0.80039  0.39239  1.0000
  H   H54       1.0  0.23948  0.74020  0.39692  1.0000
  C   C103      1.0  0.79684  0.54234  0.36445  1.0000
  C   C104      1.0  0.76069  0.54116  0.36774  1.0000
  H   H55       1.0  0.79773  0.51895  0.39212  1.0000
  H   H56       1.0  0.73754  0.51711  0.39672  1.0000
  C   C105      1.0  0.49312  0.27620  0.36446  1.0000
  C   C106      1.0  0.49430  0.24122  0.36772  1.0000
  H   H57       1.0  0.51650  0.30047  0.39214  1.0000
  H   H58       1.0  0.51835  0.24212  0.39672  1.0000
  C   C107      1.0  0.75929  0.23863  0.36457  1.0000
  C   C108      1.0  0.79426  0.27478  0.36783  1.0000
  H   H59       1.0  0.73503  0.23773  0.39234  1.0000
  H   H60       1.0  0.79338  0.29793  0.39688  1.0000
  C   C109      1.0  0.14065  0.54430  0.34919  1.0000
  C   C110      1.0  0.11426  0.54868  0.40611  1.0000
  C   C111      1.0  0.11487  0.58477  0.41544  1.0000
  C   C112      1.0  0.14156  0.61735  0.36143  1.0000
  H   H61       1.0  0.09455  0.52515  0.44370  1.0000
  N   N49       1.0  0.09042  0.58674  0.47781  1.0000
  H   H62       1.0  0.07362  0.56430  0.51579  1.0000
  H   H63       1.0  0.09322  0.61165  0.49604  1.0000
  C   C113      1.0  0.49123  0.61811  0.34931  1.0000
  C   C114      1.0  0.48681  0.58737  0.40641  1.0000
  C   C115      1.0  0.45072  0.55190  0.41568  1.0000
  C   C116      1.0  0.41817  0.54598  0.36154  1.0000
  H   H64       1.0  0.51032  0.59121  0.44408  1.0000
  N   N50       1.0  0.44871  0.52550  0.47815  1.0000
  H   H65       1.0  0.47119  0.53107  0.51595  1.0000
  H   H66       1.0  0.42386  0.50321  0.49608  1.0000
  C   C117      1.0  0.41744  0.89484  0.34939  1.0000
  C   C118      1.0  0.44823  0.92123  0.40628  1.0000
  C   C119      1.0  0.48371  0.92062  0.41555  1.0000
  C   C120      1.0  0.48959  0.89393  0.36151  1.0000
  H   H67       1.0  0.44442  0.94094  0.44389  1.0000
  N   N51       1.0  0.51015  0.94508  0.47788  1.0000
  H   H68       1.0  0.50452  0.96188  0.51588  1.0000
  H   H69       1.0  0.53227  0.94229  0.49606  1.0000
  C   C121      1.0  0.89221  0.49386  0.34919  1.0000
  C   C122      1.0  0.91855  0.48943  0.40623  1.0000
  C   C123      1.0  0.91793  0.45334  0.41545  1.0000
  C   C124      1.0  0.89127  0.42079  0.36134  1.0000
  H   H70       1.0  0.93824  0.51294  0.44389  1.0000
  N   N52       1.0  0.94234  0.45133  0.47784  1.0000
  H   H71       1.0  0.95928  0.47380  0.51562  1.0000
  H   H72       1.0  0.93979  0.42648  0.49573  1.0000
  C   C125      1.0  0.54163  0.42006  0.34907  1.0000
  C   C126      1.0  0.54602  0.45083  0.40603  1.0000
  C   C127      1.0  0.58211  0.48630  0.41537  1.0000
  C   C128      1.0  0.61468  0.49219  0.36134  1.0000
  H   H73       1.0  0.52249  0.44701  0.44363  1.0000
  N   N53       1.0  0.58408  0.51271  0.47776  1.0000
  H   H74       1.0  0.56164  0.50707  0.51575  1.0000
  H   H75       1.0  0.60899  0.53483  0.49599  1.0000
  C   C129      1.0  0.61543  0.14330  0.34912  1.0000
  C   C130      1.0  0.58469  0.11698  0.40623  1.0000
  C   C131      1.0  0.54921  0.11759  0.41549  1.0000
  C   C132      1.0  0.54329  0.14422  0.36132  1.0000
  H   H76       1.0  0.58852  0.09731  0.44393  1.0000
  N   N54       1.0  0.52282  0.09320  0.47798  1.0000
  H   H77       1.0  0.52838  0.07630  0.51578  1.0000
  H   H78       1.0  0.50053  0.09576  0.49589  1.0000
  C   C133      1.0  0.03680  0.40410  0.42406  1.0000
  C   C134      1.0  0.99564  0.38401  0.42565  1.0000
  H   H79       1.0  0.05143  0.42039  0.47969  1.0000
  H   H80       1.0  0.98195  0.38659  0.48195  1.0000
  C   C135      1.0  0.63134  0.65437  0.42438  1.0000
  C   C136      1.0  0.65138  0.63325  0.42590  1.0000
  H   H81       1.0  0.61491  0.65256  0.47986  1.0000
  H   H82       1.0  0.64874  0.61692  0.48215  1.0000
  C   C137      1.0  0.38105  0.99872  0.42449  1.0000
  C   C138      1.0  0.40209  0.03988  0.42608  1.0000
  H   H83       1.0  0.38267  0.98409  0.48015  1.0000
  H   H84       1.0  0.41831  0.05360  0.48243  1.0000
  C   C139      1.0  0.99603  0.63399  0.42437  1.0000
  C   C140      1.0  0.03720  0.65404  0.42592  1.0000
  H   H85       1.0  0.98143  0.61757  0.47987  1.0000
  H   H86       1.0  0.05088  0.65139  0.48217  1.0000
  C   C141      1.0  0.40148  0.38373  0.42424  1.0000
  C   C142      1.0  0.38141  0.40481  0.42599  1.0000
  H   H87       1.0  0.41779  0.38536  0.47981  1.0000
  H   H88       1.0  0.38402  0.42108  0.48232  1.0000
  C   C143      1.0  0.65175  0.03948  0.42430  1.0000
  C   C144      1.0  0.63064  0.99832  0.42585  1.0000
  H   H89       1.0  0.64995  0.05410  0.47979  1.0000
  H   H90       1.0  0.61431  0.98462  0.48211  1.0000
