data_image0
_chemical_formula_structural       C4H2C2H2CH2CNCNCNC18H12CNCNCNC18H12C4HCH3C4HCH3C3HCH3
_chemical_formula_sum              "C63 H42 N6"
_cell_length_a       29.4679
_cell_length_b       29.468
_cell_length_c       14.9564
_cell_angle_alpha    90
_cell_angle_beta     90
_cell_angle_gamma    120

_space_group_name_H-M_alt    "P 1"
_space_group_IT_number       1

loop_
  _space_group_symop_operation_xyz
  'x, y, z'

loop_
  _atom_site_type_symbol
  _atom_site_label
  _atom_site_symmetry_multiplicity
  _atom_site_fract_x
  _atom_site_fract_y
  _atom_site_fract_z
  _atom_site_occupancy
  C   C1        1.0  0.02947  0.51510  0.25632  1.0000
  C   C2        1.0  0.03045  0.51559  0.41894  1.0000
  C   C3        1.0  0.51609  0.48755  0.25749  1.0000
  C   C4        1.0  0.48855  0.51510  0.25632  1.0000
  H   H1        1.0  0.52595  0.47770  0.19783  1.0000
  H   H2        1.0  0.47899  0.52466  0.19612  1.0000
  C   C5        1.0  0.51609  0.02927  0.25749  1.0000
  C   C6        1.0  0.48855  0.97417  0.25632  1.0000
  H   H3        1.0  0.52595  0.04898  0.19783  1.0000
  H   H4        1.0  0.47899  0.95505  0.19612  1.0000
  C   C7        1.0  0.97438  0.48755  0.25749  1.0000
  H   H5        1.0  0.95466  0.47770  0.19783  1.0000
  H   H6        1.0  0.04859  0.52466  0.19612  1.0000
  C   C8        1.0  0.36258  0.72225  0.33619  1.0000
  N   N1        1.0  0.38798  0.69435  0.33618  1.0000
  C   C9        1.0  0.36258  0.64106  0.33619  1.0000
  N   N2        1.0  0.30929  0.61567  0.33618  1.0000
  C   C10       1.0  0.28140  0.64106  0.33619  1.0000
  N   N3        1.0  0.30929  0.69435  0.33619  1.0000
  C   C11       1.0  0.39056  0.61309  0.33614  1.0000
  C   C12       1.0  0.44614  0.63982  0.33616  1.0000
  C   C13       1.0  0.47380  0.61230  0.33622  1.0000
  C   C14       1.0  0.44661  0.55704  0.33612  1.0000
  C   C15       1.0  0.39134  0.52984  0.33622  1.0000
  C   C16       1.0  0.36383  0.55751  0.33616  1.0000
  C   C17       1.0  0.39056  0.77819  0.33614  1.0000
  C   C18       1.0  0.44614  0.80705  0.33616  1.0000
  C   C19       1.0  0.47380  0.86223  0.33621  1.0000
  C   C20       1.0  0.44661  0.89030  0.33612  1.0000
  C   C21       1.0  0.39134  0.86223  0.33622  1.0000
  C   C22       1.0  0.36383  0.80705  0.33616  1.0000
  C   C23       1.0  0.22545  0.61309  0.33614  1.0000
  C   C24       1.0  0.19659  0.63982  0.33616  1.0000
  C   C25       1.0  0.14142  0.61230  0.33621  1.0000
  C   C26       1.0  0.11335  0.55704  0.33612  1.0000
  C   C27       1.0  0.14142  0.52984  0.33621  1.0000
  C   C28       1.0  0.19659  0.55751  0.33616  1.0000
  H   H7        1.0  0.51392  0.88171  0.33643  1.0000
  H   H8        1.0  0.46743  0.78828  0.33625  1.0000
  H   H9        1.0  0.37071  0.88171  0.33643  1.0000
  H   H10       1.0  0.32377  0.78828  0.33624  1.0000
  H   H11       1.0  0.21537  0.67988  0.33624  1.0000
  H   H12       1.0  0.12193  0.63294  0.33643  1.0000
  H   H13       1.0  0.21537  0.53622  0.33625  1.0000
  H   H14       1.0  0.12193  0.48972  0.33643  1.0000
  H   H15       1.0  0.32377  0.53622  0.33624  1.0000
  H   H16       1.0  0.37071  0.48972  0.33643  1.0000
  H   H17       1.0  0.51392  0.63294  0.33643  1.0000
  H   H18       1.0  0.46743  0.67988  0.33624  1.0000
  C   C29       1.0  0.64178  0.28065  0.33610  1.0000
  N   N4        1.0  0.61639  0.30856  0.33610  1.0000
  C   C30       1.0  0.64179  0.36186  0.33610  1.0000
  N   N5        1.0  0.69508  0.38725  0.33610  1.0000
  C   C31       1.0  0.72300  0.36186  0.33610  1.0000
  N   N6        1.0  0.69509  0.30856  0.33610  1.0000
  C   C32       1.0  0.61380  0.38984  0.33590  1.0000
  C   C33       1.0  0.55822  0.36313  0.33586  1.0000
  C   C34       1.0  0.53056  0.39065  0.33616  1.0000
  C   C35       1.0  0.55772  0.44592  0.33652  1.0000
  C   C36       1.0  0.61300  0.47309  0.33614  1.0000
  C   C37       1.0  0.64051  0.44543  0.33586  1.0000
  C   C38       1.0  0.61380  0.22469  0.33590  1.0000
  C   C39       1.0  0.55822  0.19581  0.33587  1.0000
  C   C40       1.0  0.53055  0.14063  0.33616  1.0000
  C   C41       1.0  0.55772  0.11253  0.33652  1.0000
  C   C42       1.0  0.61300  0.14063  0.33615  1.0000
  C   C43       1.0  0.64051  0.19581  0.33586  1.0000
  C   C44       1.0  0.77896  0.38984  0.33590  1.0000
  C   C45       1.0  0.80784  0.36313  0.33586  1.0000
  C   C46       1.0  0.86301  0.39065  0.33615  1.0000
  C   C47       1.0  0.89112  0.44592  0.33653  1.0000
  C   C48       1.0  0.86301  0.47309  0.33613  1.0000
  C   C49       1.0  0.80784  0.44543  0.33586  1.0000
  H   H19       1.0  0.49044  0.12115  0.33679  1.0000
  H   H20       1.0  0.53693  0.21459  0.33601  1.0000
  H   H21       1.0  0.63363  0.12115  0.33680  1.0000
  H   H22       1.0  0.68057  0.21459  0.33602  1.0000
  H   H23       1.0  0.78906  0.32307  0.33600  1.0000
  H   H24       1.0  0.88250  0.37002  0.33680  1.0000
  H   H25       1.0  0.78906  0.46671  0.33602  1.0000
  H   H26       1.0  0.88250  0.51321  0.33681  1.0000
  H   H27       1.0  0.68057  0.46671  0.33602  1.0000
  H   H28       1.0  0.63363  0.51321  0.33680  1.0000
  H   H29       1.0  0.49044  0.37002  0.33680  1.0000
  H   H30       1.0  0.53693  0.32307  0.33602  1.0000
  C   C50       1.0  0.47430  0.52935  0.33707  1.0000
  C   C51       1.0  0.48806  0.51559  0.41894  1.0000
  C   C52       1.0  0.51581  0.48784  0.42141  1.0000
  C   C53       1.0  0.52995  0.47369  0.33933  1.0000
  H   H31       1.0  0.47765  0.52600  0.47752  1.0000
  C   C54       1.0  0.52951  0.47413  0.50924  1.0000
  H   H32       1.0  0.51594  0.48771  0.56570  1.0000
  H   H33       1.0  0.57199  0.49199  0.51477  1.0000
  H   H34       1.0  0.51166  0.43166  0.51477  1.0000
  C   C55       1.0  0.47430  0.94569  0.33707  1.0000
  C   C56       1.0  0.48806  0.97319  0.41894  1.0000
  C   C57       1.0  0.51581  0.02870  0.42141  1.0000
  C   C58       1.0  0.52995  0.05698  0.33933  1.0000
  H   H35       1.0  0.47765  0.95238  0.47752  1.0000
  C   C59       1.0  0.52951  0.05610  0.50924  1.0000
  H   H36       1.0  0.51594  0.02895  0.56570  1.0000
  H   H37       1.0  0.51166  0.08073  0.51477  1.0000
  H   H38       1.0  0.57199  0.08073  0.51477  1.0000
  C   C60       1.0  0.05796  0.52935  0.33707  1.0000
  C   C61       1.0  0.97495  0.48784  0.42141  1.0000
  C   C62       1.0  0.94667  0.47369  0.33933  1.0000
  H   H39       1.0  0.05127  0.52600  0.47752  1.0000
  C   C63       1.0  0.94754  0.47414  0.50924  1.0000
  H   H40       1.0  0.97470  0.48771  0.56570  1.0000
  H   H41       1.0  0.92292  0.43166  0.51478  1.0000
  H   H42       1.0  0.92292  0.49199  0.51477  1.0000
