data_image0
_chemical_formula_structural       C9H4NHC5H4NHC5H4NHC5H3C2O3C5H3C2O3C4HC3H2NO2NHC4HC3H2NO2NHC4HC3H2NO2NH
_chemical_formula_sum              "C54 H33 N9 O12"
_cell_length_a       29.4325
_cell_length_b       29.4326
_cell_length_c       15.0863
_cell_angle_alpha    90
_cell_angle_beta     90
_cell_angle_gamma    120

_space_group_name_H-M_alt    "P 1"
_space_group_IT_number       1

loop_
  _space_group_symop_operation_xyz
  'x, y, z'

loop_
  _atom_site_type_symbol
  _atom_site_label
  _atom_site_symmetry_multiplicity
  _atom_site_fract_x
  _atom_site_fract_y
  _atom_site_fract_z
  _atom_site_occupancy
  C   C1        1.0  0.35975  0.63831  0.28929  1.0000
  C   C2        1.0  0.39098  0.61375  0.29963  1.0000
  C   C3        1.0  0.62741  0.35044  0.33161  1.0000
  C   C4        1.0  0.59268  0.37037  0.32899  1.0000
  C   C5        1.0  0.56665  0.45772  0.30151  1.0000
  C   C6        1.0  0.53138  0.47634  0.29388  1.0000
  C   C7        1.0  0.42847  0.47372  0.27273  1.0000
  C   C8        1.0  0.39852  0.49767  0.25414  1.0000
  C   C9        1.0  0.40003  0.53642  0.31129  1.0000
  H   H1        1.0  0.42814  0.44732  0.22821  1.0000
  H   H2        1.0  0.37747  0.48843  0.19644  1.0000
  H   H3        1.0  0.59163  0.46324  0.25020  1.0000
  H   H4        1.0  0.53215  0.49571  0.23697  1.0000
  N   N1        1.0  0.37265  0.56127  0.28991  1.0000
  H   H5        1.0  0.33951  0.54018  0.25924  1.0000
  C   C10       1.0  0.53517  0.10755  0.30150  1.0000
  C   C11       1.0  0.51647  0.05365  0.29385  1.0000
  C   C12       1.0  0.51893  0.95327  0.27258  1.0000
  C   C13       1.0  0.49498  0.89936  0.25410  1.0000
  C   C14       1.0  0.45638  0.86215  0.31148  1.0000
  H   H6        1.0  0.54530  0.97932  0.22799  1.0000
  H   H7        1.0  0.50421  0.88750  0.19644  1.0000
  H   H8        1.0  0.52964  0.12703  0.25022  1.0000
  H   H9        1.0  0.49706  0.03507  0.23697  1.0000
  N   N2        1.0  0.43159  0.80988  0.29033  1.0000
  H   H10       1.0  0.45260  0.79788  0.25924  1.0000
  C   C15       1.0  0.88526  0.42625  0.30145  1.0000
  C   C16       1.0  0.93917  0.46143  0.29375  1.0000
  C   C17       1.0  0.03956  0.56429  0.27255  1.0000
  C   C18       1.0  0.09347  0.59427  0.25403  1.0000
  C   C19       1.0  0.13069  0.59278  0.31124  1.0000
  H   H11       1.0  0.01350  0.56458  0.22796  1.0000
  H   H12       1.0  0.10530  0.61530  0.19631  1.0000
  H   H13       1.0  0.86574  0.40132  0.25011  1.0000
  H   H14       1.0  0.95772  0.46064  0.23681  1.0000
  N   N3        1.0  0.18295  0.62025  0.29004  1.0000
  H   H15       1.0  0.19496  0.65330  0.25908  1.0000
  C   C20       1.0  0.35452  0.71997  0.28953  1.0000
  C   C21       1.0  0.29915  0.68857  0.28942  1.0000
  C   C22       1.0  0.27286  0.63309  0.28926  1.0000
  C   C23       1.0  0.30427  0.60913  0.28924  1.0000
  C   C24       1.0  0.38371  0.69368  0.28936  1.0000
  H   H16       1.0  0.28603  0.56933  0.29400  1.0000
  H   H17       1.0  0.42350  0.71524  0.29441  1.0000
  H   H18       1.0  0.27759  0.70680  0.29431  1.0000
  C   C25       1.0  0.37910  0.77576  0.30000  1.0000
  C   C26       1.0  0.21706  0.60186  0.29959  1.0000
  O   O1        1.0  0.44241  0.64480  0.32033  1.0000
  O   O2        1.0  0.34805  0.79610  0.32095  1.0000
  O   O3        1.0  0.19669  0.55043  0.32035  1.0000
  C   C27       1.0  0.64242  0.27559  0.33143  1.0000
  C   C28       1.0  0.69703  0.31069  0.33089  1.0000
  C   C29       1.0  0.71727  0.36545  0.33136  1.0000
  C   C30       1.0  0.68217  0.38496  0.33106  1.0000
  C   C31       1.0  0.60790  0.29583  0.33112  1.0000
  H   H19       1.0  0.69664  0.42464  0.32985  1.0000
  H   H20       1.0  0.56822  0.27062  0.32995  1.0000
  H   H21       1.0  0.72225  0.29623  0.32956  1.0000
  C   C32       1.0  0.62249  0.22094  0.32872  1.0000
  C   C33       1.0  0.77192  0.40018  0.32865  1.0000
  O   O4        1.0  0.55199  0.34791  0.27128  1.0000
  O   O5        1.0  0.64498  0.20272  0.27104  1.0000
  O   O6        1.0  0.79013  0.44102  0.27125  1.0000
  C   C34       1.0  0.56716  0.43106  0.37865  1.0000
  C   C35       1.0  0.49538  0.46825  0.36262  1.0000
  C   C36       1.0  0.49649  0.44249  0.44169  1.0000
  C   C37       1.0  0.53299  0.42464  0.44908  1.0000
  H   H22       1.0  0.53295  0.40465  0.50463  1.0000
  C   C38       1.0  0.46004  0.48728  0.34977  1.0000
  C   C39       1.0  0.42906  0.54748  0.39100  1.0000
  C   C40       1.0  0.45925  0.52381  0.40951  1.0000
  H   H23       1.0  0.42941  0.57385  0.43546  1.0000
  H   H24       1.0  0.48229  0.53520  0.46504  1.0000
  N   N4        1.0  0.45980  0.43286  0.51013  1.0000
  O   O7        1.0  0.48235  0.45383  0.58177  1.0000
  O   O8        1.0  0.43026  0.38455  0.52306  1.0000
  N   N5        1.0  0.59910  0.41020  0.38286  1.0000
  H   H25       1.0  0.62328  0.42031  0.43286  1.0000
  C   C41       1.0  0.56190  0.13471  0.37860  1.0000
  C   C42       1.0  0.52456  0.02571  0.36255  1.0000
  C   C43       1.0  0.55040  0.05256  0.44157  1.0000
  C   C44       1.0  0.56835  0.10694  0.44896  1.0000
  H   H26       1.0  0.58835  0.12685  0.50451  1.0000
  C   C45       1.0  0.50547  0.97132  0.34968  1.0000
  C   C46       1.0  0.44543  0.88016  0.39124  1.0000
  C   C47       1.0  0.46902  0.93403  0.40956  1.0000
  H   H27       1.0  0.41915  0.85416  0.43581  1.0000
  H   H28       1.0  0.45773  0.94570  0.46518  1.0000
  N   N6        1.0  0.56005  0.02548  0.50996  1.0000
  O   O9        1.0  0.53917  0.02712  0.58168  1.0000
  O   O10       1.0  0.60836  0.04418  0.52275  1.0000
  N   N7        1.0  0.58285  0.18751  0.38288  1.0000
  H   H29       1.0  0.57257  0.20156  0.43268  1.0000
  C   C48       1.0  0.85815  0.42580  0.37862  1.0000
  C   C49       1.0  0.96716  0.49741  0.36248  1.0000
  C   C50       1.0  0.94035  0.49637  0.44158  1.0000
  C   C51       1.0  0.88598  0.45993  0.44905  1.0000
  H   H30       1.0  0.86608  0.46008  0.50458  1.0000
  C   C52       1.0  0.02154  0.53271  0.34956  1.0000
  C   C53       1.0  0.11271  0.56378  0.39097  1.0000
  C   C54       1.0  0.05885  0.53351  0.40935  1.0000
  H   H31       1.0  0.13872  0.56344  0.43545  1.0000
  H   H32       1.0  0.04720  0.51050  0.46492  1.0000
  N   N8        1.0  0.96747  0.53309  0.50997  1.0000
  O   O11       1.0  0.96588  0.51055  0.58164  1.0000
  O   O12       1.0  0.94877  0.56269  0.52287  1.0000
  N   N9        1.0  0.80535  0.39407  0.38296  1.0000
  H   H33       1.0  0.79127  0.36943  0.43235  1.0000
