data_image0
_chemical_formula_structural       C16H16C16H16C16H16NC2HN2C2HN2C2HN2C2HN2C2HN2C2HNC3NC3NC5NC5NC36H26C4H4C3NC3NC5NC5NC36H26C4H4C3NC3NC5NC5NC36H26C4H4CNC2OH3NCNC2OH3NCNC2OH3NCNC2OH3NCNC2OH3NCNC2OH3N
_chemical_formula_sum              "C246 H162 N36 O6"
_cell_length_a       67.5843
_cell_length_b       67.5843
_cell_length_c       14.8478
_cell_angle_alpha    89.7164
_cell_angle_beta     90.2836
_cell_angle_gamma    120

_space_group_name_H-M_alt    "P 1"
_space_group_IT_number       1

loop_
  _space_group_symop_operation_xyz
  'x, y, z'

loop_
  _atom_site_type_symbol
  _atom_site_label
  _atom_site_symmetry_multiplicity
  _atom_site_fract_x
  _atom_site_fract_y
  _atom_site_fract_z
  _atom_site_occupancy
  C   C1        1.0  0.13015  0.68318  0.28806  1.0000
  C   C2        1.0  0.11065  0.66120  0.28314  1.0000
  C   C3        1.0  0.16610  0.73336  0.32197  1.0000
  C   C4        1.0  0.18728  0.75393  0.32606  1.0000
  C   C5        1.0  0.12894  0.54035  0.28088  1.0000
  C   C6        1.0  0.11046  0.54450  0.27733  1.0000
  C   C7        1.0  0.19540  0.54341  0.32437  1.0000
  C   C8        1.0  0.17605  0.54608  0.31625  1.0000
  C   C9        1.0  0.96814  0.47354  0.28276  1.0000
  C   C10       1.0  0.94881  0.45146  0.28801  1.0000
  C   C11       1.0  0.89262  0.38025  0.32451  1.0000
  C   C12       1.0  0.91362  0.40099  0.31978  1.0000
  C   C13       1.0  0.96890  0.58979  0.27762  1.0000
  C   C14       1.0  0.95029  0.59371  0.28126  1.0000
  C   C15       1.0  0.90299  0.58730  0.31676  1.0000
  C   C16       1.0  0.88348  0.58967  0.32492  1.0000
  H   H1        1.0  0.86925  0.57910  0.28801  1.0000
  H   H2        1.0  0.90211  0.57495  0.27458  1.0000
  H   H3        1.0  0.94248  0.59375  0.22214  1.0000
  H   H4        1.0  0.97372  0.58660  0.21664  1.0000
  H   H5        1.0  0.97362  0.48100  0.22088  1.0000
  H   H6        1.0  0.94073  0.44366  0.22936  1.0000
  H   H7        1.0  0.10559  0.54783  0.21637  1.0000
  H   H8        1.0  0.13662  0.54033  0.22173  1.0000
  H   H9        1.0  0.17705  0.55860  0.27424  1.0000
  H   H10       1.0  0.20963  0.55392  0.28751  1.0000
  H   H11       1.0  0.10451  0.65414  0.22122  1.0000
  H   H12       1.0  0.13765  0.69132  0.22913  1.0000
  H   H13       1.0  0.18971  0.76717  0.28504  1.0000
  H   H14       1.0  0.15383  0.73251  0.27894  1.0000
  H   H15       1.0  0.92545  0.40236  0.27370  1.0000
  H   H16       1.0  0.88985  0.36744  0.28089  1.0000
  C   C17       1.0  0.42251  0.53905  0.29056  1.0000
  C   C18       1.0  0.44447  0.54150  0.28592  1.0000
  C   C19       1.0  0.37229  0.52471  0.32375  1.0000
  C   C20       1.0  0.35172  0.52531  0.32748  1.0000
  C   C21       1.0  0.56529  0.68068  0.28458  1.0000
  C   C22       1.0  0.56115  0.65807  0.28098  1.0000
  C   C23       1.0  0.56224  0.74399  0.32814  1.0000
  C   C24       1.0  0.55955  0.72197  0.32006  1.0000
  C   C25       1.0  0.63203  0.58671  0.28561  1.0000
  C   C26       1.0  0.65411  0.58942  0.29053  1.0000
  C   C27       1.0  0.72535  0.60439  0.32585  1.0000
  C   C28       1.0  0.70461  0.60466  0.32148  1.0000
  C   C29       1.0  0.51584  0.47119  0.28123  1.0000
  C   C30       1.0  0.51193  0.44866  0.28492  1.0000
  C   C31       1.0  0.51834  0.40770  0.32049  1.0000
  C   C32       1.0  0.51597  0.38580  0.32870  1.0000
  H   H17       1.0  0.52654  0.38221  0.29176  1.0000
  H   H18       1.0  0.53069  0.41925  0.27830  1.0000
  H   H19       1.0  0.51190  0.44093  0.22582  1.0000
  H   H20       1.0  0.51904  0.47933  0.22023  1.0000
  H   H21       1.0  0.62450  0.58478  0.22384  1.0000
  H   H22       1.0  0.66186  0.58926  0.23176  1.0000
  H   H23       1.0  0.55782  0.65000  0.22000  1.0000
  H   H24       1.0  0.56533  0.68852  0.22545  1.0000
  H   H25       1.0  0.54707  0.71057  0.27790  1.0000
  H   H26       1.0  0.55175  0.74780  0.29120  1.0000
  H   H27       1.0  0.45159  0.54260  0.22409  1.0000
  H   H28       1.0  0.41439  0.53851  0.23152  1.0000
  H   H29       1.0  0.33852  0.51461  0.28626  1.0000
  H   H30       1.0  0.37319  0.51340  0.28076  1.0000
  H   H31       1.0  0.70319  0.61520  0.27544  1.0000
  H   H32       1.0  0.73812  0.61451  0.28199  1.0000
  C   C33       1.0  0.56659  0.97550  0.29375  1.0000
  C   C34       1.0  0.56413  0.99501  0.28896  1.0000
  C   C35       1.0  0.58093  0.93956  0.32720  1.0000
  C   C36       1.0  0.58033  0.91838  0.33107  1.0000
  C   C37       1.0  0.42503  0.97679  0.28559  1.0000
  C   C38       1.0  0.44765  0.99526  0.28252  1.0000
  C   C39       1.0  0.36167  0.91028  0.32729  1.0000
  C   C40       1.0  0.38370  0.92963  0.31977  1.0000
  C   C41       1.0  0.51892  0.13742  0.28866  1.0000
  C   C42       1.0  0.51621  0.15678  0.29375  1.0000
  C   C43       1.0  0.50123  0.21295  0.32940  1.0000
  C   C44       1.0  0.50096  0.19194  0.32495  1.0000
  C   C45       1.0  0.63434  0.13662  0.28273  1.0000
  C   C46       1.0  0.65688  0.15524  0.28592  1.0000
  C   C47       1.0  0.69787  0.20258  0.32026  1.0000
  C   C48       1.0  0.71977  0.22211  0.32795  1.0000
  H   H33       1.0  0.72332  0.23627  0.29064  1.0000
  H   H34       1.0  0.68627  0.20340  0.27816  1.0000
  H   H35       1.0  0.66454  0.16298  0.22661  1.0000
  H   H36       1.0  0.62614  0.13173  0.22187  1.0000
  H   H37       1.0  0.52082  0.13196  0.22685  1.0000
  H   H38       1.0  0.51636  0.16483  0.23502  1.0000
  H   H39       1.0  0.45578  0.00022  0.22170  1.0000
  H   H40       1.0  0.41726  0.96919  0.22625  1.0000
  H   H41       1.0  0.39516  0.92869  0.27781  1.0000
  H   H42       1.0  0.35791  0.89610  0.29016  1.0000
  H   H43       1.0  0.56306  0.00117  0.22710  1.0000
  H   H44       1.0  0.56716  0.96804  0.23476  1.0000
  H   H45       1.0  0.59103  0.91597  0.28990  1.0000
  H   H46       1.0  0.59224  0.95185  0.28419  1.0000
  H   H47       1.0  0.49043  0.18010  0.27883  1.0000
  H   H48       1.0  0.49112  0.21570  0.28554  1.0000
  N   N1        1.0  0.28348  0.53339  0.27556  1.0000
  C   C49       1.0  0.26380  0.53414  0.26873  1.0000
  C   C50       1.0  0.25005  0.52973  0.34557  1.0000
  H   H49       1.0  0.25921  0.53785  0.20802  1.0000
  N   N2        1.0  0.23082  0.53069  0.34042  1.0000
  N   N3        1.0  0.57225  0.84218  0.27931  1.0000
  C   C51       1.0  0.57151  0.82177  0.27249  1.0000
  C   C52       1.0  0.57592  0.81226  0.34933  1.0000
  H   H50       1.0  0.56780  0.81360  0.21178  1.0000
  N   N4        1.0  0.57496  0.79208  0.34419  1.0000
  N   N5        1.0  0.26350  0.82230  0.27595  1.0000
  C   C53       1.0  0.28392  0.84200  0.26967  1.0000
  C   C54       1.0  0.29336  0.85561  0.34687  1.0000
  H   H51       1.0  0.29215  0.84669  0.20909  1.0000
  N   N6        1.0  0.31354  0.87485  0.34227  1.0000
  N   N7        1.0  0.79421  0.59775  0.27723  1.0000
  C   C55       1.0  0.81404  0.59731  0.27034  1.0000
  C   C56       1.0  0.82812  0.60213  0.34681  1.0000
  H   H52       1.0  0.81850  0.59355  0.20984  1.0000
  N   N8        1.0  0.84751  0.60150  0.34159  1.0000
  N   N9        1.0  0.50787  0.28855  0.28098  1.0000
  C   C57       1.0  0.50831  0.30883  0.27410  1.0000
  C   C58       1.0  0.50350  0.31792  0.35059  1.0000
  H   H53       1.0  0.51207  0.31718  0.21359  1.0000
  N   N10       1.0  0.50413  0.33796  0.34537  1.0000
  N   N11       1.0  0.81698  0.31128  0.27766  1.0000
  C   C59       1.0  0.79669  0.29144  0.27131  1.0000
  C   C60       1.0  0.78768  0.27748  0.34814  1.0000
  H   H54       1.0  0.78827  0.28688  0.21096  1.0000
  N   N12       1.0  0.76764  0.25808  0.34347  1.0000
  C   C61       1.0  0.02872  0.62409  0.35647  1.0000
  C   C62       1.0  0.05235  0.63570  0.35750  1.0000
  C   C63       1.0  0.05964  0.61966  0.35651  1.0000
  N   N13       1.0  0.04016  0.59899  0.35490  1.0000
  C   C64       1.0  0.02096  0.60066  0.35531  1.0000
  C   C65       1.0  0.99756  0.58309  0.35504  1.0000
  C   C66       1.0  0.98993  0.55928  0.35550  1.0000
  N   N14       1.0  0.00262  0.54889  0.35488  1.0000
  C   C67       1.0  0.98953  0.52583  0.35680  1.0000
  C   C68       1.0  0.96692  0.52115  0.35867  1.0000
  C   C69       1.0  0.96717  0.54169  0.35786  1.0000
  C   C70       1.0  0.99668  0.50928  0.35744  1.0000
  C   C71       1.0  0.01991  0.51462  0.35650  1.0000
  N   N15       1.0  0.03938  0.53528  0.35521  1.0000
  C   C72       1.0  0.05859  0.53361  0.35526  1.0000
  C   C73       1.0  0.05082  0.51017  0.35599  1.0000
  C   C74       1.0  0.02720  0.49857  0.35695  1.0000
  C   C75       1.0  0.08198  0.55117  0.35484  1.0000
  C   C76       1.0  0.08962  0.57498  0.35514  1.0000
  N   N16       1.0  0.07692  0.58538  0.35488  1.0000
  C   C77       1.0  0.09002  0.60843  0.35653  1.0000
  C   C78       1.0  0.11263  0.61310  0.35775  1.0000
  C   C79       1.0  0.11238  0.59257  0.35700  1.0000
  C   C80       1.0  0.08288  0.62499  0.35750  1.0000
  C   C81       1.0  0.10046  0.64848  0.36220  1.0000
  C   C82       1.0  0.11001  0.65848  0.44622  1.0000
  C   C83       1.0  0.12956  0.68038  0.45084  1.0000
  C   C84       1.0  0.14034  0.69305  0.37193  1.0000
  C   C85       1.0  0.16156  0.71432  0.37675  1.0000
  C   C86       1.0  0.20495  0.75627  0.38458  1.0000
  C   C87       1.0  0.20040  0.73720  0.43913  1.0000
  C   C88       1.0  0.17924  0.71676  0.43537  1.0000
  C   C89       1.0  0.09917  0.54470  0.35685  1.0000
  C   C90       1.0  0.10675  0.54053  0.43981  1.0000
  C   C91       1.0  0.12517  0.53633  0.44303  1.0000
  C   C92       1.0  0.13680  0.53628  0.36381  1.0000
  C   C93       1.0  0.15611  0.53279  0.36823  1.0000
  C   C94       1.0  0.15627  0.51634  0.42727  1.0000
  C   C95       1.0  0.17556  0.51365  0.43553  1.0000
  C   C96       1.0  0.19559  0.52722  0.38472  1.0000
  C   C97       1.0  0.97912  0.48577  0.36174  1.0000
  C   C98       1.0  0.93958  0.44097  0.37220  1.0000
  C   C99       1.0  0.95114  0.45319  0.45089  1.0000
  C   C100      1.0  0.97051  0.47520  0.44593  1.0000
  C   C101      1.0  0.91857  0.41951  0.37782  1.0000
  C   C102      1.0  0.90150  0.41634  0.44055  1.0000
  C   C103      1.0  0.88052  0.39572  0.44503  1.0000
  C   C104      1.0  0.87554  0.37721  0.38707  1.0000
  C   C105      1.0  0.98036  0.58954  0.35712  1.0000
  C   C106      1.0  0.97281  0.59346  0.44012  1.0000
  C   C107      1.0  0.95426  0.59745  0.44342  1.0000
  C   C108      1.0  0.94244  0.59751  0.36425  1.0000
  C   C109      1.0  0.92296  0.60069  0.36877  1.0000
  C   C110      1.0  0.88313  0.60561  0.38545  1.0000
  C   C111      1.0  0.90318  0.61927  0.43632  1.0000
  C   C112      1.0  0.92264  0.61690  0.42798  1.0000
  H   H55       1.0  0.90377  0.63104  0.48109  1.0000
  H   H56       1.0  0.93670  0.62725  0.46614  1.0000
  H   H57       1.0  0.94889  0.59942  0.50530  1.0000
  H   H58       1.0  0.98036  0.59278  0.49910  1.0000
  H   H59       1.0  0.01899  0.63179  0.35719  1.0000
  H   H60       1.0  0.06239  0.65309  0.35886  1.0000
  H   H61       1.0  0.03999  0.58471  0.35420  1.0000
  H   H62       1.0  0.03955  0.54957  0.35494  1.0000
  H   H63       1.0  0.95287  0.54322  0.35958  1.0000
  H   H64       1.0  0.95242  0.50549  0.36078  1.0000
  H   H65       1.0  0.97780  0.48380  0.50438  1.0000
  H   H66       1.0  0.94526  0.44632  0.51328  1.0000
  H   H67       1.0  0.01716  0.48118  0.35779  1.0000
  H   H68       1.0  0.06055  0.50248  0.35616  1.0000
  H   H69       1.0  0.12714  0.62876  0.35938  1.0000
  H   H70       1.0  0.12668  0.59104  0.35830  1.0000
  H   H71       1.0  0.09931  0.54115  0.49881  1.0000
  H   H72       1.0  0.13057  0.53416  0.50486  1.0000
  H   H73       1.0  0.17487  0.50172  0.48017  1.0000
  H   H74       1.0  0.14221  0.50604  0.46537  1.0000
  H   H75       1.0  0.17714  0.70336  0.47462  1.0000
  H   H76       1.0  0.21262  0.73790  0.48220  1.0000
  H   H77       1.0  0.13616  0.68680  0.51304  1.0000
  H   H78       1.0  0.10333  0.64952  0.50462  1.0000
  H   H79       1.0  0.90390  0.42934  0.48245  1.0000
  H   H80       1.0  0.86872  0.39450  0.49112  1.0000
  C   C113      1.0  0.22641  0.77608  0.38967  1.0000
  C   C114      1.0  0.21491  0.52513  0.39920  1.0000
  C   C115      1.0  0.85422  0.35725  0.39270  1.0000
  C   C116      1.0  0.86367  0.60740  0.39996  1.0000
  H   H81       1.0  0.23856  0.77545  0.42580  1.0000
  H   H82       1.0  0.86233  0.61371  0.45864  1.0000
  H   H83       1.0  0.84224  0.35756  0.43057  1.0000
  H   H84       1.0  0.21633  0.51885  0.45817  1.0000
  C   C117      1.0  0.48154  0.49654  0.35987  1.0000
  C   C118      1.0  0.46993  0.50856  0.36080  1.0000
  C   C119      1.0  0.48597  0.53189  0.35984  1.0000
  N   N17       1.0  0.50663  0.53309  0.35835  1.0000
  C   C120      1.0  0.50497  0.51221  0.35878  1.0000
  C   C121      1.0  0.52254  0.50639  0.35856  1.0000
  C   C122      1.0  0.54635  0.52257  0.35894  1.0000
  N   N18       1.0  0.55674  0.54566  0.35831  1.0000
  C   C123      1.0  0.57980  0.55562  0.36015  1.0000
  C   C124      1.0  0.58448  0.53769  0.36198  1.0000
  C   C125      1.0  0.56395  0.51740  0.36134  1.0000
  C   C126      1.0  0.59635  0.57932  0.36076  1.0000
  C   C127      1.0  0.59101  0.59722  0.35991  1.0000
  N   N19       1.0  0.57034  0.59602  0.35872  1.0000
  C   C128      1.0  0.57201  0.61690  0.35880  1.0000
  C   C129      1.0  0.59545  0.63257  0.35951  1.0000
  C   C130      1.0  0.60706  0.62055  0.36036  1.0000
  C   C131      1.0  0.55445  0.62272  0.35839  1.0000
  C   C132      1.0  0.53064  0.60655  0.35869  1.0000
  N   N20       1.0  0.52024  0.58346  0.35836  1.0000
  C   C133      1.0  0.49719  0.57350  0.35992  1.0000
  C   C134      1.0  0.49252  0.59143  0.36111  1.0000
  C   C135      1.0  0.51305  0.61172  0.36047  1.0000
  C   C136      1.0  0.48063  0.54979  0.36076  1.0000
  C   C137      1.0  0.45714  0.54387  0.36513  1.0000
  C   C138      1.0  0.44707  0.54321  0.44904  1.0000
  C   C139      1.0  0.42518  0.54087  0.45336  1.0000
  C   C140      1.0  0.41255  0.53914  0.37429  1.0000
  C   C141      1.0  0.39128  0.53908  0.37878  1.0000
  C   C142      1.0  0.34932  0.54050  0.38590  1.0000
  C   C143      1.0  0.36833  0.55487  0.44074  1.0000
  C   C144      1.0  0.38878  0.55417  0.43731  1.0000
  C   C145      1.0  0.56092  0.64638  0.36049  1.0000
  C   C146      1.0  0.56508  0.65794  0.44348  1.0000
  C   C147      1.0  0.56928  0.68055  0.44674  1.0000
  C   C148      1.0  0.56935  0.69242  0.36754  1.0000
  C   C149      1.0  0.57285  0.71521  0.37199  1.0000
  C   C150      1.0  0.58929  0.73168  0.43107  1.0000
  C   C151      1.0  0.59198  0.75365  0.43935  1.0000
  C   C152      1.0  0.57843  0.76024  0.38850  1.0000
  C   C153      1.0  0.61986  0.58526  0.36479  1.0000
  C   C154      1.0  0.66469  0.59055  0.37456  1.0000
  C   C155      1.0  0.65253  0.58972  0.45343  1.0000
  C   C156      1.0  0.63051  0.58708  0.44882  1.0000
  C   C157      1.0  0.68615  0.59099  0.37982  1.0000
  C   C158      1.0  0.68939  0.57698  0.44246  1.0000
  C   C159      1.0  0.71002  0.57661  0.44657  1.0000
  C   C160      1.0  0.72847  0.59025  0.38830  1.0000
  C   C161      1.0  0.51609  0.48274  0.36070  1.0000
  C   C162      1.0  0.51218  0.47110  0.44373  1.0000
  C   C163      1.0  0.50821  0.44856  0.44708  1.0000
  C   C164      1.0  0.50814  0.43685  0.36793  1.0000
  C   C165      1.0  0.50496  0.41417  0.37250  1.0000
  C   C166      1.0  0.50003  0.36937  0.38924  1.0000
  C   C167      1.0  0.48638  0.37567  0.44010  1.0000
  C   C168      1.0  0.48875  0.39752  0.43173  1.0000
  H   H85       1.0  0.47461  0.36439  0.48486  1.0000
  H   H86       1.0  0.47840  0.40114  0.46988  1.0000
  H   H87       1.0  0.50622  0.44108  0.50896  1.0000
  H   H88       1.0  0.51286  0.47921  0.50268  1.0000
  H   H89       1.0  0.47385  0.47912  0.36058  1.0000
  H   H90       1.0  0.45254  0.50121  0.36208  1.0000
  H   H91       1.0  0.52092  0.54721  0.35768  1.0000
  H   H92       1.0  0.55605  0.58190  0.35841  1.0000
  H   H93       1.0  0.56242  0.50157  0.36307  1.0000
  H   H94       1.0  0.60014  0.53885  0.36416  1.0000
  H   H95       1.0  0.62196  0.58564  0.50739  1.0000
  H   H96       1.0  0.65946  0.59060  0.51572  1.0000
  H   H97       1.0  0.62445  0.62791  0.36113  1.0000
  H   H98       1.0  0.60314  0.64999  0.35965  1.0000
  H   H99       1.0  0.47686  0.59028  0.36261  1.0000
  H   H100      1.0  0.51458  0.62755  0.36171  1.0000
  H   H101      1.0  0.56447  0.64974  0.50245  1.0000
  H   H102      1.0  0.57147  0.68799  0.50858  1.0000
  H   H103      1.0  0.60391  0.76479  0.48399  1.0000
  H   H104      1.0  0.59959  0.72784  0.46917  1.0000
  H   H105      1.0  0.40214  0.56537  0.47676  1.0000
  H   H106      1.0  0.36759  0.56629  0.48375  1.0000
  H   H107      1.0  0.41871  0.54090  0.51547  1.0000
  H   H108      1.0  0.45601  0.54540  0.50754  1.0000
  H   H109      1.0  0.67644  0.56631  0.48458  1.0000
  H   H110      1.0  0.71130  0.56596  0.49262  1.0000
  C   C169      1.0  0.32950  0.54213  0.39063  1.0000
  C   C170      1.0  0.58054  0.78161  0.40296  1.0000
  C   C171      1.0  0.74843  0.58888  0.39354  1.0000
  C   C172      1.0  0.49824  0.34810  0.40374  1.0000
  H   H111      1.0  0.33007  0.55478  0.42695  1.0000
  H   H112      1.0  0.49193  0.34032  0.46243  1.0000
  H   H113      1.0  0.74818  0.57654  0.43149  1.0000
  H   H114      1.0  0.58682  0.78919  0.46192  1.0000
  C   C173      1.0  0.60908  0.07690  0.36237  1.0000
  C   C174      1.0  0.59706  0.05327  0.36349  1.0000
  C   C175      1.0  0.57373  0.04598  0.36259  1.0000
  N   N21       1.0  0.57253  0.06545  0.36097  1.0000
  C   C176      1.0  0.59341  0.08466  0.36121  1.0000
  C   C177      1.0  0.59923  0.10805  0.36076  1.0000
  C   C178      1.0  0.58305  0.11569  0.36127  1.0000
  N   N22       1.0  0.55996  0.10299  0.36083  1.0000
  C   C179      1.0  0.55000  0.11609  0.36280  1.0000
  C   C180      1.0  0.56793  0.13869  0.36459  1.0000
  C   C181      1.0  0.58822  0.13845  0.36363  1.0000
  C   C182      1.0  0.52630  0.10893  0.36354  1.0000
  C   C183      1.0  0.50840  0.08569  0.36257  1.0000
  N   N23       1.0  0.50960  0.06623  0.36129  1.0000
  C   C184      1.0  0.48873  0.04702  0.36121  1.0000
  C   C185      1.0  0.47305  0.05478  0.36187  1.0000
  C   C186      1.0  0.48507  0.07841  0.36294  1.0000
  C   C187      1.0  0.48290  0.02363  0.36072  1.0000
  C   C188      1.0  0.49907  0.01600  0.36116  1.0000
  N   N24       1.0  0.52216  0.02869  0.36100  1.0000
  C   C189      1.0  0.53213  0.01560  0.36263  1.0000
  C   C190      1.0  0.51419  0.99298  0.36373  1.0000
  C   C191      1.0  0.49390  0.99323  0.36290  1.0000
  C   C192      1.0  0.55583  0.02274  0.36357  1.0000
  C   C193      1.0  0.56175  0.00516  0.36810  1.0000
  C   C194      1.0  0.56240  0.99559  0.45207  1.0000
  C   C195      1.0  0.56475  0.97604  0.45654  1.0000
  C   C196      1.0  0.56649  0.96529  0.37754  1.0000
  C   C197      1.0  0.56656  0.94407  0.38220  1.0000
  C   C198      1.0  0.56515  0.90069  0.38956  1.0000
  C   C199      1.0  0.55077  0.90522  0.44433  1.0000
  C   C200      1.0  0.55147  0.92637  0.44078  1.0000
  C   C201      1.0  0.45924  0.00644  0.36233  1.0000
  C   C202      1.0  0.44759  0.99875  0.44507  1.0000
  C   C203      1.0  0.42497  0.98033  0.44781  1.0000
  C   C204      1.0  0.41319  0.96880  0.36831  1.0000
  C   C205      1.0  0.39040  0.94949  0.37221  1.0000
  C   C206      1.0  0.37386  0.94925  0.43112  1.0000
  C   C207      1.0  0.35188  0.92995  0.43882  1.0000
  C   C208      1.0  0.34535  0.91000  0.38755  1.0000
  C   C209      1.0  0.52036  0.12648  0.36774  1.0000
  C   C210      1.0  0.51509  0.16601  0.37785  1.0000
  C   C211      1.0  0.51593  0.15449  0.45663  1.0000
  C   C212      1.0  0.51857  0.13513  0.45184  1.0000
  C   C213      1.0  0.51462  0.18701  0.38326  1.0000
  C   C214      1.0  0.52861  0.20410  0.44602  1.0000
  C   C215      1.0  0.52899  0.22510  0.45020  1.0000
  C   C216      1.0  0.51536  0.23005  0.39194  1.0000
  C   C217      1.0  0.62288  0.12526  0.36248  1.0000
  C   C218      1.0  0.63461  0.13291  0.44528  1.0000
  C   C219      1.0  0.65715  0.15148  0.44813  1.0000
  C   C220      1.0  0.66878  0.16319  0.36870  1.0000
  C   C221      1.0  0.69146  0.18269  0.37273  1.0000
  C   C222      1.0  0.73627  0.22254  0.38831  1.0000
  C   C223      1.0  0.73004  0.20257  0.43963  1.0000
  C   C224      1.0  0.70817  0.18310  0.43183  1.0000
  H   H115      1.0  0.74136  0.20204  0.48430  1.0000
  H   H116      1.0  0.70459  0.16910  0.47028  1.0000
  H   H117      1.0  0.66469  0.15694  0.50987  1.0000
  H   H118      1.0  0.62656  0.12545  0.50444  1.0000
  H   H119      1.0  0.62650  0.08663  0.36292  1.0000
  H   H120      1.0  0.60442  0.04324  0.36478  1.0000
  H   H121      1.0  0.55842  0.06562  0.36021  1.0000
  H   H122      1.0  0.52372  0.06606  0.36110  1.0000
  H   H123      1.0  0.60405  0.15274  0.36540  1.0000
  H   H124      1.0  0.56677  0.15319  0.36685  1.0000
  H   H125      1.0  0.52000  0.12785  0.51036  1.0000
  H   H126      1.0  0.51504  0.16038  0.51897  1.0000
  H   H127      1.0  0.47771  0.08844  0.36375  1.0000
  H   H128      1.0  0.45563  0.04505  0.36199  1.0000
  H   H129      1.0  0.51534  0.97848  0.36521  1.0000
  H   H130      1.0  0.47807  0.97893  0.36401  1.0000
  H   H131      1.0  0.45572  0.00611  0.50425  1.0000
  H   H132      1.0  0.41747  0.97485  0.50949  1.0000
  H   H133      1.0  0.34069  0.93057  0.48340  1.0000
  H   H134      1.0  0.37765  0.96325  0.46953  1.0000
  H   H135      1.0  0.54027  0.92846  0.48019  1.0000
  H   H136      1.0  0.53936  0.89298  0.48738  1.0000
  H   H137      1.0  0.56470  0.96941  0.51869  1.0000
  H   H138      1.0  0.56020  0.00223  0.51051  1.0000
  H   H139      1.0  0.53930  0.20174  0.48805  1.0000
  H   H140      1.0  0.53964  0.23691  0.49626  1.0000
  C   C225      1.0  0.56351  0.87923  0.39438  1.0000
  C   C226      1.0  0.32396  0.89066  0.40148  1.0000
  C   C227      1.0  0.51674  0.25138  0.39723  1.0000
  C   C228      1.0  0.75757  0.24201  0.40224  1.0000
  H   H141      1.0  0.55088  0.86708  0.43077  1.0000
  H   H142      1.0  0.76541  0.24345  0.46084  1.0000
  H   H143      1.0  0.52908  0.26337  0.43519  1.0000
  H   H144      1.0  0.31634  0.88914  0.46040  1.0000
  C   C229      1.0  0.29103  0.52878  0.35362  1.0000
  N   N25       1.0  0.25753  0.52483  0.42331  1.0000
  C   C230      1.0  0.27722  0.52404  0.43144  1.0000
  C   C231      1.0  0.28289  0.51801  0.52030  1.0000
  O   O1        1.0  0.28540  0.49822  0.51593  1.0000
  H   H145      1.0  0.26985  0.51512  0.57030  1.0000
  H   H146      1.0  0.29897  0.53229  0.54420  1.0000
  H   H147      1.0  0.27039  0.48494  0.50144  1.0000
  N   N26       1.0  0.31052  0.52834  0.35108  1.0000
  C   C232      1.0  0.57684  0.85416  0.35737  1.0000
  N   N27       1.0  0.58081  0.82448  0.42707  1.0000
  C   C233      1.0  0.58159  0.84493  0.43519  1.0000
  C   C234      1.0  0.58761  0.85644  0.52405  1.0000
  O   O2        1.0  0.60740  0.87876  0.51966  1.0000
  H   H148      1.0  0.59051  0.84619  0.57404  1.0000
  H   H149      1.0  0.57333  0.85818  0.54796  1.0000
  H   H150      1.0  0.62069  0.87707  0.50516  1.0000
  N   N28       1.0  0.57728  0.87410  0.35478  1.0000
  C   C235      1.0  0.25144  0.81463  0.35380  1.0000
  N   N29       1.0  0.28107  0.84800  0.42441  1.0000
  C   C236      1.0  0.26061  0.82830  0.43199  1.0000
  C   C237      1.0  0.24902  0.82247  0.52069  1.0000
  O   O3        1.0  0.22671  0.81998  0.51622  1.0000
  H   H151      1.0  0.25923  0.83542  0.57105  1.0000
  H   H152      1.0  0.24724  0.80634  0.54414  1.0000
  H   H153      1.0  0.22842  0.83501  0.50215  1.0000
  N   N30       1.0  0.23151  0.79513  0.35077  1.0000
  C   C238      1.0  0.78681  0.60240  0.35503  1.0000
  N   N31       1.0  0.82079  0.60710  0.42427  1.0000
  C   C239      1.0  0.80095  0.60756  0.43246  1.0000
  C   C240      1.0  0.79550  0.61373  0.52095  1.0000
  O   O4        1.0  0.79258  0.63328  0.51521  1.0000
  H   H154      1.0  0.80882  0.61701  0.57060  1.0000
  H   H155      1.0  0.77965  0.59938  0.54603  1.0000
  H   H156      1.0  0.80741  0.64666  0.49961  1.0000
  N   N32       1.0  0.76716  0.60254  0.35238  1.0000
  C   C241      1.0  0.50322  0.27633  0.35878  1.0000
  N   N33       1.0  0.49854  0.30547  0.42805  1.0000
  C   C242      1.0  0.49808  0.28515  0.43623  1.0000
  C   C243      1.0  0.49192  0.27334  0.52472  1.0000
  O   O5        1.0  0.47237  0.25088  0.51902  1.0000
  H   H157      1.0  0.48864  0.28327  0.57439  1.0000
  H   H158      1.0  0.50628  0.27178  0.54976  1.0000
  H   H159      1.0  0.45899  0.25236  0.50347  1.0000
  N   N34       1.0  0.50308  0.25654  0.35610  1.0000
  C   C244      1.0  0.82928  0.31881  0.35524  1.0000
  N   N35       1.0  0.80022  0.28493  0.42537  1.0000
  C   C245      1.0  0.82055  0.30478  0.43301  1.0000
  C   C246      1.0  0.83246  0.31037  0.52131  1.0000
  O   O6        1.0  0.85491  0.31330  0.51539  1.0000
  H   H160      1.0  0.82258  0.29714  0.57131  1.0000
  H   H161      1.0  0.83403  0.32627  0.54602  1.0000
  H   H162      1.0  0.85342  0.29845  0.50014  1.0000
  N   N36       1.0  0.84906  0.33845  0.35209  1.0000
