data_image0
_chemical_formula_structural       C2HC6H2CH3C3HC2H2C2NO2C2HC2HCNOC2NO2C4HNO2C4HNO2C2H2C2H2C2H2C2H2C6H3C6H3C6H3C6H3C6H3CHC2H2C2H2C4HNO3C4HNO2C4HNO2C4HNO2
_chemical_formula_sum              "C90 H45 N9 O18"
_cell_length_a       30.4633
_cell_length_b       30.4634
_cell_length_c       14.6825
_cell_angle_alpha    90
_cell_angle_beta     90
_cell_angle_gamma    120

_space_group_name_H-M_alt    "P 1"
_space_group_IT_number       1

loop_
  _space_group_symop_operation_xyz
  'x, y, z'

loop_
  _atom_site_type_symbol
  _atom_site_label
  _atom_site_symmetry_multiplicity
  _atom_site_fract_x
  _atom_site_fract_y
  _atom_site_fract_z
  _atom_site_occupancy
  C   C1        1.0  0.07106  0.53478  0.32052  1.0000
  C   C2        1.0  0.04352  0.54860  0.26076  1.0000
  H   H1        1.0  0.06296  0.57811  0.21659  1.0000
  C   C3        1.0  0.20553  0.56366  0.36074  1.0000
  C   C4        1.0  0.22914  0.61666  0.37233  1.0000
  C   C5        1.0  0.20373  0.64425  0.35874  1.0000
  C   C6        1.0  0.15201  0.61685  0.33338  1.0000
  C   C7        1.0  0.12554  0.56298  0.32650  1.0000
  C   C8        1.0  0.15383  0.53751  0.33533  1.0000
  H   H2        1.0  0.13249  0.63603  0.32869  1.0000
  H   H3        1.0  0.13580  0.49887  0.32962  1.0000
  C   C9        1.0  0.04243  0.49360  0.37995  1.0000
  H   H4        1.0  0.06026  0.48323  0.42716  1.0000
  H   H5        1.0  0.23199  0.51848  0.23619  1.0000
  H   H6        1.0  0.23063  0.71751  0.23443  1.0000
  C   C10       1.0  0.23203  0.69751  0.37206  1.0000
  C   C11       1.0  0.25040  0.52311  0.29684  1.0000
  C   C12       1.0  0.29686  0.52308  0.29545  1.0000
  H   H7        1.0  0.31016  0.51908  0.23381  1.0000
  C   C13       1.0  0.29436  0.77700  0.29810  1.0000
  C   C14       1.0  0.24783  0.73059  0.29621  1.0000
  H   H8        1.0  0.30825  0.79561  0.23765  1.0000
  H   H9        1.0  0.26731  0.63644  0.38575  1.0000
  C   C15       1.0  0.26548  0.55170  0.45446  1.0000
  C   C16       1.0  0.23563  0.54056  0.37415  1.0000
  N   N1        1.0  0.25055  0.56708  0.53434  1.0000
  O   O1        1.0  0.28330  0.61092  0.55953  1.0000
  O   O2        1.0  0.24254  0.53691  0.59889  1.0000
  C   C17       1.0  0.26058  0.71564  0.45323  1.0000
  C   C18       1.0  0.30759  0.76129  0.45549  1.0000
  H   H10       1.0  0.25055  0.69219  0.50876  1.0000
  C   C19       1.0  0.32968  0.54031  0.37171  1.0000
  C   C20       1.0  0.31122  0.55050  0.45266  1.0000
  H   H11       1.0  0.33451  0.56392  0.50838  1.0000
  C   C21       1.0  0.32649  0.79139  0.37550  1.0000
  N   N2        1.0  0.33773  0.77591  0.53558  1.0000
  O   O3        1.0  0.31551  0.78384  0.60012  1.0000
  C   C22       1.0  0.98958  0.52245  0.25915  1.0000
  C   C23       1.0  0.96128  0.48101  0.31936  1.0000
  N   N3        1.0  0.96354  0.53658  0.19642  1.0000
  O   O4        1.0  0.97419  0.58173  0.20823  1.0000
  O   O5        1.0  0.97378  0.53153  0.11558  1.0000
  C   C24       1.0  0.49229  0.54176  0.32074  1.0000
  C   C25       1.0  0.47848  0.50038  0.26103  1.0000
  C   C26       1.0  0.50460  0.47254  0.25957  1.0000
  C   C27       1.0  0.54600  0.48569  0.31986  1.0000
  H   H12       1.0  0.44901  0.49031  0.21678  1.0000
  N   N4        1.0  0.49045  0.43232  0.19696  1.0000
  O   O6        1.0  0.44529  0.39785  0.20879  1.0000
  O   O7        1.0  0.49551  0.44755  0.11608  1.0000
  C   C28       1.0  0.48526  0.95586  0.32101  1.0000
  C   C29       1.0  0.52644  0.98337  0.26091  1.0000
  C   C30       1.0  0.55423  0.03733  0.25922  1.0000
  C   C31       1.0  0.54125  0.06563  0.31973  1.0000
  H   H13       1.0  0.53640  0.96392  0.21654  1.0000
  N   N5        1.0  0.59420  0.06337  0.19614  1.0000
  O   O8        1.0  0.62875  0.05274  0.20742  1.0000
  O   O9        1.0  0.57866  0.05311  0.11544  1.0000
  C   C32       1.0  0.50412  0.73288  0.29774  1.0000
  C   C33       1.0  0.50419  0.77939  0.29660  1.0000
  H   H14       1.0  0.50884  0.71927  0.23695  1.0000
  H   H15       1.0  0.50824  0.79686  0.23512  1.0000
  C   C34       1.0  0.78522  0.49851  0.29925  1.0000
  C   C35       1.0  0.73906  0.49910  0.29722  1.0000
  H   H16       1.0  0.80379  0.50310  0.23878  1.0000
  H   H17       1.0  0.72614  0.50368  0.23561  1.0000
  C   C36       1.0  0.52807  0.29200  0.30019  1.0000
  C   C37       1.0  0.52750  0.24525  0.29789  1.0000
  H   H18       1.0  0.52331  0.30605  0.23995  1.0000
  H   H19       1.0  0.52270  0.22787  0.23609  1.0000
  C   C38       1.0  0.73473  0.24176  0.29878  1.0000
  C   C39       1.0  0.78146  0.28795  0.29651  1.0000
  H   H20       1.0  0.72067  0.22314  0.23838  1.0000
  H   H21       1.0  0.79887  0.30083  0.23482  1.0000
  C   C40       1.0  0.46361  0.64747  0.36117  1.0000
  C   C41       1.0  0.41059  0.61812  0.37261  1.0000
  C   C42       1.0  0.38294  0.56517  0.35848  1.0000
  C   C43       1.0  0.41027  0.54082  0.33284  1.0000
  C   C44       1.0  0.46416  0.56812  0.32648  1.0000
  C   C45       1.0  0.48971  0.62188  0.33566  1.0000
  H   H22       1.0  0.39105  0.50212  0.32825  1.0000
  H   H23       1.0  0.52836  0.64244  0.33022  1.0000
  H   H24       1.0  0.39087  0.63655  0.38626  1.0000
  C   C46       1.0  0.37971  0.82154  0.36236  1.0000
  C   C47       1.0  0.40916  0.79801  0.37434  1.0000
  C   C48       1.0  0.46208  0.82329  0.35995  1.0000
  C   C49       1.0  0.48635  0.87489  0.33372  1.0000
  C   C50       1.0  0.45897  0.90138  0.32709  1.0000
  C   C51       1.0  0.40522  0.87313  0.33624  1.0000
  H   H25       1.0  0.52504  0.89440  0.32892  1.0000
  H   H26       1.0  0.38462  0.89117  0.33039  1.0000
  H   H27       1.0  0.39077  0.75985  0.38792  1.0000
  C   C52       1.0  0.82829  0.45637  0.36324  1.0000
  C   C53       1.0  0.80324  0.40323  0.37401  1.0000
  C   C54       1.0  0.82712  0.37432  0.35898  1.0000
  C   C55       1.0  0.87860  0.40049  0.33211  1.0000
  C   C56       1.0  0.90668  0.45442  0.32620  1.0000
  C   C57       1.0  0.88002  0.48136  0.33794  1.0000
  H   H28       1.0  0.89676  0.38015  0.32381  1.0000
  H   H29       1.0  0.89932  0.52011  0.33663  1.0000
  H   H30       1.0  0.76509  0.38436  0.38763  1.0000
  C   C58       1.0  0.57070  0.37741  0.36426  1.0000
  C   C59       1.0  0.62385  0.40557  0.37503  1.0000
  C   C60       1.0  0.65274  0.45834  0.35989  1.0000
  C   C61       1.0  0.62655  0.48359  0.33280  1.0000
  C   C62       1.0  0.57262  0.45770  0.32684  1.0000
  C   C63       1.0  0.54570  0.40410  0.33859  1.0000
  H   H31       1.0  0.64687  0.52208  0.32440  1.0000
  H   H32       1.0  0.50695  0.38461  0.33712  1.0000
  H   H33       1.0  0.64275  0.38630  0.38855  1.0000
  C   C64       1.0  0.64962  0.19866  0.36322  1.0000
  C   C65       1.0  0.62150  0.22368  0.37421  1.0000
  C   C66       1.0  0.56868  0.19976  0.35961  1.0000
  C   C67       1.0  0.54336  0.14828  0.33280  1.0000
  C   C68       1.0  0.56924  0.12024  0.32650  1.0000
  C   C69       1.0  0.62286  0.14693  0.33791  1.0000
  H   H34       1.0  0.50485  0.13008  0.32460  1.0000
  H   H35       1.0  0.64234  0.12765  0.33634  1.0000
  H   H36       1.0  0.64081  0.26184  0.38782  1.0000
  C   C70       1.0  0.98908  0.46760  0.37954  1.0000
  H   H37       1.0  0.97060  0.43935  0.42647  1.0000
  C   C71       1.0  0.55941  0.52692  0.37998  1.0000
  C   C72       1.0  0.53343  0.55429  0.38024  1.0000
  H   H38       1.0  0.58763  0.53669  0.42697  1.0000
  H   H39       1.0  0.54381  0.58250  0.42744  1.0000
  C   C73       1.0  0.50021  0.03785  0.38026  1.0000
  C   C74       1.0  0.47287  0.98450  0.38071  1.0000
  H   H40       1.0  0.49056  0.05634  0.42737  1.0000
  H   H41       1.0  0.44480  0.96669  0.42815  1.0000
  C   C75       1.0  0.48695  0.79488  0.37299  1.0000
  C   C76       1.0  0.47671  0.76608  0.45378  1.0000
  C   C77       1.0  0.47564  0.71921  0.45545  1.0000
  C   C78       1.0  0.48679  0.70064  0.37501  1.0000
  H   H42       1.0  0.46341  0.77600  0.50963  1.0000
  N   N6        1.0  0.46028  0.68880  0.53520  1.0000
  O   O10       1.0  0.41641  0.67761  0.56037  1.0000
  O   O11       1.0  0.49040  0.71092  0.59981  1.0000
  O   O12       1.0  0.34864  0.74301  0.56056  1.0000
  C   C79       1.0  0.70596  0.48203  0.37307  1.0000
  C   C80       1.0  0.72381  0.47135  0.45430  1.0000
  C   C81       1.0  0.76933  0.46978  0.45689  1.0000
  C   C82       1.0  0.79938  0.48074  0.37692  1.0000
  H   H43       1.0  0.70035  0.45831  0.50985  1.0000
  N   N7        1.0  0.78368  0.45395  0.53692  1.0000
  O   O13       1.0  0.75049  0.41022  0.56174  1.0000
  O   O14       1.0  0.79178  0.48410  0.60154  1.0000
  C   C83       1.0  0.54497  0.22923  0.37315  1.0000
  C   C84       1.0  0.55591  0.25781  0.45440  1.0000
  C   C85       1.0  0.55763  0.30498  0.45724  1.0000
  C   C86       1.0  0.54644  0.32411  0.37754  1.0000
  H   H44       1.0  0.56924  0.24751  0.50970  1.0000
  N   N8        1.0  0.57369  0.33509  0.53734  1.0000
  O   O15       1.0  0.61744  0.34551  0.56182  1.0000
  O   O16       1.0  0.54366  0.31308  0.60211  1.0000
  C   C87       1.0  0.79760  0.32110  0.37229  1.0000
  C   C88       1.0  0.76918  0.30332  0.45364  1.0000
  C   C89       1.0  0.72212  0.25776  0.45648  1.0000
  C   C90       1.0  0.70292  0.22764  0.37660  1.0000
  H   H45       1.0  0.77967  0.32682  0.50914  1.0000
  N   N9        1.0  0.69209  0.24344  0.53668  1.0000
  O   O17       1.0  0.68155  0.27662  0.56161  1.0000
  O   O18       1.0  0.71427  0.23541  0.60116  1.0000
