data_image0
_chemical_formula_structural       C3H4CH2C3H4CH2C3H4CH2CNCNCNC18H12NHNHNHCNCNCNC18H12NHNHNHC3NC2NHOCHCH2C3NC2NHOCHCH2C3NC2NHOCHCH2
_chemical_formula_sum              "C75 H60 N18 O3"
_cell_length_a       36.5307
_cell_length_b       36.5315
_cell_length_c       15.0231
_cell_angle_alpha    90
_cell_angle_beta     90
_cell_angle_gamma    120

_space_group_name_H-M_alt    "P 1"
_space_group_IT_number       1

loop_
  _space_group_symop_operation_xyz
  'x, y, z'

loop_
  _atom_site_type_symbol
  _atom_site_label
  _atom_site_symmetry_multiplicity
  _atom_site_fract_x
  _atom_site_fract_y
  _atom_site_fract_z
  _atom_site_occupancy
  C   C1        1.0  0.53074  0.48737  0.32567  1.0000
  C   C2        1.0  0.50520  0.53600  0.28841  1.0000
  C   C3        1.0  0.52865  0.51635  0.26666  1.0000
  H   H1        1.0  0.54397  0.52322  0.20672  1.0000
  H   H2        1.0  0.50423  0.55661  0.24359  1.0000
  H   H3        1.0  0.52963  0.41129  0.03915  1.0000
  H   H4        1.0  0.52944  0.45956  0.03827  1.0000
  C   C4        1.0  0.55454  0.46575  0.30037  1.0000
  H   H5        1.0  0.56842  0.47496  0.23380  1.0000
  H   H6        1.0  0.53171  0.43185  0.29812  1.0000
  C   C5        1.0  0.51067  0.04297  0.32567  1.0000
  C   C6        1.0  0.46205  0.96880  0.28840  1.0000
  C   C7        1.0  0.48169  0.01190  0.26666  1.0000
  H   H7        1.0  0.47482  0.02036  0.20671  1.0000
  H   H8        1.0  0.44144  0.94722  0.24357  1.0000
  H   H9        1.0  0.58676  0.11794  0.03914  1.0000
  H   H10       1.0  0.53849  0.06947  0.03826  1.0000
  C   C8        1.0  0.53230  0.08840  0.30035  1.0000
  H   H11       1.0  0.52309  0.09307  0.23379  1.0000
  H   H12       1.0  0.56619  0.09946  0.29809  1.0000
  C   C9        1.0  0.95511  0.46736  0.32567  1.0000
  C   C10       1.0  0.02928  0.49290  0.28840  1.0000
  C   C11       1.0  0.98618  0.46944  0.26666  1.0000
  H   H13       1.0  0.97772  0.45412  0.20671  1.0000
  H   H14       1.0  0.05086  0.49387  0.24358  1.0000
  H   H15       1.0  0.88013  0.46845  0.03915  1.0000
  H   H16       1.0  0.92860  0.46865  0.03826  1.0000
  C   C12       1.0  0.90968  0.44354  0.30037  1.0000
  H   H17       1.0  0.90501  0.42966  0.23380  1.0000
  H   H18       1.0  0.89861  0.46637  0.29812  1.0000
  C   C13       1.0  0.28904  0.64846  0.31321  1.0000
  N   N1        1.0  0.30707  0.62371  0.31328  1.0000
  C   C14       1.0  0.34964  0.64020  0.31322  1.0000
  N   N2        1.0  0.37439  0.68298  0.31325  1.0000
  C   C15       1.0  0.35790  0.70906  0.31318  1.0000
  N   N3        1.0  0.31512  0.69104  0.31324  1.0000
  C   C16       1.0  0.36772  0.61371  0.31351  1.0000
  C   C17       1.0  0.34510  0.57193  0.34715  1.0000
  C   C18       1.0  0.36351  0.54610  0.34921  1.0000
  C   C19       1.0  0.40488  0.56120  0.31663  1.0000
  C   C20       1.0  0.42709  0.60233  0.28071  1.0000
  C   C21       1.0  0.40904  0.62845  0.28030  1.0000
  C   C22       1.0  0.24447  0.63038  0.31349  1.0000
  C   C23       1.0  0.21789  0.58906  0.28030  1.0000
  C   C24       1.0  0.17372  0.57102  0.28070  1.0000
  C   C25       1.0  0.15479  0.59322  0.31662  1.0000
  C   C26       1.0  0.18108  0.63460  0.34918  1.0000
  C   C27       1.0  0.22532  0.65301  0.34712  1.0000
  C   C28       1.0  0.38439  0.75363  0.31342  1.0000
  C   C29       1.0  0.36966  0.78021  0.28016  1.0000
  C   C30       1.0  0.39577  0.82437  0.28060  1.0000
  C   C31       1.0  0.43690  0.84331  0.31655  1.0000
  C   C32       1.0  0.45199  0.81703  0.34913  1.0000
  C   C33       1.0  0.42618  0.77279  0.34705  1.0000
  H   H19       1.0  0.15531  0.54125  0.25547  1.0000
  H   H20       1.0  0.23037  0.57184  0.25396  1.0000
  H   H21       1.0  0.16808  0.65140  0.37516  1.0000
  H   H22       1.0  0.24332  0.68282  0.37246  1.0000
  H   H23       1.0  0.33994  0.76772  0.25388  1.0000
  H   H24       1.0  0.38442  0.84279  0.25538  1.0000
  H   H25       1.0  0.43797  0.75480  0.37249  1.0000
  H   H26       1.0  0.48178  0.83003  0.37516  1.0000
  H   H27       1.0  0.42627  0.65815  0.25395  1.0000
  H   H28       1.0  0.45685  0.61367  0.25546  1.0000
  H   H29       1.0  0.34670  0.51631  0.37520  1.0000
  H   H30       1.0  0.31529  0.56013  0.37251  1.0000
  N   N4        1.0  0.42457  0.53622  0.31681  1.0000
  H   H31       1.0  0.40266  0.50459  0.32241  1.0000
  N   N5        1.0  0.46187  0.88798  0.31677  1.0000
  H   H32       1.0  0.49349  0.89769  0.32237  1.0000
  N   N6        1.0  0.11012  0.57353  0.31680  1.0000
  H   H33       1.0  0.10041  0.59544  0.32239  1.0000
  C   C34       1.0  0.70822  0.34725  0.35037  1.0000
  N   N7        1.0  0.69293  0.37437  0.35061  1.0000
  C   C35       1.0  0.65082  0.36057  0.35034  1.0000
  N   N8        1.0  0.62371  0.31817  0.35058  1.0000
  C   C36       1.0  0.63750  0.28985  0.35034  1.0000
  N   N9        1.0  0.67991  0.30514  0.35060  1.0000
  C   C37       1.0  0.63570  0.38952  0.35336  1.0000
  C   C38       1.0  0.66003  0.43101  0.31910  1.0000
  C   C39       1.0  0.64483  0.45958  0.32223  1.0000
  C   C40       1.0  0.60517  0.44758  0.36098  1.0000
  C   C41       1.0  0.58134  0.40666  0.39732  1.0000
  C   C42       1.0  0.59606  0.37780  0.39235  1.0000
  C   C43       1.0  0.75229  0.36237  0.35339  1.0000
  C   C44       1.0  0.78021  0.40201  0.39240  1.0000
  C   C45       1.0  0.82380  0.41674  0.39733  1.0000
  C   C46       1.0  0.84088  0.39291  0.36100  1.0000
  C   C47       1.0  0.81324  0.35326  0.32223  1.0000
  C   C48       1.0  0.76947  0.33806  0.31911  1.0000
  C   C49       1.0  0.60856  0.24579  0.35334  1.0000
  C   C50       1.0  0.62028  0.21786  0.39231  1.0000
  C   C51       1.0  0.59140  0.17428  0.39729  1.0000
  C   C52       1.0  0.55049  0.15720  0.36095  1.0000
  C   C53       1.0  0.53849  0.18485  0.32219  1.0000
  C   C54       1.0  0.56706  0.22862  0.31906  1.0000
  H   H34       1.0  0.84317  0.44528  0.42687  1.0000
  H   H35       1.0  0.76906  0.42024  0.41958  1.0000
  H   H36       1.0  0.82490  0.33536  0.29575  1.0000
  H   H37       1.0  0.75041  0.30936  0.28986  1.0000
  H   H38       1.0  0.64965  0.22901  0.41955  1.0000
  H   H39       1.0  0.60056  0.15490  0.42682  1.0000
  H   H40       1.0  0.55742  0.24768  0.28985  1.0000
  H   H41       1.0  0.50892  0.17320  0.29573  1.0000
  H   H42       1.0  0.57783  0.34842  0.41953  1.0000
  H   H43       1.0  0.55279  0.39749  0.42682  1.0000
  H   H44       1.0  0.66273  0.48915  0.29577  1.0000
  H   H45       1.0  0.68874  0.44066  0.28988  1.0000
  N   N10       1.0  0.58861  0.47526  0.36599  1.0000
  H   H46       1.0  0.61199  0.50632  0.35957  1.0000
  N   N11       1.0  0.52280  0.11296  0.36597  1.0000
  H   H47       1.0  0.49174  0.10528  0.35957  1.0000
  N   N12       1.0  0.88513  0.40947  0.36599  1.0000
  H   H48       1.0  0.89282  0.38610  0.35957  1.0000
  C   C55       1.0  0.50896  0.47884  0.40798  1.0000
  C   C56       1.0  0.48501  0.49858  0.42984  1.0000
  C   C57       1.0  0.48261  0.52709  0.36941  1.0000
  N   N13       1.0  0.46474  0.48902  0.50980  1.0000
  C   C58       1.0  0.46651  0.46217  0.56960  1.0000
  C   C59       1.0  0.49079  0.44324  0.54892  1.0000
  N   N14       1.0  0.51045  0.45191  0.46867  1.0000
  H   H49       1.0  0.45069  0.45622  0.62865  1.0000
  O   O1        1.0  0.49339  0.41553  0.60598  1.0000
  C   C60       1.0  0.52996  0.43545  0.66270  1.0000
  H   H50       1.0  0.55923  0.44959  0.62403  1.0000
  C   C61       1.0  0.45733  0.54805  0.38694  1.0000
  H   H51       1.0  0.47924  0.58217  0.38706  1.0000
  H   H52       1.0  0.44201  0.53982  0.45219  1.0000
  C   C62       1.0  0.51920  0.02972  0.40797  1.0000
  C   C63       1.0  0.49947  0.98603  0.42983  1.0000
  C   C64       1.0  0.47096  0.95512  0.36940  1.0000
  N   N15       1.0  0.50903  0.97532  0.50978  1.0000
  C   C65       1.0  0.53589  0.00394  0.56958  1.0000
  C   C66       1.0  0.55481  0.04715  0.54890  1.0000
  N   N16       1.0  0.54614  0.05814  0.46865  1.0000
  H   H53       1.0  0.54184  0.99407  0.62862  1.0000
  O   O2        1.0  0.58252  0.07746  0.60596  1.0000
  C   C67       1.0  0.56260  0.09411  0.66269  1.0000
  H   H54       1.0  0.54846  0.10923  0.62402  1.0000
  C   C68       1.0  0.45002  0.90888  0.38691  1.0000
  H   H55       1.0  0.41589  0.89666  0.38702  1.0000
  H   H56       1.0  0.45824  0.90179  0.45215  1.0000
  C   C69       1.0  0.96836  0.48913  0.40797  1.0000
  C   C70       1.0  0.01205  0.51309  0.42983  1.0000
  C   C71       1.0  0.04296  0.51548  0.36941  1.0000
  N   N17       1.0  0.02276  0.53336  0.50979  1.0000
  C   C72       1.0  0.99413  0.53159  0.56959  1.0000
  C   C73       1.0  0.95092  0.50730  0.54891  1.0000
  N   N18       1.0  0.93994  0.48764  0.46866  1.0000
  H   H57       1.0  0.00401  0.54741  0.62864  1.0000
  O   O3        1.0  0.92062  0.50470  0.60598  1.0000
  C   C74       1.0  0.90397  0.46813  0.66269  1.0000
  H   H58       1.0  0.88884  0.43886  0.62401  1.0000
  C   C75       1.0  0.08920  0.54077  0.38693  1.0000
  H   H59       1.0  0.10141  0.51886  0.38705  1.0000
  H   H60       1.0  0.09629  0.55609  0.45217  1.0000
