data_image0
_chemical_formula_structural       C4HC4HN2H4N2C4HC4HN2H4N2C4HC4HN2H4N3C2HCHNC2HCHNC2HCHNC2HCHNC2HCHNC2HCHC2HC2HN2C2HC2HN2C2HC2HN2CNCNO2CHCNCNO2CHCNCNO2CHCNCNO2CHCNCNO2CHCNCNO2CH
_chemical_formula_sum              "C72 H42 N36 O12"
_cell_length_a       30.9193
_cell_length_b       30.9193
_cell_length_c       14.9795
_cell_angle_alpha    90
_cell_angle_beta     90
_cell_angle_gamma    120

_space_group_name_H-M_alt    "P 1"
_space_group_IT_number       1

loop_
  _space_group_symop_operation_xyz
  'x, y, z'

loop_
  _atom_site_type_symbol
  _atom_site_label
  _atom_site_symmetry_multiplicity
  _atom_site_fract_x
  _atom_site_fract_y
  _atom_site_fract_z
  _atom_site_occupancy
  C   C1        1.0  0.02782  0.52620  0.27829  1.0000
  C   C2        1.0  0.13134  0.57644  0.23720  1.0000
  C   C3        1.0  0.10857  0.60463  0.26108  1.0000
  C   C4        1.0  0.05544  0.57957  0.26549  1.0000
  H   H1        1.0  0.16899  0.59436  0.22634  1.0000
  C   C5        1.0  0.97677  0.49776  0.30787  1.0000
  C   C6        1.0  0.94569  0.44508  0.29074  1.0000
  C   C7        1.0  0.90437  0.41521  0.34778  1.0000
  C   C8        1.0  0.88871  0.43908  0.40946  1.0000
  H   H2        1.0  0.85506  0.41854  0.44115  1.0000
  N   N1        1.0  0.03296  0.60743  0.25311  1.0000
  N   N2        1.0  0.95367  0.42341  0.21790  1.0000
  H   H3        1.0  0.99795  0.59114  0.23651  1.0000
  H   H4        1.0  0.05261  0.64276  0.23828  1.0000
  H   H5        1.0  0.93203  0.38833  0.20353  1.0000
  H   H6        1.0  0.97659  0.44368  0.17099  1.0000
  N   N3        1.0  0.87508  0.36516  0.33452  1.0000
  N   N4        1.0  0.13645  0.65265  0.29165  1.0000
  C   C9        1.0  0.49620  0.51750  0.31581  1.0000
  C   C10       1.0  0.43581  0.56129  0.34230  1.0000
  C   C11       1.0  0.41679  0.51706  0.29183  1.0000
  C   C12       1.0  0.45026  0.50014  0.26675  1.0000
  H   H7        1.0  0.41477  0.57818  0.34986  1.0000
  C   C13       1.0  0.52564  0.49336  0.31382  1.0000
  C   C14       1.0  0.57903  0.51896  0.32659  1.0000
  C   C15       1.0  0.60301  0.49114  0.34816  1.0000
  C   C16       1.0  0.57643  0.43922  0.33185  1.0000
  H   H8        1.0  0.59465  0.41959  0.33792  1.0000
  N   N5        1.0  0.43814  0.46915  0.19482  1.0000
  N   N6        1.0  0.60818  0.56923  0.31404  1.0000
  H   H9        1.0  0.46300  0.46328  0.16651  1.0000
  H   H10       1.0  0.40813  0.45952  0.15995  1.0000
  H   H11       1.0  0.64440  0.58580  0.31785  1.0000
  H   H12       1.0  0.59495  0.58808  0.28436  1.0000
  N   N7        1.0  0.65125  0.51350  0.37852  1.0000
  N   N8        1.0  0.36878  0.49570  0.26206  1.0000
  C   C17       1.0  0.48217  0.97335  0.36161  1.0000
  C   C18       1.0  0.44202  0.88647  0.47096  1.0000
  C   C19       1.0  0.48852  0.90332  0.42883  1.0000
  C   C20       1.0  0.50686  0.94442  0.36832  1.0000
  H   H13       1.0  0.42515  0.85246  0.50233  1.0000
  C   C21       1.0  0.50478  0.02176  0.32055  1.0000
  C   C22       1.0  0.47822  0.04202  0.27375  1.0000
  C   C23       1.0  0.50445  0.09296  0.24720  1.0000
  C   C24       1.0  0.55689  0.12007  0.24872  1.0000
  H   H14       1.0  0.57504  0.15677  0.22925  1.0000
  N   N9        1.0  0.54567  0.95328  0.31311  1.0000
  N   N10       1.0  0.43033  0.01363  0.24419  1.0000
  H   H15       1.0  0.55361  0.97493  0.26144  1.0000
  H   H16       1.0  0.56154  0.93297  0.31460  1.0000
  H   H17       1.0  0.41538  0.02769  0.20521  1.0000
  H   H18       1.0  0.41517  0.97758  0.24170  1.0000
  N   N11       1.0  0.48400  0.12194  0.23225  1.0000
  N   N12       1.0  0.50986  0.87414  0.43299  1.0000
  N   N13       1.0  0.28406  0.49883  0.19089  1.0000
  C   C25       1.0  0.24602  0.50350  0.15629  1.0000
  C   C26       1.0  0.20544  0.49464  0.21165  1.0000
  H   H19       1.0  0.24870  0.51596  0.09221  1.0000
  C   C27       1.0  0.17072  0.50917  0.18758  1.0000
  H   H20       1.0  0.17912  0.53299  0.13454  1.0000
  N   N14       1.0  0.51665  0.79346  0.37686  1.0000
  C   C28       1.0  0.51604  0.75295  0.34151  1.0000
  C   C29       1.0  0.51239  0.71512  0.39903  1.0000
  H   H21       1.0  0.51592  0.74957  0.27358  1.0000
  C   C30       1.0  0.50222  0.66888  0.36430  1.0000
  H   H22       1.0  0.49206  0.66238  0.29825  1.0000
  N   N15       1.0  0.20397  0.75926  0.33960  1.0000
  C   C31       1.0  0.23478  0.80786  0.36353  1.0000
  C   C32       1.0  0.27959  0.82104  0.40955  1.0000
  H   H23       1.0  0.22646  0.83446  0.34354  1.0000
  C   C33       1.0  0.31864  0.87031  0.42421  1.0000
  H   H24       1.0  0.31802  0.89957  0.39372  1.0000
  N   N16       1.0  0.75930  0.55474  0.40220  1.0000
  C   C34       1.0  0.80938  0.57194  0.40521  1.0000
  C   C35       1.0  0.82653  0.54107  0.44162  1.0000
  H   H25       1.0  0.83328  0.60462  0.37362  1.0000
  C   C36       1.0  0.87530  0.54924  0.43044  1.0000
  H   H26       1.0  0.90125  0.57928  0.39485  1.0000
  N   N17       1.0  0.50948  0.21611  0.20423  1.0000
  C   C37       1.0  0.53031  0.26616  0.20752  1.0000
  C   C38       1.0  0.50104  0.28682  0.23613  1.0000
  H   H27       1.0  0.56758  0.28775  0.19387  1.0000
  C   C39       1.0  0.52440  0.33849  0.25122  1.0000
  H   H28       1.0  0.56193  0.35837  0.23849  1.0000
  N   N18       1.0  0.79214  0.27972  0.26824  1.0000
  C   C40       1.0  0.75064  0.24135  0.23143  1.0000
  C   C41       1.0  0.71522  0.20356  0.28750  1.0000
  H   H29       1.0  0.74457  0.24190  0.16445  1.0000
  C   C42       1.0  0.66781  0.16811  0.25601  1.0000
  H   H30       1.0  0.65765  0.17290  0.19330  1.0000
  C   C43       1.0  0.05587  0.50095  0.27425  1.0000
  C   C44       1.0  0.10549  0.52421  0.24415  1.0000
  H   H31       1.0  0.03994  0.46406  0.29116  1.0000
  C   C45       1.0  0.91008  0.49112  0.40780  1.0000
  C   C46       1.0  0.95555  0.52001  0.36274  1.0000
  H   H32       1.0  0.97398  0.55731  0.37612  1.0000
  N   N19       1.0  0.87920  0.50767  0.43445  1.0000
  N   N20       1.0  0.12994  0.49806  0.23773  1.0000
  C   C47       1.0  0.51050  0.55868  0.37509  1.0000
  C   C48       1.0  0.48432  0.58493  0.37780  1.0000
  H   H33       1.0  0.54272  0.57298  0.41140  1.0000
  C   C49       1.0  0.52615  0.41343  0.30470  1.0000
  C   C50       1.0  0.50049  0.44022  0.30667  1.0000
  H   H34       1.0  0.46256  0.41992  0.29968  1.0000
  N   N21       1.0  0.50217  0.36455  0.27864  1.0000
  N   N22       1.0  0.50614  0.63266  0.40863  1.0000
  C   C51       1.0  0.43372  0.95237  0.40011  1.0000
  C   C52       1.0  0.41219  0.90699  0.44703  1.0000
  H   H35       1.0  0.41299  0.96955  0.39458  1.0000
  C   C53       1.0  0.58399  0.10128  0.29339  1.0000
  C   C54       1.0  0.55698  0.05430  0.33470  1.0000
  H   H36       1.0  0.57682  0.04325  0.37398  1.0000
  N   N23       1.0  0.63414  0.12926  0.30595  1.0000
  N   N24       1.0  0.36258  0.87470  0.44975  1.0000
  C   C55       1.0  0.28518  0.48557  0.27704  1.0000
  N   N25       1.0  0.20593  0.48002  0.29690  1.0000
  C   C56       1.0  0.24370  0.47489  0.33231  1.0000
  N   N26       1.0  0.24192  0.46154  0.42286  1.0000
  O   O1        1.0  0.20404  0.41971  0.43728  1.0000
  O   O2        1.0  0.23952  0.49308  0.47237  1.0000
  C   C57       1.0  0.33003  0.49147  0.31155  1.0000
  H   H37       1.0  0.33461  0.49443  0.37947  1.0000
  C   C58       1.0  0.51425  0.80043  0.46589  1.0000
  N   N27       1.0  0.51148  0.72243  0.48831  1.0000
  C   C59       1.0  0.51230  0.76343  0.52453  1.0000
  N   N28       1.0  0.50917  0.76755  0.61772  1.0000
  O   O3        1.0  0.54530  0.76732  0.65548  1.0000
  O   O4        1.0  0.46956  0.73131  0.64712  1.0000
  C   C60       1.0  0.50579  0.83919  0.49229  1.0000
  H   H38       1.0  0.49094  0.83769  0.55401  1.0000
  C   C61       1.0  0.21357  0.72176  0.35883  1.0000
  N   N29       1.0  0.28786  0.78299  0.42996  1.0000
  C   C62       1.0  0.25752  0.73440  0.40821  1.0000
  N   N30       1.0  0.27170  0.69914  0.43299  1.0000
  O   O5        1.0  0.27550  0.69808  0.51633  1.0000
  O   O6        1.0  0.31312  0.71012  0.39907  1.0000
  C   C63       1.0  0.18295  0.67269  0.32769  1.0000
  H   H39       1.0  0.19511  0.64821  0.34183  1.0000
  C   C64       1.0  0.72432  0.51013  0.43747  1.0000
  N   N31       1.0  0.79137  0.49730  0.47831  1.0000
  C   C65       1.0  0.74165  0.48075  0.48055  1.0000
  N   N32       1.0  0.70924  0.43367  0.51893  1.0000
  O   O7        1.0  0.71960  0.43341  0.59991  1.0000
  O   O8        1.0  0.71322  0.39986  0.47988  1.0000
  C   C66       1.0  0.67293  0.49103  0.42338  1.0000
  H   H40       1.0  0.64950  0.45614  0.44805  1.0000
  C   C67       1.0  0.46088  0.18314  0.22353  1.0000
  N   N33       1.0  0.45200  0.25442  0.25393  1.0000
  C   C68       1.0  0.43026  0.20353  0.24716  1.0000
  N   N34       1.0  0.37973  0.17223  0.27012  1.0000
  O   O9        1.0  0.35239  0.18131  0.22085  1.0000
  O   O10       1.0  0.37233  0.17977  0.34961  1.0000
  C   C69       1.0  0.44644  0.13209  0.22664  1.0000
  H   H41       1.0  0.41141  0.10582  0.24659  1.0000
  C   C70       1.0  0.80230  0.28378  0.35717  1.0000
  N   N35       1.0  0.72588  0.20681  0.37607  1.0000
  C   C71       1.0  0.76784  0.24496  0.41367  1.0000
  N   N36       1.0  0.77510  0.24635  0.50681  1.0000
  O   O11       1.0  0.77655  0.20833  0.53174  1.0000
  O   O12       1.0  0.73981  0.24703  0.54704  1.0000
  C   C72       1.0  0.84168  0.32907  0.38951  1.0000
  H   H42       1.0  0.84285  0.33667  0.45622  1.0000
