data_image0
_chemical_formula_structural       C2H2C2H2C2H2C2H2C2H2C2H2C2H2C2H2C2H2C2H2C2H2C2H2C8H3NO2C8H3NO2C8H3NO2C8H3NO2C8H3NO2C8H3NO2C8H3NO2C8H3NO2C8H3NO2C8H3NO2C8H3NO2C8H3NO2CNCNCNCNCNCNCNCNCNCNCNCNCNCNCNCNCNCNCNCNCNCNCNCNCNCNCNCNCNCNCNCNCNCNCNCNC8H3NO2C8H3NO2C8H3NO2C8H3NO2C8H3NO2C8H3NO2C2H2C2H2C2H2C2H2C2H2C2H2C2H2C2H2C2H2C2H2C2H2C2H2C2H2C2H2C2H2C2H2C2H2C2H2C2H2C2H2C2H2C2H2C2H2C2H2
_chemical_formula_sum              "C252 H126 N54 O36"
_cell_length_a       56.6071
_cell_length_b       56.6071
_cell_length_c       14.8355
_cell_angle_alpha    90
_cell_angle_beta     90
_cell_angle_gamma    120

_space_group_name_H-M_alt    "P 1"
_space_group_IT_number       1

loop_
  _space_group_symop_operation_xyz
  'x, y, z'

loop_
  _atom_site_type_symbol
  _atom_site_label
  _atom_site_symmetry_multiplicity
  _atom_site_fract_x
  _atom_site_fract_y
  _atom_site_fract_z
  _atom_site_occupancy
  C   C1        1.0  0.23592  0.42605  0.30184  1.0000
  C   C2        1.0  0.25016  0.45479  0.30410  1.0000
  H   H1        1.0  0.24413  0.41657  0.26536  1.0000
  H   H2        1.0  0.26817  0.46485  0.26944  1.0000
  C   C3        1.0  0.19552  0.33713  0.34843  1.0000
  C   C4        1.0  0.20980  0.36591  0.34987  1.0000
  H   H3        1.0  0.20663  0.32742  0.35289  1.0000
  H   H4        1.0  0.23057  0.37577  0.35661  1.0000
  C   C5        1.0  0.58148  0.80666  0.29762  1.0000
  C   C6        1.0  0.55275  0.79213  0.30036  1.0000
  H   H5        1.0  0.59089  0.82431  0.26096  1.0000
  H   H6        1.0  0.54261  0.80003  0.26589  1.0000
  C   C7        1.0  0.67045  0.85528  0.34292  1.0000
  C   C8        1.0  0.64168  0.84076  0.34476  1.0000
  H   H7        1.0  0.68015  0.87610  0.34727  1.0000
  H   H8        1.0  0.63181  0.85165  0.35171  1.0000
  C   C9        1.0  0.20095  0.77162  0.29959  1.0000
  C   C10       1.0  0.21551  0.75745  0.30208  1.0000
  H   H9        1.0  0.18325  0.76335  0.26313  1.0000
  H   H10       1.0  0.20760  0.73941  0.26764  1.0000
  C   C11       1.0  0.15226  0.81187  0.34558  1.0000
  C   C12       1.0  0.16682  0.79765  0.34722  1.0000
  H   H11       1.0  0.13144  0.80073  0.35006  1.0000
  H   H12       1.0  0.15595  0.77689  0.35407  1.0000
  C   C13       1.0  0.77621  0.57655  0.29940  1.0000
  C   C14       1.0  0.76199  0.54782  0.30247  1.0000
  H   H13       1.0  0.76799  0.58592  0.26240  1.0000
  H   H14       1.0  0.74399  0.53765  0.26785  1.0000
  C   C15       1.0  0.81645  0.66555  0.34415  1.0000
  C   C16       1.0  0.80222  0.63678  0.34608  1.0000
  H   H15       1.0  0.80531  0.67524  0.34819  1.0000
  H   H16       1.0  0.78145  0.62690  0.35276  1.0000
  C   C17       1.0  0.43053  0.19599  0.29771  1.0000
  C   C18       1.0  0.45927  0.21046  0.29962  1.0000
  H   H17       1.0  0.42099  0.17838  0.26084  1.0000
  H   H18       1.0  0.46928  0.20258  0.26429  1.0000
  C   C19       1.0  0.34167  0.14746  0.34525  1.0000
  C   C20       1.0  0.37045  0.16194  0.34640  1.0000
  H   H19       1.0  0.33195  0.12663  0.34929  1.0000
  H   H20       1.0  0.38030  0.15100  0.35255  1.0000
  C   C21       1.0  0.77742  0.19760  0.29458  1.0000
  C   C22       1.0  0.76315  0.21209  0.29738  1.0000
  H   H21       1.0  0.77035  0.18115  0.25242  1.0000
  H   H22       1.0  0.74627  0.20552  0.25744  1.0000
  C   C23       1.0  0.81710  0.14808  0.33702  1.0000
  C   C24       1.0  0.80257  0.16234  0.33898  1.0000
  H   H23       1.0  0.80611  0.12723  0.33452  1.0000
  H   H24       1.0  0.78171  0.15120  0.33934  1.0000
  C   C25       1.0  0.23970  0.16045  0.33151  1.0000
  C   C26       1.0  0.21372  0.14986  0.28945  1.0000
  C   C27       1.0  0.20001  0.16513  0.29069  1.0000
  C   C28       1.0  0.21100  0.19089  0.33335  1.0000
  C   C29       1.0  0.19647  0.20583  0.33483  1.0000
  C   C30       1.0  0.16770  0.19236  0.34409  1.0000
  C   C31       1.0  0.15340  0.20682  0.34469  1.0000
  C   C32       1.0  0.16708  0.23562  0.33666  1.0000
  H   H25       1.0  0.15670  0.17165  0.35230  1.0000
  H   H26       1.0  0.13265  0.19587  0.35210  1.0000
  H   H27       1.0  0.18173  0.15725  0.25782  1.0000
  N   N1        1.0  0.20189  0.12451  0.24372  1.0000
  O   O1        1.0  0.19867  0.12702  0.16115  1.0000
  O   O2        1.0  0.17930  0.10752  0.27740  1.0000
  C   C33       1.0  0.84686  0.07607  0.32762  1.0000
  C   C34       1.0  0.85722  0.06086  0.28295  1.0000
  C   C35       1.0  0.84201  0.03189  0.28341  1.0000
  C   C36       1.0  0.81654  0.01697  0.32775  1.0000
  C   C37       1.0  0.80165  0.98752  0.32856  1.0000
  C   C38       1.0  0.81521  0.97225  0.33563  1.0000
  C   C39       1.0  0.80078  0.94349  0.33605  1.0000
  C   C40       1.0  0.77193  0.92836  0.32992  1.0000
  H   H28       1.0  0.83597  0.98199  0.34246  1.0000
  H   H29       1.0  0.81178  0.93371  0.34194  1.0000
  H   H30       1.0  0.84969  0.02159  0.24874  1.0000
  N   N2        1.0  0.88225  0.07462  0.23539  1.0000
  O   O3        1.0  0.87916  0.06913  0.15265  1.0000
  O   O4        1.0  0.89951  0.06898  0.26637  1.0000
  C   C41       1.0  0.93132  0.76755  0.32823  1.0000
  C   C42       1.0  0.94669  0.79348  0.28584  1.0000
  C   C43       1.0  0.97566  0.80719  0.28699  1.0000
  C   C44       1.0  0.99045  0.79624  0.32986  1.0000
  C   C45       1.0  0.01991  0.81078  0.33133  1.0000
  C   C46       1.0  0.03518  0.83955  0.34055  1.0000
  C   C47       1.0  0.06395  0.85387  0.34117  1.0000
  C   C48       1.0  0.07907  0.84019  0.33326  1.0000
  H   H31       1.0  0.02546  0.85054  0.34861  1.0000
  H   H32       1.0  0.07373  0.87461  0.34852  1.0000
  H   H33       1.0  0.98606  0.82544  0.25390  1.0000
  N   N3        1.0  0.93314  0.80525  0.23990  1.0000
  O   O5        1.0  0.93884  0.80837  0.15731  1.0000
  O   O6        1.0  0.93876  0.82788  0.27328  1.0000
  C   C49       1.0  0.77240  0.84236  0.32633  1.0000
  C   C50       1.0  0.79834  0.85290  0.28397  1.0000
  C   C51       1.0  0.81201  0.83762  0.28507  1.0000
  C   C52       1.0  0.80104  0.81187  0.32785  1.0000
  C   C53       1.0  0.81554  0.79691  0.32928  1.0000
  C   C54       1.0  0.84430  0.81037  0.33855  1.0000
  C   C55       1.0  0.85859  0.79589  0.33928  1.0000
  C   C56       1.0  0.84488  0.76709  0.33137  1.0000
  H   H34       1.0  0.85532  0.83109  0.34664  1.0000
  H   H35       1.0  0.87933  0.80683  0.34668  1.0000
  H   H36       1.0  0.83027  0.84546  0.25200  1.0000
  N   N4        1.0  0.81014  0.87825  0.23814  1.0000
  O   O7        1.0  0.81327  0.87570  0.15554  1.0000
  O   O8        1.0  0.83277  0.89523  0.27159  1.0000
  C   C57       1.0  0.16502  0.92669  0.32989  1.0000
  C   C58       1.0  0.15443  0.94206  0.28765  1.0000
  C   C59       1.0  0.16968  0.97103  0.28877  1.0000
  C   C60       1.0  0.19544  0.98582  0.33146  1.0000
  C   C61       1.0  0.21038  0.01529  0.33284  1.0000
  C   C62       1.0  0.19690  0.03058  0.34212  1.0000
  C   C63       1.0  0.21136  0.05934  0.34273  1.0000
  C   C64       1.0  0.24016  0.07445  0.33464  1.0000
  H   H37       1.0  0.17619  0.02086  0.35037  1.0000
  H   H38       1.0  0.20042  0.06914  0.35017  1.0000
  H   H39       1.0  0.16181  0.98142  0.25578  1.0000
  N   N5        1.0  0.12908  0.92850  0.24186  1.0000
  O   O9        1.0  0.13161  0.93419  0.15927  1.0000
  O   O10       1.0  0.11208  0.93411  0.27539  1.0000
  C   C65       1.0  0.08061  0.23515  0.33249  1.0000
  C   C66       1.0  0.06528  0.20927  0.28977  1.0000
  C   C67       1.0  0.03631  0.19557  0.29047  1.0000
  C   C68       1.0  0.02146  0.20646  0.33319  1.0000
  C   C69       1.0  0.99198  0.19193  0.33406  1.0000
  C   C70       1.0  0.97666  0.16314  0.34233  1.0000
  C   C71       1.0  0.94790  0.14882  0.34216  1.0000
  C   C72       1.0  0.93279  0.16251  0.33431  1.0000
  H   H40       1.0  0.98636  0.15211  0.35032  1.0000
  H   H41       1.0  0.93809  0.12805  0.34884  1.0000
  H   H42       1.0  0.02596  0.17737  0.25707  1.0000
  N   N6        1.0  0.07889  0.19754  0.24392  1.0000
  O   O11       1.0  0.07331  0.19452  0.16124  1.0000
  O   O12       1.0  0.07322  0.17488  0.27709  1.0000
  C   C73       1.0  0.24037  0.68108  0.34054  1.0000
  C   C74       1.0  0.24440  0.66849  0.26386  1.0000
  C   C75       1.0  0.23960  0.64144  0.27033  1.0000
  C   C76       1.0  0.23189  0.62685  0.35265  1.0000
  C   C77       1.0  0.23354  0.60254  0.36297  1.0000
  C   C78       1.0  0.22249  0.58118  0.29858  1.0000
  C   C79       1.0  0.22815  0.55956  0.30205  1.0000
  C   C80       1.0  0.24567  0.55907  0.36892  1.0000
  H   H43       1.0  0.21107  0.58180  0.24610  1.0000
  H   H44       1.0  0.22136  0.54557  0.25079  1.0000
  H   H45       1.0  0.24433  0.63342  0.21604  1.0000
  N   N7        1.0  0.25463  0.68381  0.18343  1.0000
  O   O13       1.0  0.27753  0.68691  0.16262  1.0000
  O   O14       1.0  0.23850  0.67265  0.11868  1.0000
  C   C81       1.0  0.32671  0.55603  0.34117  1.0000
  C   C82       1.0  0.33917  0.57251  0.26414  1.0000
  C   C83       1.0  0.36622  0.59479  0.27021  1.0000
  C   C84       1.0  0.38089  0.60180  0.35238  1.0000
  C   C85       1.0  0.40519  0.62779  0.36225  1.0000
  C   C86       1.0  0.42649  0.63803  0.29758  1.0000
  C   C87       1.0  0.44804  0.66534  0.30047  1.0000
  C   C88       1.0  0.44859  0.68341  0.36722  1.0000
  H   H46       1.0  0.42582  0.62592  0.24526  1.0000
  H   H47       1.0  0.46204  0.67248  0.24922  1.0000
  H   H48       1.0  0.37417  0.60747  0.21573  1.0000
  N   N8        1.0  0.32375  0.56728  0.18389  1.0000
  O   O15       1.0  0.32060  0.58705  0.16287  1.0000
  O   O16       1.0  0.33486  0.56226  0.11913  1.0000
  C   C89       1.0  0.45161  0.76748  0.33960  1.0000
  C   C90       1.0  0.43498  0.76336  0.26288  1.0000
  C   C91       1.0  0.41275  0.76818  0.26925  1.0000
  C   C92       1.0  0.40596  0.77608  0.35137  1.0000
  C   C93       1.0  0.37999  0.77442  0.36163  1.0000
  C   C94       1.0  0.36964  0.78536  0.29695  1.0000
  C   C95       1.0  0.34233  0.77961  0.30026  1.0000
  C   C96       1.0  0.32438  0.76221  0.36746  1.0000
  H   H49       1.0  0.38163  0.79666  0.24422  1.0000
  H   H50       1.0  0.33510  0.78632  0.24882  1.0000
  H   H51       1.0  0.39998  0.76339  0.21497  1.0000
  N   N9        1.0  0.44002  0.75302  0.18260  1.0000
  O   O17       1.0  0.42019  0.73010  0.16209  1.0000
  O   O18       1.0  0.44496  0.76906  0.11762  1.0000
  C   C97       1.0  0.77072  0.32129  0.34681  1.0000
  C   C98       1.0  0.76771  0.33439  0.26966  1.0000
  C   C99       1.0  0.77268  0.36147  0.27687  1.0000
  C   C100      1.0  0.77965  0.37562  0.36006  1.0000
  C   C101      1.0  0.77819  0.40003  0.37016  1.0000
  C   C102      1.0  0.78992  0.42161  0.30662  1.0000
  C   C103      1.0  0.78431  0.44328  0.30901  1.0000
  C   C104      1.0  0.76627  0.44364  0.37404  1.0000
  H   H52       1.0  0.80167  0.42104  0.25514  1.0000
  H   H53       1.0  0.79154  0.45738  0.25808  1.0000
  H   H54       1.0  0.76868  0.36990  0.22205  1.0000
  N   N10       1.0  0.75844  0.31962  0.18783  1.0000
  O   O19       1.0  0.73591  0.31686  0.16379  1.0000
  O   O20       1.0  0.77543  0.33110  0.12544  1.0000
  C   C105      1.0  0.68540  0.44674  0.34163  1.0000
  C   C106      1.0  0.67307  0.43038  0.26427  1.0000
  C   C107      1.0  0.64606  0.40802  0.26986  1.0000
  C   C108      1.0  0.63130  0.40078  0.35188  1.0000
  C   C109      1.0  0.60705  0.37474  0.36119  1.0000
  C   C110      1.0  0.58576  0.36462  0.29655  1.0000
  C   C111      1.0  0.56416  0.33733  0.29909  1.0000
  C   C112      1.0  0.56361  0.31912  0.36528  1.0000
  H   H55       1.0  0.58642  0.37684  0.24458  1.0000
  H   H56       1.0  0.55022  0.33028  0.24769  1.0000
  H   H57       1.0  0.63820  0.39543  0.21511  1.0000
  N   N11       1.0  0.68861  0.43580  0.18420  1.0000
  O   O21       1.0  0.69189  0.41613  0.16294  1.0000
  O   O22       1.0  0.67753  0.44086  0.11942  1.0000
  C   C113      1.0  0.56066  0.23522  0.33123  1.0000
  C   C114      1.0  0.57779  0.24044  0.25509  1.0000
  C   C115      1.0  0.59989  0.23538  0.26023  1.0000
  C   C116      1.0  0.60607  0.22613  0.34068  1.0000
  C   C117      1.0  0.63184  0.22728  0.35071  1.0000
  C   C118      1.0  0.64292  0.21810  0.28254  1.0000
  C   C119      1.0  0.67017  0.22367  0.28662  1.0000
  C   C120      1.0  0.68730  0.23897  0.35871  1.0000
  H   H58       1.0  0.63154  0.20830  0.22684  1.0000
  H   H59       1.0  0.67799  0.21840  0.23304  1.0000
  H   H60       1.0  0.61301  0.24098  0.20669  1.0000
  N   N12       1.0  0.57327  0.25196  0.17672  1.0000
  O   O23       1.0  0.59328  0.27509  0.15952  1.0000
  O   O24       1.0  0.56860  0.23681  0.10933  1.0000
  C   C121      1.0  0.15244  0.25028  0.33719  1.0000
  N   N13       1.0  0.16547  0.27806  0.33938  1.0000
  C   C122      1.0  0.15213  0.29254  0.33998  1.0000
  N   N14       1.0  0.12431  0.27780  0.33793  1.0000
  C   C123      1.0  0.10990  0.25000  0.33503  1.0000
  N   N15       1.0  0.12466  0.23701  0.33510  1.0000
  C   C124      1.0  0.75729  0.89907  0.33052  1.0000
  N   N16       1.0  0.72950  0.88432  0.33302  1.0000
  C   C125      1.0  0.71503  0.85650  0.33381  1.0000
  N   N17       1.0  0.72978  0.84343  0.33173  1.0000
  C   C126      1.0  0.75756  0.85681  0.32858  1.0000
  N   N18       1.0  0.77056  0.88457  0.32842  1.0000
  C   C127      1.0  0.10836  0.85484  0.33388  1.0000
  N   N19       1.0  0.12314  0.84182  0.33608  1.0000
  C   C128      1.0  0.15096  0.85520  0.33681  1.0000
  N   N20       1.0  0.16400  0.88301  0.33493  1.0000
  C   C129      1.0  0.15060  0.89740  0.33206  1.0000
  N   N21       1.0  0.12284  0.88261  0.33198  1.0000
  C   C130      1.0  0.85949  0.75241  0.33212  1.0000
  N   N22       1.0  0.84645  0.72463  0.33451  1.0000
  C   C131      1.0  0.85981  0.71016  0.33542  1.0000
  N   N23       1.0  0.88762  0.72490  0.33350  1.0000
  C   C132      1.0  0.90203  0.75269  0.33042  1.0000
  N   N24       1.0  0.88726  0.76568  0.33019  1.0000
  C   C133      1.0  0.25482  0.10375  0.33523  1.0000
  N   N25       1.0  0.28261  0.11849  0.33714  1.0000
  C   C134      1.0  0.29710  0.14631  0.33783  1.0000
  N   N26       1.0  0.28236  0.15939  0.33616  1.0000
  C   C135      1.0  0.25456  0.14601  0.33355  1.0000
  N   N27       1.0  0.24156  0.11826  0.33352  1.0000
  C   C136      1.0  0.90349  0.14786  0.33405  1.0000
  N   N28       1.0  0.88869  0.16085  0.33641  1.0000
  C   C137      1.0  0.86086  0.14746  0.33652  1.0000
  N   N29       1.0  0.84783  0.11967  0.33385  1.0000
  C   C138      1.0  0.86127  0.10533  0.33066  1.0000
  N   N30       1.0  0.88903  0.12009  0.33123  1.0000
  C   C139      1.0  0.29797  0.54028  0.34671  1.0000
  N   N31       1.0  0.28308  0.51255  0.34531  1.0000
  C   C140      1.0  0.25519  0.49892  0.35071  1.0000
  N   N32       1.0  0.24269  0.51424  0.35739  1.0000
  C   C141      1.0  0.25716  0.54198  0.36063  1.0000
  N   N33       1.0  0.28466  0.55442  0.35503  1.0000
  C   C142      1.0  0.46736  0.75449  0.34471  1.0000
  N   N34       1.0  0.49509  0.76733  0.34280  1.0000
  C   C143      1.0  0.50872  0.75306  0.34790  1.0000
  N   N35       1.0  0.49342  0.72525  0.35483  1.0000
  C   C144      1.0  0.46568  0.71199  0.35862  1.0000
  N   N36       1.0  0.45323  0.72705  0.35329  1.0000
  C   C145      1.0  0.25332  0.70982  0.34566  1.0000
  N   N37       1.0  0.24044  0.72466  0.34400  1.0000
  C   C146      1.0  0.25467  0.75256  0.34904  1.0000
  N   N38       1.0  0.28249  0.76511  0.35565  1.0000
  C   C147      1.0  0.29579  0.75068  0.35916  1.0000
  N   N39       1.0  0.28077  0.72317  0.35391  1.0000
  C   C148      1.0  0.71413  0.46250  0.34767  1.0000
  N   N40       1.0  0.72906  0.49021  0.34504  1.0000
  C   C149      1.0  0.75694  0.50382  0.35103  1.0000
  N   N41       1.0  0.76938  0.48849  0.35954  1.0000
  C   C150      1.0  0.75486  0.46076  0.36407  1.0000
  N   N42       1.0  0.72737  0.44836  0.35778  1.0000
  C   C151      1.0  0.54489  0.24815  0.33898  1.0000
  N   N43       1.0  0.51715  0.23528  0.33869  1.0000
  C   C152      1.0  0.50350  0.24948  0.34608  1.0000
  N   N44       1.0  0.51880  0.27727  0.35370  1.0000
  C   C153      1.0  0.54655  0.29057  0.35597  1.0000
  N   N45       1.0  0.55901  0.27557  0.34835  1.0000
  C   C154      1.0  0.75810  0.29255  0.34921  1.0000
  N   N46       1.0  0.77155  0.27829  0.34926  1.0000
  C   C155      1.0  0.75777  0.25039  0.34993  1.0000
  N   N47       1.0  0.72984  0.23701  0.35081  1.0000
  C   C156      1.0  0.71600  0.25097  0.35292  1.0000
  N   N48       1.0  0.73054  0.27857  0.35189  1.0000
  C   C157      1.0  0.23981  0.46961  0.35032  1.0000
  C   C158      1.0  0.21438  0.45424  0.39580  1.0000
  C   C159      1.0  0.20039  0.42527  0.39327  1.0000
  C   C160      1.0  0.21063  0.41047  0.34643  1.0000
  C   C161      1.0  0.19605  0.38102  0.34472  1.0000
  C   C162      1.0  0.16722  0.36573  0.33806  1.0000
  C   C163      1.0  0.15292  0.33696  0.33677  1.0000
  C   C164      1.0  0.16668  0.32185  0.34186  1.0000
  H   H61       1.0  0.15617  0.37548  0.33227  1.0000
  H   H62       1.0  0.13212  0.32714  0.33125  1.0000
  H   H63       1.0  0.18256  0.41485  0.42866  1.0000
  N   N49       1.0  0.20349  0.46780  0.44651  1.0000
  O   O25       1.0  0.20144  0.46174  0.52875  1.0000
  O   O26       1.0  0.18051  0.46255  0.41745  1.0000
  C   C165      1.0  0.53803  0.76700  0.34693  1.0000
  C   C166      1.0  0.55348  0.75701  0.39219  1.0000
  C   C167      1.0  0.58244  0.77201  0.38915  1.0000
  C   C168      1.0  0.59715  0.79700  0.34202  1.0000
  C   C169      1.0  0.62658  0.81189  0.33981  1.0000
  C   C170      1.0  0.64187  0.79836  0.33286  1.0000
  C   C171      1.0  0.67064  0.81286  0.33112  1.0000
  C   C172      1.0  0.68573  0.84173  0.33607  1.0000
  H   H64       1.0  0.63213  0.77757  0.32718  1.0000
  H   H65       1.0  0.68047  0.80189  0.32544  1.0000
  H   H66       1.0  0.59293  0.76464  0.42440  1.0000
  N   N50       1.0  0.54002  0.73261  0.44318  1.0000
  O   O27       1.0  0.54621  0.73670  0.52530  1.0000
  O   O28       1.0  0.54524  0.71487  0.41408  1.0000
  C   C173      1.0  0.24069  0.76789  0.34835  1.0000
  C   C174      1.0  0.25070  0.79335  0.39358  1.0000
  C   C175      1.0  0.23566  0.80728  0.39081  1.0000
  C   C176      1.0  0.21061  0.79695  0.34397  1.0000
  C   C177      1.0  0.19568  0.81146  0.34203  1.0000
  C   C178      1.0  0.20917  0.84028  0.33518  1.0000
  C   C179      1.0  0.19463  0.85452  0.33367  1.0000
  C   C180      1.0  0.16577  0.84070  0.33880  1.0000
  H   H67       1.0  0.22996  0.85136  0.32928  1.0000
  H   H68       1.0  0.20558  0.87531  0.32800  1.0000
  H   H69       1.0  0.24304  0.82514  0.42603  1.0000
  N   N51       1.0  0.27516  0.80433  0.44427  1.0000
  O   O29       1.0  0.27115  0.80645  0.52645  1.0000
  O   O30       1.0  0.29284  0.82730  0.41500  1.0000
  C   C181      1.0  0.77235  0.53314  0.34955  1.0000
  C   C182      1.0  0.79778  0.54864  0.39493  1.0000
  C   C183      1.0  0.81175  0.57761  0.39155  1.0000
  C   C184      1.0  0.80149  0.59226  0.34397  1.0000
  C   C185      1.0  0.81601  0.62170  0.34157  1.0000
  C   C186      1.0  0.84484  0.63701  0.33497  1.0000
  C   C187      1.0  0.85909  0.66578  0.33313  1.0000
  C   C188      1.0  0.84529  0.68086  0.33766  1.0000
  H   H70       1.0  0.85592  0.62728  0.32957  1.0000
  H   H71       1.0  0.87990  0.67562  0.32771  1.0000
  H   H72       1.0  0.82957  0.58813  0.42692  1.0000
  N   N52       1.0  0.80870  0.53525  0.44638  1.0000
  O   O31       1.0  0.81076  0.54153  0.52841  1.0000
  O   O32       1.0  0.83168  0.54044  0.41753  1.0000
  C   C189      1.0  0.47417  0.23554  0.34635  1.0000
  C   C190      1.0  0.45888  0.24553  0.39270  1.0000
  C   C191      1.0  0.42990  0.23058  0.39050  1.0000
  C   C192      1.0  0.41502  0.20564  0.34316  1.0000
  C   C193      1.0  0.38558  0.19081  0.34175  1.0000
  C   C194      1.0  0.37031  0.20439  0.33590  1.0000
  C   C195      1.0  0.34153  0.18993  0.33487  1.0000
  C   C196      1.0  0.32641  0.16105  0.33944  1.0000
  H   H73       1.0  0.38007  0.22519  0.33053  1.0000
  H   H74       1.0  0.33172  0.20093  0.32994  1.0000
  H   H75       1.0  0.41953  0.23794  0.42646  1.0000
  N   N53       1.0  0.47250  0.26987  0.44388  1.0000
  O   O33       1.0  0.46653  0.26571  0.52615  1.0000
  O   O34       1.0  0.46724  0.28767  0.41562  1.0000
  C   C197      1.0  0.77234  0.23579  0.35094  1.0000
  C   C198      1.0  0.79617  0.24422  0.40411  1.0000
  C   C199      1.0  0.81012  0.22923  0.40106  1.0000
  C   C200      1.0  0.80136  0.20584  0.34606  1.0000
  C   C201      1.0  0.81615  0.19120  0.34316  1.0000
  C   C202      1.0  0.84505  0.20503  0.34474  1.0000
  C   C203      1.0  0.85959  0.19080  0.34258  1.0000
  C   C204      1.0  0.84601  0.16193  0.33880  1.0000
  H   H76       1.0  0.85602  0.22590  0.34587  1.0000
  H   H77       1.0  0.88044  0.20200  0.34359  1.0000
  H   H78       1.0  0.82680  0.23539  0.44170  1.0000
  N   N54       1.0  0.80518  0.26688  0.46276  1.0000
  O   O35       1.0  0.80440  0.26011  0.54386  1.0000
  O   O36       1.0  0.82902  0.28534  0.44413  1.0000
  C   C205      1.0  0.23690  0.20114  0.37432  1.0000
  C   C206      1.0  0.25093  0.18642  0.37294  1.0000
  H   H79       1.0  0.24570  0.21938  0.40780  1.0000
  H   H80       1.0  0.26936  0.19474  0.40512  1.0000
  C   C207      1.0  0.19586  0.24915  0.32798  1.0000
  C   C208      1.0  0.21014  0.23465  0.32688  1.0000
  H   H81       1.0  0.20687  0.26992  0.32119  1.0000
  H   H82       1.0  0.23084  0.24551  0.31822  1.0000
  C   C209      1.0  0.80651  0.03245  0.37126  1.0000
  C   C210      1.0  0.82117  0.06120  0.37069  1.0000
  H   H83       1.0  0.78851  0.02290  0.40605  1.0000
  H   H84       1.0  0.81307  0.07121  0.40479  1.0000
  C   C211      1.0  0.75833  0.94358  0.32319  1.0000
  C   C212      1.0  0.77280  0.97237  0.32239  1.0000
  H   H85       1.0  0.73753  0.93383  0.31787  1.0000
  H   H86       1.0  0.76188  0.98220  0.31532  1.0000
  C   C213      1.0  0.97482  0.77040  0.37114  1.0000
  C   C214      1.0  0.94607  0.75636  0.36984  1.0000
  H   H87       1.0  0.98427  0.76164  0.40480  1.0000
  H   H88       1.0  0.93597  0.73798  0.40232  1.0000
  C   C215      1.0  0.06385  0.81141  0.32465  1.0000
  C   C216      1.0  0.03506  0.79711  0.32351  1.0000
  H   H89       1.0  0.07360  0.80040  0.31791  1.0000
  H   H90       1.0  0.02522  0.77641  0.31486  1.0000
  C   C217      1.0  0.77519  0.80166  0.36911  1.0000
  C   C218      1.0  0.76119  0.81641  0.36789  1.0000
  H   H91       1.0  0.76641  0.78345  0.40271  1.0000
  H   H92       1.0  0.74279  0.80813  0.40031  1.0000
  C   C219      1.0  0.81610  0.75357  0.32264  1.0000
  C   C220      1.0  0.80184  0.76809  0.32146  1.0000
  H   H93       1.0  0.80507  0.73280  0.31594  1.0000
  H   H94       1.0  0.78114  0.75725  0.31276  1.0000
  C   C221      1.0  0.20569  0.97020  0.37262  1.0000
  C   C222      1.0  0.19098  0.94146  0.37138  1.0000
  H   H95       1.0  0.22392  0.97966  0.40615  1.0000
  H   H96       1.0  0.19929  0.93136  0.40370  1.0000
  C   C223      1.0  0.25369  0.05921  0.32588  1.0000
  C   C224      1.0  0.23919  0.03042  0.32480  1.0000
  H   H97       1.0  0.27446  0.06895  0.31907  1.0000
  H   H98       1.0  0.25004  0.02057  0.31613  1.0000
  C   C225      1.0  0.03704  0.23226  0.37482  1.0000
  C   C226      1.0  0.06579  0.24629  0.37397  1.0000
  H   H99       1.0  0.02755  0.24099  0.40841  1.0000
  H   H100      1.0  0.07586  0.26465  0.40667  1.0000
  C   C227      1.0  0.94805  0.19132  0.32670  1.0000
  C   C228      1.0  0.97684  0.20562  0.32639  1.0000
  H   H101      1.0  0.93831  0.20235  0.32012  1.0000
  H   H102      1.0  0.98670  0.22634  0.31840  1.0000
  C   C229      1.0  0.22711  0.63943  0.42742  1.0000
  C   C230      1.0  0.23122  0.66605  0.42156  1.0000
  H   H103      1.0  0.22221  0.62990  0.48881  1.0000
  H   H104      1.0  0.22995  0.67525  0.47936  1.0000
  C   C231      1.0  0.25612  0.57994  0.43474  1.0000
  C   C232      1.0  0.24994  0.60109  0.43240  1.0000
  H   H105      1.0  0.26964  0.58078  0.48233  1.0000
  H   H106      1.0  0.25946  0.61667  0.47795  1.0000
  C   C233      1.0  0.36843  0.58454  0.42747  1.0000
  C   C234      1.0  0.34178  0.56203  0.42210  1.0000
  H   H107      1.0  0.37803  0.58925  0.48872  1.0000
  H   H108      1.0  0.33266  0.55158  0.48000  1.0000
  C   C235      1.0  0.42781  0.67306  0.43331  1.0000
  C   C236      1.0  0.40670  0.64570  0.43151  1.0000
  H   H109      1.0  0.42705  0.68578  0.48093  1.0000
  H   H110      1.0  0.39117  0.63969  0.47721  1.0000
  C   C237      1.0  0.42337  0.78099  0.42609  1.0000
  C   C238      1.0  0.44583  0.77678  0.42041  1.0000
  H   H111      1.0  0.41880  0.78602  0.48735  1.0000
  H   H112      1.0  0.45639  0.77820  0.47812  1.0000
  C   C239      1.0  0.33485  0.75192  0.43362  1.0000
  C   C240      1.0  0.36219  0.75813  0.43129  1.0000
  H   H113      1.0  0.32221  0.73853  0.48160  1.0000
  H   H114      1.0  0.36832  0.74878  0.47725  1.0000
  C   C241      1.0  0.78348  0.36250  0.43530  1.0000
  C   C242      1.0  0.77916  0.33581  0.42888  1.0000
  H   H115      1.0  0.78784  0.37171  0.49721  1.0000
  H   H116      1.0  0.77981  0.32624  0.48664  1.0000
  C   C243      1.0  0.75528  0.42264  0.43937  1.0000
  C   C244      1.0  0.76136  0.40142  0.43810  1.0000
  H   H117      1.0  0.74144  0.42176  0.48574  1.0000
  H   H118      1.0  0.75140  0.38573  0.48298  1.0000
  C   C245      1.0  0.64366  0.41789  0.42735  1.0000
  C   C246      1.0  0.67024  0.44052  0.42244  1.0000
  H   H119      1.0  0.63402  0.41299  0.48854  1.0000
  H   H120      1.0  0.67929  0.45079  0.48067  1.0000
  C   C247      1.0  0.58443  0.32932  0.43127  1.0000
  C   C248      1.0  0.60556  0.35667  0.42986  1.0000
  H   H121      1.0  0.58523  0.31648  0.47831  1.0000
  H   H122      1.0  0.62109  0.36259  0.47554  1.0000
  C   C249      1.0  0.58808  0.22004  0.41455  1.0000
  C   C250      1.0  0.56577  0.22452  0.41009  1.0000
  H   H123      1.0  0.59208  0.21386  0.47464  1.0000
  H   H124      1.0  0.55479  0.22218  0.46759  1.0000
  C   C251      1.0  0.67611  0.24745  0.42821  1.0000
  C   C252      1.0  0.64884  0.24146  0.42479  1.0000
  H   H125      1.0  0.68822  0.25948  0.47971  1.0000
  H   H126      1.0  0.64231  0.24971  0.47349  1.0000
