data_image0
_chemical_formula_structural       C16H20C16H20C16H20NC2HNHNC2HNHNC2HNHNC2HNHNC2HNHNC2HNHC3NC3NC5NC5NC36H26C4H4C3NC3NC5NC5NC36H26C4H4C3NC3NC5NC5NC36H26C4H4CNC2OH3NHCNC2OH3NHCNC2OH3NHCNC2OH3NHCNC2OH3NHCNC2OH3NH
_chemical_formula_sum              "C246 H186 N36 O6"
_cell_length_a       66.1606
_cell_length_b       66.1606
_cell_length_c       15.0138
_cell_angle_alpha    89.9578
_cell_angle_beta     90.0422
_cell_angle_gamma    120

_space_group_name_H-M_alt    "P 1"
_space_group_IT_number       1

loop_
  _space_group_symop_operation_xyz
  'x, y, z'

loop_
  _atom_site_type_symbol
  _atom_site_label
  _atom_site_symmetry_multiplicity
  _atom_site_fract_x
  _atom_site_fract_y
  _atom_site_fract_z
  _atom_site_occupancy
  C   C1        1.0  0.10065  0.53732  0.24717  1.0000
  C   C2        1.0  0.11883  0.53215  0.24574  1.0000
  C   C3        1.0  0.18730  0.53671  0.26444  1.0000
  C   C4        1.0  0.16745  0.53927  0.26308  1.0000
  C   C5        1.0  0.09872  0.65706  0.26299  1.0000
  C   C6        1.0  0.11411  0.68128  0.26825  1.0000
  C   C7        1.0  0.13336  0.73323  0.29374  1.0000
  C   C8        1.0  0.14884  0.75744  0.29865  1.0000
  C   C9        1.0  0.94039  0.58856  0.24632  1.0000
  C   C10       1.0  0.95841  0.58315  0.24752  1.0000
  C   C11       1.0  0.89211  0.58228  0.26470  1.0000
  C   C12       1.0  0.87257  0.58535  0.26610  1.0000
  C   C13       1.0  0.96019  0.46357  0.26258  1.0000
  C   C14       1.0  0.94460  0.43939  0.26772  1.0000
  C   C15       1.0  0.90860  0.36315  0.29699  1.0000
  C   C16       1.0  0.92450  0.38728  0.29236  1.0000
  H   H1        1.0  0.90938  0.35245  0.24963  1.0000
  H   H2        1.0  0.93668  0.39333  0.24254  1.0000
  H   H3        1.0  0.93661  0.43065  0.21045  1.0000
  H   H4        1.0  0.96349  0.47171  0.20195  1.0000
  H   H5        1.0  0.96551  0.58198  0.18851  1.0000
  H   H6        1.0  0.93497  0.59136  0.18606  1.0000
  H   H7        1.0  0.09534  0.64900  0.20222  1.0000
  H   H8        1.0  0.12189  0.69013  0.21093  1.0000
  H   H9        1.0  0.14767  0.76805  0.25180  1.0000
  H   H10       1.0  0.12107  0.72701  0.24424  1.0000
  H   H11       1.0  0.16716  0.55101  0.21937  1.0000
  H   H12       1.0  0.20063  0.54641  0.22111  1.0000
  H   H13       1.0  0.12421  0.52935  0.18541  1.0000
  H   H14       1.0  0.09340  0.53835  0.18826  1.0000
  H   H15       1.0  0.89207  0.57035  0.22123  1.0000
  H   H16       1.0  0.85910  0.57577  0.22314  1.0000
  H   H17       1.0  0.17845  0.80204  0.32404  1.0000
  H   H18       1.0  0.22388  0.53209  0.28472  1.0000
  H   H19       1.0  0.83660  0.59100  0.28628  1.0000
  H   H20       1.0  0.87819  0.31872  0.32171  1.0000
  C   C17       1.0  0.55463  0.65835  0.24769  1.0000
  C   C18       1.0  0.55980  0.68171  0.24624  1.0000
  C   C19       1.0  0.55524  0.74561  0.26484  1.0000
  C   C20       1.0  0.55266  0.72319  0.26358  1.0000
  C   C21       1.0  0.43487  0.53665  0.26361  1.0000
  C   C22       1.0  0.41065  0.52783  0.26888  1.0000
  C   C23       1.0  0.35870  0.49513  0.29446  1.0000
  C   C24       1.0  0.33448  0.48641  0.29938  1.0000
  C   C25       1.0  0.50335  0.44685  0.24682  1.0000
  C   C26       1.0  0.50876  0.47028  0.24804  1.0000
  C   C27       1.0  0.50960  0.40482  0.26511  1.0000
  C   C28       1.0  0.50655  0.38222  0.26656  1.0000
  C   C29       1.0  0.62837  0.59168  0.26313  1.0000
  C   C30       1.0  0.65255  0.60026  0.26828  1.0000
  C   C31       1.0  0.72879  0.64046  0.29771  1.0000
  C   C32       1.0  0.70466  0.63223  0.29307  1.0000
  H   H21       1.0  0.73949  0.65198  0.25043  1.0000
  H   H22       1.0  0.69861  0.63841  0.24332  1.0000
  H   H23       1.0  0.66130  0.60106  0.21101  1.0000
  H   H24       1.0  0.62024  0.58690  0.20248  1.0000
  H   H25       1.0  0.50993  0.47857  0.18905  1.0000
  H   H26       1.0  0.50054  0.43865  0.18655  1.0000
  H   H27       1.0  0.44292  0.54134  0.20283  1.0000
  H   H28       1.0  0.40179  0.52676  0.21155  1.0000
  H   H29       1.0  0.32387  0.47464  0.25256  1.0000
  H   H30       1.0  0.36491  0.48906  0.24501  1.0000
  H   H31       1.0  0.54095  0.71120  0.21977  1.0000
  H   H32       1.0  0.54554  0.74925  0.22152  1.0000
  H   H33       1.0  0.56261  0.68990  0.18592  1.0000
  H   H34       1.0  0.55361  0.65010  0.18879  1.0000
  H   H35       1.0  0.52155  0.41673  0.22170  1.0000
  H   H36       1.0  0.51613  0.37835  0.22363  1.0000
  H   H37       1.0  0.28989  0.47143  0.32477  1.0000
  H   H38       1.0  0.55986  0.78681  0.28515  1.0000
  H   H39       1.0  0.50091  0.34061  0.28680  1.0000
  H   H40       1.0  0.77321  0.65446  0.32246  1.0000
  C   C33       1.0  0.43360  0.99130  0.24819  1.0000
  C   C34       1.0  0.41024  0.97312  0.24667  1.0000
  C   C35       1.0  0.34635  0.90465  0.26513  1.0000
  C   C36       1.0  0.36876  0.92449  0.26390  1.0000
  C   C37       1.0  0.55525  0.99322  0.26429  1.0000
  C   C38       1.0  0.56408  0.97782  0.26953  1.0000
  C   C39       1.0  0.59678  0.95857  0.29504  1.0000
  C   C40       1.0  0.60552  0.94308  0.29993  1.0000
  C   C41       1.0  0.64506  0.15152  0.24725  1.0000
  C   C42       1.0  0.62162  0.13350  0.24856  1.0000
  C   C43       1.0  0.68707  0.19979  0.26546  1.0000
  C   C44       1.0  0.70968  0.21934  0.26680  1.0000
  C   C45       1.0  0.50027  0.13173  0.26370  1.0000
  C   C46       1.0  0.49169  0.14732  0.26885  1.0000
  C   C47       1.0  0.45148  0.18334  0.29828  1.0000
  C   C48       1.0  0.45970  0.16743  0.29364  1.0000
  H   H41       1.0  0.43996  0.18254  0.25100  1.0000
  H   H42       1.0  0.45353  0.15524  0.24388  1.0000
  H   H43       1.0  0.49089  0.15529  0.21159  1.0000
  H   H44       1.0  0.50506  0.12840  0.20305  1.0000
  H   H45       1.0  0.61331  0.12640  0.18959  1.0000
  H   H46       1.0  0.65324  0.15693  0.18695  1.0000
  H   H47       1.0  0.55056  0.99660  0.20352  1.0000
  H   H48       1.0  0.56514  0.97005  0.21220  1.0000
  H   H49       1.0  0.61728  0.94426  0.25309  1.0000
  H   H50       1.0  0.60285  0.97086  0.24559  1.0000
  H   H51       1.0  0.38077  0.92478  0.22023  1.0000
  H   H52       1.0  0.34272  0.89132  0.22182  1.0000
  H   H53       1.0  0.40207  0.96775  0.18632  1.0000
  H   H54       1.0  0.44187  0.99855  0.18931  1.0000
  H   H55       1.0  0.67515  0.19985  0.22214  1.0000
  H   H56       1.0  0.71353  0.23282  0.22391  1.0000
  H   H57       1.0  0.62050  0.91346  0.32526  1.0000
  H   H58       1.0  0.30514  0.86807  0.28523  1.0000
  H   H59       1.0  0.75130  0.25531  0.28685  1.0000
  H   H60       1.0  0.43747  0.21375  0.32304  1.0000
  N   N1        1.0  0.26129  0.49622  0.26663  1.0000
  C   C49       1.0  0.23979  0.49350  0.25376  1.0000
  C   C50       1.0  0.22770  0.49549  0.32749  1.0000
  H   H61       1.0  0.23333  0.49156  0.19061  1.0000
  N   N2        1.0  0.20673  0.49626  0.32038  1.0000
  H   H62       1.0  0.19924  0.49034  0.25889  1.0000
  N   N3        1.0  0.59572  0.86009  0.26714  1.0000
  C   C51       1.0  0.59844  0.84131  0.25427  1.0000
  C   C52       1.0  0.59645  0.82721  0.32799  1.0000
  H   H63       1.0  0.60038  0.83682  0.19112  1.0000
  N   N4        1.0  0.59568  0.80547  0.32088  1.0000
  H   H64       1.0  0.60161  0.80393  0.25941  1.0000
  N   N5        1.0  0.23187  0.83070  0.26640  1.0000
  C   C53       1.0  0.25065  0.85221  0.25375  1.0000
  C   C54       1.0  0.26472  0.86425  0.32761  1.0000
  H   H65       1.0  0.25518  0.85870  0.19065  1.0000
  N   N6        1.0  0.28646  0.88522  0.32073  1.0000
  H   H66       1.0  0.28805  0.89273  0.25927  1.0000
  N   N7        1.0  0.80078  0.62854  0.26599  1.0000
  C   C55       1.0  0.82204  0.63066  0.25348  1.0000
  C   C56       1.0  0.83383  0.62826  0.32743  1.0000
  H   H67       1.0  0.82851  0.63246  0.19043  1.0000
  N   N8        1.0  0.85450  0.62692  0.32071  1.0000
  H   H68       1.0  0.86202  0.63261  0.25914  1.0000
  N   N9        1.0  0.46339  0.26725  0.26656  1.0000
  C   C57       1.0  0.46126  0.28639  0.25404  1.0000
  C   C58       1.0  0.46366  0.30056  0.32798  1.0000
  H   H69       1.0  0.45945  0.29107  0.19099  1.0000
  N   N10       1.0  0.46499  0.32257  0.32125  1.0000
  H   H70       1.0  0.45930  0.32442  0.25968  1.0000
  N   N11       1.0  0.82465  0.29110  0.26578  1.0000
  C   C59       1.0  0.80550  0.26984  0.25347  1.0000
  C   C60       1.0  0.79137  0.25809  0.32755  1.0000
  H   H71       1.0  0.80078  0.26333  0.19048  1.0000
  N   N12       1.0  0.76935  0.23741  0.32105  1.0000
  H   H72       1.0  0.76746  0.22987  0.25950  1.0000
  C   C61       1.0  0.02039  0.49181  0.32801  1.0000
  C   C62       1.0  0.04444  0.50466  0.32643  1.0000
  C   C63       1.0  0.05116  0.52831  0.32906  1.0000
  N   N13       1.0  0.03100  0.52893  0.33163  1.0000
  C   C64       1.0  0.01186  0.50733  0.33170  1.0000
  C   C65       1.0  0.98784  0.50068  0.33507  1.0000
  C   C66       1.0  0.97914  0.51640  0.33512  1.0000
  N   N14       1.0  0.99157  0.53995  0.33193  1.0000
  C   C67       1.0  0.97763  0.54944  0.33278  1.0000
  C   C68       1.0  0.95475  0.53076  0.33621  1.0000
  C   C69       1.0  0.95568  0.51038  0.33818  1.0000
  C   C70       1.0  0.98452  0.57348  0.33032  1.0000
  C   C71       1.0  0.00798  0.59219  0.32924  1.0000
  N   N15       1.0  0.02814  0.59158  0.33174  1.0000
  C   C72       1.0  0.04728  0.61318  0.33192  1.0000
  C   C73       1.0  0.03876  0.62869  0.32835  1.0000
  C   C74       1.0  0.01470  0.61585  0.32670  1.0000
  C   C75       1.0  0.07131  0.61983  0.33531  1.0000
  C   C76       1.0  0.08001  0.60411  0.33527  1.0000
  N   N16       1.0  0.06758  0.58056  0.33205  1.0000
  C   C77       1.0  0.08151  0.57107  0.33278  1.0000
  C   C78       1.0  0.10440  0.58976  0.33609  1.0000
  C   C79       1.0  0.10347  0.61013  0.33820  1.0000
  C   C80       1.0  0.07463  0.54703  0.33022  1.0000
  C   C81       1.0  0.09267  0.54129  0.32885  1.0000
  C   C82       1.0  0.12951  0.53081  0.32563  1.0000
  C   C83       1.0  0.12112  0.53451  0.40727  1.0000
  C   C84       1.0  0.10293  0.53968  0.40899  1.0000
  C   C85       1.0  0.14889  0.52696  0.32387  1.0000
  C   C86       1.0  0.15073  0.51166  0.38509  1.0000
  C   C87       1.0  0.17061  0.50911  0.38655  1.0000
  C   C88       1.0  0.18922  0.52174  0.32666  1.0000
  C   C89       1.0  0.08785  0.64409  0.34055  1.0000
  C   C90       1.0  0.11900  0.69316  0.35086  1.0000
  C   C91       1.0  0.10806  0.67992  0.42824  1.0000
  C   C92       1.0  0.09268  0.65571  0.42328  1.0000
  C   C93       1.0  0.13449  0.71777  0.35621  1.0000
  C   C94       1.0  0.16600  0.76696  0.36614  1.0000
  C   C95       1.0  0.16694  0.75163  0.42942  1.0000
  C   C96       1.0  0.15150  0.72745  0.42442  1.0000
  C   C97       1.0  0.96649  0.57923  0.32913  1.0000
  C   C98       1.0  0.95647  0.58110  0.40943  1.0000
  C   C99       1.0  0.93844  0.58650  0.40794  1.0000
  C   C100      1.0  0.92998  0.59020  0.32640  1.0000
  C   C101      1.0  0.91085  0.59445  0.32493  1.0000
  C   C102      1.0  0.87112  0.60067  0.32788  1.0000
  C   C103      1.0  0.88992  0.61313  0.38729  1.0000
  C   C104      1.0  0.90950  0.61008  0.38573  1.0000
  C   C105      1.0  0.97128  0.47641  0.34011  1.0000
  C   C106      1.0  0.96650  0.46469  0.42267  1.0000
  C   C107      1.0  0.93972  0.42741  0.35017  1.0000
  C   C108      1.0  0.95091  0.44053  0.42749  1.0000
  C   C109      1.0  0.92389  0.40288  0.35545  1.0000
  C   C110      1.0  0.90697  0.39341  0.42400  1.0000
  C   C111      1.0  0.89112  0.36931  0.42875  1.0000
  C   C112      1.0  0.89153  0.35386  0.36480  1.0000
  H   H73       1.0  0.87897  0.36314  0.47872  1.0000
  H   H74       1.0  0.90562  0.40405  0.47015  1.0000
  H   H75       1.0  0.94823  0.43251  0.48814  1.0000
  H   H76       1.0  0.97455  0.47362  0.47959  1.0000
  H   H77       1.0  0.01093  0.47399  0.32697  1.0000
  H   H78       1.0  0.05505  0.49755  0.32464  1.0000
  H   H79       1.0  0.03037  0.54307  0.33588  1.0000
  H   H80       1.0  0.02878  0.57743  0.33591  1.0000
  H   H81       1.0  0.94143  0.49398  0.34094  1.0000
  H   H82       1.0  0.93971  0.53154  0.33761  1.0000
  H   H83       1.0  0.96201  0.57823  0.46934  1.0000
  H   H84       1.0  0.93105  0.58699  0.46718  1.0000
  H   H85       1.0  0.00409  0.62296  0.32493  1.0000
  H   H86       1.0  0.04822  0.64652  0.32737  1.0000
  H   H87       1.0  0.11944  0.58899  0.33735  1.0000
  H   H88       1.0  0.11771  0.62653  0.34086  1.0000
  H   H89       1.0  0.08475  0.64670  0.48022  1.0000
  H   H90       1.0  0.11075  0.68786  0.48900  1.0000
  H   H91       1.0  0.15321  0.71692  0.47013  1.0000
  H   H92       1.0  0.17915  0.75797  0.47919  1.0000
  H   H93       1.0  0.09749  0.54263  0.46893  1.0000
  H   H94       1.0  0.12871  0.53426  0.46636  1.0000
  H   H95       1.0  0.17161  0.49829  0.43290  1.0000
  H   H96       1.0  0.13765  0.50232  0.42979  1.0000
  H   H97       1.0  0.92273  0.61934  0.43000  1.0000
  H   H98       1.0  0.88926  0.62420  0.43328  1.0000
  C   C113      1.0  0.18325  0.79237  0.37039  1.0000
  C   C114      1.0  0.21092  0.52037  0.33323  1.0000
  C   C115      1.0  0.87380  0.32858  0.36864  1.0000
  C   C116      1.0  0.84976  0.60263  0.33439  1.0000
  H   H99       1.0  0.18292  0.79865  0.43723  1.0000
  H   H100      1.0  0.21823  0.52668  0.39956  1.0000
  H   H101      1.0  0.84248  0.59658  0.40093  1.0000
  H   H102      1.0  0.87403  0.32208  0.43520  1.0000
  C   C117      1.0  0.60012  0.62358  0.32927  1.0000
  C   C118      1.0  0.58728  0.63479  0.32762  1.0000
  C   C119      1.0  0.56362  0.61785  0.32988  1.0000
  N   N17       1.0  0.56300  0.59707  0.33230  1.0000
  C   C120      1.0  0.58461  0.59953  0.33249  1.0000
  C   C121      1.0  0.59126  0.58216  0.33563  1.0000
  C   C122      1.0  0.57553  0.55773  0.33557  1.0000
  N   N18       1.0  0.55198  0.54661  0.33250  1.0000
  C   C123      1.0  0.54249  0.52319  0.33327  1.0000
  C   C124      1.0  0.56118  0.51899  0.33653  1.0000
  C   C125      1.0  0.58156  0.54030  0.33848  1.0000
  C   C126      1.0  0.51845  0.50603  0.33089  1.0000
  C   C127      1.0  0.49974  0.51079  0.32983  1.0000
  N   N19       1.0  0.50035  0.53156  0.33232  1.0000
  C   C128      1.0  0.47875  0.52910  0.33258  1.0000
  C   C129      1.0  0.46323  0.50505  0.32913  1.0000
  C   C130      1.0  0.47607  0.49385  0.32741  1.0000
  C   C131      1.0  0.47210  0.54647  0.33594  1.0000
  C   C132      1.0  0.48782  0.57090  0.33580  1.0000
  N   N20       1.0  0.51137  0.58201  0.33265  1.0000
  C   C133      1.0  0.52086  0.60544  0.33321  1.0000
  C   C134      1.0  0.50217  0.60963  0.33639  1.0000
  C   C135      1.0  0.48179  0.58832  0.33852  1.0000
  C   C136      1.0  0.54490  0.62260  0.33074  1.0000
  C   C137      1.0  0.55063  0.64637  0.32937  1.0000
  C   C138      1.0  0.56112  0.69370  0.32612  1.0000
  C   C139      1.0  0.55738  0.68157  0.40776  1.0000
  C   C140      1.0  0.55223  0.65822  0.40950  1.0000
  C   C141      1.0  0.56498  0.71693  0.32434  1.0000
  C   C142      1.0  0.58027  0.73405  0.38558  1.0000
  C   C143      1.0  0.58282  0.75648  0.38703  1.0000
  C   C144      1.0  0.57020  0.76249  0.32711  1.0000
  C   C145      1.0  0.44784  0.53876  0.34117  1.0000
  C   C146      1.0  0.39877  0.52083  0.35150  1.0000
  C   C147      1.0  0.41202  0.52314  0.42889  1.0000
  C   C148      1.0  0.43622  0.53197  0.42393  1.0000
  C   C149      1.0  0.37416  0.51172  0.35687  1.0000
  C   C150      1.0  0.32497  0.49405  0.36682  1.0000
  C   C151      1.0  0.34031  0.51032  0.43004  1.0000
  C   C152      1.0  0.36449  0.51907  0.42498  1.0000
  C   C153      1.0  0.51270  0.48225  0.32966  1.0000
  C   C154      1.0  0.51084  0.47034  0.40995  1.0000
  C   C155      1.0  0.50545  0.44691  0.40843  1.0000
  C   C156      1.0  0.50172  0.43478  0.32687  1.0000
  C   C157      1.0  0.49745  0.41139  0.32538  1.0000
  C   C158      1.0  0.49123  0.36544  0.32837  1.0000
  C   C159      1.0  0.47877  0.37176  0.38776  1.0000
  C   C160      1.0  0.48183  0.39439  0.38621  1.0000
  C   C161      1.0  0.61552  0.58986  0.34067  1.0000
  C   C162      1.0  0.62723  0.59672  0.42327  1.0000
  C   C163      1.0  0.66452  0.60728  0.35077  1.0000
  C   C164      1.0  0.65139  0.60529  0.42811  1.0000
  C   C165      1.0  0.68905  0.61598  0.35607  1.0000
  C   C166      1.0  0.69851  0.60847  0.42454  1.0000
  C   C167      1.0  0.72261  0.61671  0.42930  1.0000
  C   C168      1.0  0.73807  0.63262  0.36545  1.0000
  H   H103      1.0  0.72877  0.61070  0.47922  1.0000
  H   H104      1.0  0.68786  0.59645  0.47062  1.0000
  H   H105      1.0  0.65940  0.61057  0.48879  1.0000
  H   H106      1.0  0.61830  0.59580  0.48021  1.0000
  H   H107      1.0  0.61795  0.63195  0.32840  1.0000
  H   H108      1.0  0.59438  0.65251  0.32608  1.0000
  H   H109      1.0  0.54885  0.58228  0.33562  1.0000
  H   H110      1.0  0.51450  0.54634  0.33640  1.0000
  H   H111      1.0  0.59795  0.54244  0.34116  1.0000
  H   H112      1.0  0.56040  0.50317  0.33788  1.0000
  H   H113      1.0  0.51372  0.47873  0.46986  1.0000
  H   H114      1.0  0.50494  0.43900  0.46766  1.0000
  H   H115      1.0  0.46897  0.47613  0.32586  1.0000
  H   H116      1.0  0.44541  0.49668  0.32834  1.0000
  H   H117      1.0  0.50294  0.62545  0.33751  1.0000
  H   H118      1.0  0.46539  0.58617  0.34113  1.0000
  H   H119      1.0  0.44524  0.53304  0.48087  1.0000
  H   H120      1.0  0.40407  0.51788  0.48966  1.0000
  H   H121      1.0  0.37503  0.53129  0.47070  1.0000
  H   H122      1.0  0.33398  0.51620  0.47975  1.0000
  H   H123      1.0  0.54927  0.64981  0.46944  1.0000
  H   H124      1.0  0.55764  0.68940  0.46685  1.0000
  H   H125      1.0  0.59362  0.76827  0.43344  1.0000
  H   H126      1.0  0.58960  0.73029  0.43033  1.0000
  H   H127      1.0  0.47258  0.39836  0.43050  1.0000
  H   H128      1.0  0.46772  0.36003  0.43380  1.0000
  C   C169      1.0  0.29957  0.48590  0.37106  1.0000
  C   C170      1.0  0.57157  0.78555  0.33369  1.0000
  C   C171      1.0  0.76334  0.64017  0.36930  1.0000
  C   C172      1.0  0.48928  0.34211  0.33491  1.0000
  H   H129      1.0  0.29329  0.47929  0.43792  1.0000
  H   H130      1.0  0.56525  0.78652  0.40001  1.0000
  H   H131      1.0  0.49533  0.34087  0.40146  1.0000
  H   H132      1.0  0.76984  0.64685  0.43589  1.0000
  C   C173      1.0  0.46836  0.07155  0.32954  1.0000
  C   C174      1.0  0.45715  0.04749  0.32797  1.0000
  C   C175      1.0  0.47409  0.04077  0.33036  1.0000
  N   N21       1.0  0.49486  0.06093  0.33285  1.0000
  C   C176      1.0  0.49240  0.08007  0.33296  1.0000
  C   C177      1.0  0.50978  0.10410  0.33617  1.0000
  C   C178      1.0  0.53421  0.11280  0.33621  1.0000
  N   N22       1.0  0.54532  0.10036  0.33310  1.0000
  C   C179      1.0  0.56875  0.11429  0.33391  1.0000
  C   C180      1.0  0.57295  0.13718  0.33716  1.0000
  C   C181      1.0  0.55164  0.13625  0.33918  1.0000
  C   C182      1.0  0.58590  0.10741  0.33153  1.0000
  C   C183      1.0  0.58114  0.08394  0.33052  1.0000
  N   N23       1.0  0.56037  0.06378  0.33310  1.0000
  C   C184      1.0  0.56283  0.04464  0.33329  1.0000
  C   C185      1.0  0.58687  0.05316  0.32974  1.0000
  C   C186      1.0  0.59808  0.07722  0.32809  1.0000
  C   C187      1.0  0.54545  0.02061  0.33666  1.0000
  C   C188      1.0  0.52103  0.01191  0.33651  1.0000
  N   N24       1.0  0.50992  0.02435  0.33331  1.0000
  C   C189      1.0  0.48649  0.01042  0.33389  1.0000
  C   C190      1.0  0.48229  0.98753  0.33712  1.0000
  C   C191      1.0  0.50360  0.98846  0.33930  1.0000
  C   C192      1.0  0.46933  0.01730  0.33135  1.0000
  C   C193      1.0  0.44555  0.99926  0.32990  1.0000
  C   C194      1.0  0.39823  0.96243  0.32652  1.0000
  C   C195      1.0  0.41033  0.97079  0.40819  1.0000
  C   C196      1.0  0.43369  0.98899  0.41002  1.0000
  C   C197      1.0  0.37500  0.94305  0.32466  1.0000
  C   C198      1.0  0.35787  0.94120  0.38579  1.0000
  C   C199      1.0  0.33544  0.92133  0.38718  1.0000
  C   C200      1.0  0.32945  0.90271  0.32727  1.0000
  C   C201      1.0  0.55316  0.00407  0.34187  1.0000
  C   C202      1.0  0.57109  0.97291  0.35214  1.0000
  C   C203      1.0  0.56878  0.98383  0.42955  1.0000
  C   C204      1.0  0.55997  0.99922  0.42460  1.0000
  C   C205      1.0  0.58020  0.95742  0.35748  1.0000
  C   C206      1.0  0.59788  0.92591  0.36736  1.0000
  C   C207      1.0  0.58162  0.92495  0.43061  1.0000
  C   C208      1.0  0.57288  0.94039  0.42562  1.0000
  C   C209      1.0  0.60968  0.12544  0.33022  1.0000
  C   C210      1.0  0.62162  0.13546  0.41048  1.0000
  C   C211      1.0  0.64505  0.15349  0.40887  1.0000
  C   C212      1.0  0.65715  0.16193  0.32727  1.0000
  C   C213      1.0  0.68053  0.18105  0.32570  1.0000
  C   C214      1.0  0.72649  0.22078  0.32848  1.0000
  C   C215      1.0  0.72019  0.20199  0.38785  1.0000
  C   C216      1.0  0.69757  0.18241  0.38640  1.0000
  C   C217      1.0  0.50208  0.12066  0.34123  1.0000
  C   C218      1.0  0.49521  0.12547  0.42382  1.0000
  C   C219      1.0  0.48466  0.15223  0.35134  1.0000
  C   C220      1.0  0.48663  0.14105  0.42867  1.0000
  C   C221      1.0  0.47595  0.16806  0.35665  1.0000
  C   C222      1.0  0.48345  0.18499  0.42514  1.0000
  C   C223      1.0  0.47522  0.20086  0.42988  1.0000
  C   C224      1.0  0.45931  0.20042  0.36602  1.0000
  H   H133      1.0  0.48122  0.21301  0.47983  1.0000
  H   H134      1.0  0.49548  0.18636  0.47122  1.0000
  H   H135      1.0  0.48134  0.14375  0.48934  1.0000
  H   H136      1.0  0.49611  0.11742  0.48075  1.0000
  H   H137      1.0  0.45999  0.08101  0.32855  1.0000
  H   H138      1.0  0.43943  0.03688  0.32623  1.0000
  H   H139      1.0  0.50965  0.06157  0.33655  1.0000
  H   H140      1.0  0.54558  0.06315  0.33722  1.0000
  H   H141      1.0  0.54950  0.15050  0.34183  1.0000
  H   H142      1.0  0.58877  0.15222  0.33860  1.0000
  H   H143      1.0  0.61325  0.12993  0.47042  1.0000
  H   H144      1.0  0.65297  0.16087  0.46808  1.0000
  H   H145      1.0  0.61580  0.08783  0.32625  1.0000
  H   H146      1.0  0.59523  0.04370  0.32880  1.0000
  H   H147      1.0  0.46647  0.97249  0.33826  1.0000
  H   H148      1.0  0.50575  0.97421  0.34192  1.0000
  H   H149      1.0  0.55890  0.00714  0.48155  1.0000
  H   H150      1.0  0.57406  0.98114  0.49030  1.0000
  H   H151      1.0  0.56064  0.93868  0.47131  1.0000
  H   H152      1.0  0.57574  0.91272  0.48032  1.0000
  H   H153      1.0  0.44208  0.99442  0.46998  1.0000
  H   H154      1.0  0.40249  0.96321  0.46727  1.0000
  H   H155      1.0  0.32362  0.92032  0.43347  1.0000
  H   H156      1.0  0.36161  0.95428  0.43051  1.0000
  H   H157      1.0  0.69361  0.16918  0.43067  1.0000
  H   H158      1.0  0.73194  0.20265  0.43380  1.0000
  C   C225      1.0  0.60603  0.90865  0.37157  1.0000
  C   C226      1.0  0.30638  0.88102  0.33373  1.0000
  C   C227      1.0  0.45176  0.21815  0.36989  1.0000
  C   C228      1.0  0.74982  0.24215  0.33491  1.0000
  H   H159      1.0  0.61265  0.90895  0.43842  1.0000
  H   H160      1.0  0.30537  0.87371  0.40007  1.0000
  H   H161      1.0  0.75110  0.24943  0.40149  1.0000
  H   H162      1.0  0.44508  0.21795  0.43648  1.0000
  C   C229      1.0  0.27158  0.49976  0.34785  1.0000
  N   N25       1.0  0.23819  0.49930  0.40841  1.0000
  C   C230      1.0  0.25939  0.50129  0.42309  1.0000
  C   C231      1.0  0.26889  0.50682  0.51500  1.0000
  O   O1        1.0  0.27118  0.48838  0.55446  1.0000
  H   H163      1.0  0.25779  0.51056  0.55793  1.0000
  H   H164      1.0  0.28604  0.52254  0.51404  1.0000
  H   H165      1.0  0.25546  0.47474  0.56187  1.0000
  N   N26       1.0  0.29504  0.50505  0.34714  1.0000
  H   H166      1.0  0.30514  0.52008  0.38242  1.0000
  C   C232      1.0  0.59217  0.86681  0.34837  1.0000
  N   N27       1.0  0.59263  0.83386  0.40891  1.0000
  C   C233      1.0  0.59064  0.85306  0.42359  1.0000
  C   C234      1.0  0.58510  0.85700  0.51551  1.0000
  O   O2        1.0  0.60353  0.87772  0.55498  1.0000
  H   H167      1.0  0.58137  0.84215  0.55843  1.0000
  H   H168      1.0  0.56937  0.85842  0.51453  1.0000
  H   H169      1.0  0.61718  0.87564  0.56239  1.0000
  N   N28       1.0  0.58688  0.88497  0.34765  1.0000
  H   H170      1.0  0.57185  0.88003  0.38294  1.0000
  C   C235      1.0  0.22511  0.82036  0.34752  1.0000
  N   N29       1.0  0.25803  0.85371  0.40843  1.0000
  C   C236      1.0  0.23881  0.83250  0.42289  1.0000
  C   C237      1.0  0.23482  0.82294  0.51472  1.0000
  O   O3        1.0  0.21409  0.82063  0.55411  1.0000
  H   H171      1.0  0.24966  0.83402  0.55778  1.0000
  H   H172      1.0  0.23340  0.80579  0.51362  1.0000
  H   H173      1.0  0.21618  0.83635  0.56163  1.0000
  N   N30       1.0  0.20693  0.79690  0.34658  1.0000
  H   H174      1.0  0.21186  0.78678  0.38180  1.0000
  C   C238      1.0  0.79048  0.62522  0.34706  1.0000
  N   N31       1.0  0.82334  0.62469  0.40820  1.0000
  C   C239      1.0  0.80238  0.62329  0.42251  1.0000
  C   C240      1.0  0.79278  0.61793  0.51429  1.0000
  O   O4        1.0  0.79091  0.63662  0.55343  1.0000
  H   H175      1.0  0.80363  0.61389  0.55754  1.0000
  H   H176      1.0  0.77547  0.60242  0.51313  1.0000
  H   H177      1.0  0.80675  0.65006  0.56101  1.0000
  N   N32       1.0  0.76722  0.62057  0.34601  1.0000
  H   H178      1.0  0.75681  0.60565  0.38146  1.0000
  C   C241      1.0  0.46670  0.26024  0.34763  1.0000
  N   N33       1.0  0.46723  0.29361  0.40875  1.0000
  C   C242      1.0  0.46864  0.27406  0.42308  1.0000
  C   C243      1.0  0.47401  0.26980  0.51485  1.0000
  O   O5        1.0  0.45532  0.24921  0.55401  1.0000
  H   H179      1.0  0.47804  0.28467  0.55810  1.0000
  H   H180      1.0  0.48952  0.26800  0.51370  1.0000
  H   H181      1.0  0.44188  0.25161  0.56159  1.0000
  N   N34       1.0  0.47136  0.24164  0.34660  1.0000
  H   H182      1.0  0.48628  0.24614  0.38206  1.0000
  C   C244      1.0  0.83170  0.30145  0.34675  1.0000
  N   N35       1.0  0.79836  0.26863  0.40823  1.0000
  C   C245      1.0  0.81793  0.28959  0.42234  1.0000
  C   C246      1.0  0.82223  0.29924  0.51404  1.0000
  O   O6        1.0  0.84284  0.30115  0.55309  1.0000
  H   H183      1.0  0.80739  0.28842  0.55742  1.0000
  H   H184      1.0  0.82403  0.31655  0.51276  1.0000
  H   H185      1.0  0.84044  0.28531  0.56077  1.0000
  N   N36       1.0  0.85030  0.32471  0.34550  1.0000
  H   H186      1.0  0.84583  0.33513  0.38092  1.0000
