data_image0
_chemical_formula_structural       C30H17NHNHNH13C3NC2NHCHCH2C3NC2NHCHCH2C3NC2NHCHCH2C3H4CH2C3H4CH2C3H4CH6C30H17NHNHNHC30H17NHNHNHC30H17NHNHNHC3H4CH2C3H4CH2C3H4CH2C3NC2NHCHCH2C3NC2NHCHCH2C3NC2NHCHCH2
_chemical_formula_sum              "C186 H156 N24"
_cell_length_a       68.3447
_cell_length_b       68.3448
_cell_length_c       14.9984
_cell_angle_alpha    90
_cell_angle_beta     90
_cell_angle_gamma    120

_space_group_name_H-M_alt    "P 1"
_space_group_IT_number       1

loop_
  _space_group_symop_operation_xyz
  'x, y, z'

loop_
  _atom_site_type_symbol
  _atom_site_label
  _atom_site_symmetry_multiplicity
  _atom_site_fract_x
  _atom_site_fract_y
  _atom_site_fract_z
  _atom_site_occupancy
  C   C1        1.0  0.93511  0.07127  0.33372  1.0000
  C   C2        1.0  0.94560  0.06967  0.41236  1.0000
  C   C3        1.0  0.95405  0.05468  0.41696  1.0000
  C   C4        1.0  0.95211  0.04096  0.34309  1.0000
  C   C5        1.0  0.94127  0.04238  0.26497  1.0000
  C   C6        1.0  0.93307  0.05757  0.26010  1.0000
  C   C7        1.0  0.96019  0.02601  0.34882  1.0000
  C   C8        1.0  0.97485  0.02570  0.28981  1.0000
  C   C9        1.0  0.98316  0.01094  0.29534  1.0000
  C   C10       1.0  0.96845  0.98729  0.29466  1.0000
  C   C11       1.0  0.97700  0.97227  0.29522  1.0000
  C   C12       1.0  0.00065  0.98120  0.29458  1.0000
  C   C13       1.0  0.01567  0.00478  0.29523  1.0000
  C   C14       1.0  0.00674  0.01949  0.29468  1.0000
  C   C15       1.0  0.03875  0.01309  0.28970  1.0000
  C   C16       1.0  0.05371  0.02773  0.34871  1.0000
  C   C17       1.0  0.07675  0.03581  0.34300  1.0000
  C   C18       1.0  0.08901  0.04658  0.26478  1.0000
  C   C19       1.0  0.08854  0.03394  0.41700  1.0000
  C   C20       1.0  0.11198  0.04240  0.41246  1.0000
  C   C21       1.0  0.12407  0.05281  0.33372  1.0000
  C   C22       1.0  0.11239  0.05476  0.25994  1.0000
  C   C23       1.0  0.96224  0.94920  0.28967  1.0000
  C   C24       1.0  0.96195  0.93421  0.34854  1.0000
  C   C25       1.0  0.94698  0.91117  0.34286  1.0000
  C   C26       1.0  0.93347  0.89938  0.41715  1.0000
  C   C27       1.0  0.94534  0.89893  0.26441  1.0000
  C   C28       1.0  0.93015  0.87555  0.25966  1.0000
  C   C29       1.0  0.91666  0.86385  0.33372  1.0000
  C   C30       1.0  0.91848  0.87593  0.41266  1.0000
  H   H1        1.0  0.94719  0.07950  0.46635  1.0000
  H   H2        1.0  0.96171  0.05394  0.47456  1.0000
  H   H3        1.0  0.01752  0.03662  0.29242  1.0000
  H   H4        1.0  0.95132  0.98094  0.29240  1.0000
  H   H5        1.0  0.00700  0.97042  0.29228  1.0000
  H   H6        1.0  0.93437  0.90775  0.47500  1.0000
  H   H7        1.0  0.08103  0.04856  0.21068  1.0000
  H   H8        1.0  0.12022  0.04086  0.46655  1.0000
  H   H9        1.0  0.08015  0.02634  0.47469  1.0000
  H   H10       1.0  0.90880  0.86767  0.46696  1.0000
  H   H11       1.0  0.95520  0.90692  0.21008  1.0000
  H   H12       1.0  0.04818  0.03275  0.40042  1.0000
  H   H13       1.0  0.04422  0.00743  0.23989  1.0000
  H   H14       1.0  0.95518  0.01546  0.40051  1.0000
  H   H15       1.0  0.98050  0.03683  0.24003  1.0000
  H   H16       1.0  0.97255  0.93974  0.40008  1.0000
  H   H17       1.0  0.95106  0.94373  0.24007  1.0000
  N   N1        1.0  0.14763  0.06163  0.32641  1.0000
  H   H18       1.0  0.15197  0.05044  0.35276  1.0000
  N   N2        1.0  0.92629  0.08602  0.32637  1.0000
  H   H19       1.0  0.93747  0.10155  0.35272  1.0000
  N   N3        1.0  0.90192  0.84030  0.32647  1.0000
  H   H20       1.0  0.88639  0.83596  0.35287  1.0000
  H   H21       1.0  0.51351  0.34186  0.22622  1.0000
  H   H22       1.0  0.49503  0.30173  0.25001  1.0000
  H   H23       1.0  0.29862  0.17250  0.41734  1.0000
  H   H24       1.0  0.49622  0.15527  0.46872  1.0000
  H   H25       1.0  0.64608  0.17172  0.22636  1.0000
  H   H26       1.0  0.68621  0.19336  0.25013  1.0000
  H   H27       1.0  0.81542  0.12612  0.41719  1.0000
  H   H28       1.0  0.83265  0.34098  0.46868  1.0000
  H   H29       1.0  0.81624  0.47441  0.22632  1.0000
  H   H30       1.0  0.79458  0.49289  0.25011  1.0000
  H   H31       1.0  0.86181  0.68930  0.41727  1.0000
  H   H32       1.0  0.64694  0.49169  0.46870  1.0000
  C   C31       1.0  0.23350  0.11269  0.31463  1.0000
  C   C32       1.0  0.21791  0.10575  0.24285  1.0000
  C   C33       1.0  0.19440  0.09652  0.25887  1.0000
  N   N4        1.0  0.18038  0.09035  0.18699  1.0000
  C   C34       1.0  0.18742  0.09238  0.10101  1.0000
  C   C35       1.0  0.21071  0.10150  0.08567  1.0000
  N   N5        1.0  0.22489  0.10778  0.15655  1.0000
  H   H33       1.0  0.21706  0.10345  0.02256  1.0000
  C   C36       1.0  0.17103  0.08513  0.02708  1.0000
  H   H34       1.0  0.15384  0.07846  0.05211  1.0000
  C   C37       1.0  0.25818  0.12293  0.29601  1.0000
  H   H35       1.0  0.26312  0.13791  0.25480  1.0000
  H   H36       1.0  0.26071  0.11088  0.25671  1.0000
  C   C38       1.0  0.87524  0.12083  0.31461  1.0000
  C   C39       1.0  0.88219  0.11219  0.24281  1.0000
  C   C40       1.0  0.89140  0.09790  0.25882  1.0000
  N   N6        1.0  0.89758  0.09005  0.18693  1.0000
  C   C41       1.0  0.89556  0.09508  0.10096  1.0000
  C   C42       1.0  0.88645  0.10926  0.08563  1.0000
  N   N7        1.0  0.88016  0.11714  0.15652  1.0000
  H   H37       1.0  0.88450  0.11366  0.02253  1.0000
  C   C43       1.0  0.90281  0.08594  0.02702  1.0000
  H   H38       1.0  0.90947  0.07541  0.05203  1.0000
  C   C44       1.0  0.86501  0.13528  0.29599  1.0000
  H   H39       1.0  0.85003  0.12525  0.25474  1.0000
  H   H40       1.0  0.87707  0.14987  0.25675  1.0000
  C   C45       1.0  0.86712  0.75443  0.31464  1.0000
  C   C46       1.0  0.87578  0.77002  0.24287  1.0000
  C   C47       1.0  0.89005  0.79353  0.25892  1.0000
  N   N8        1.0  0.89791  0.80756  0.18704  1.0000
  C   C48       1.0  0.89291  0.80053  0.10106  1.0000
  C   C49       1.0  0.87874  0.77723  0.08570  1.0000
  N   N9        1.0  0.87084  0.76305  0.15656  1.0000
  H   H41       1.0  0.87435  0.77089  0.02258  1.0000
  C   C50       1.0  0.90204  0.81691  0.02714  1.0000
  H   H42       1.0  0.91257  0.83411  0.05218  1.0000
  C   C51       1.0  0.85269  0.72975  0.29599  1.0000
  H   H43       1.0  0.86273  0.72481  0.25479  1.0000
  H   H44       1.0  0.83811  0.72723  0.25669  1.0000
  C   C52       1.0  0.53999  0.13183  0.32377  1.0000
  C   C53       1.0  0.55408  0.13242  0.25364  1.0000
  C   C54       1.0  0.57403  0.13194  0.27106  1.0000
  H   H45       1.0  0.58397  0.13317  0.21800  1.0000
  H   H46       1.0  0.55033  0.13400  0.18892  1.0000
  H   H47       1.0  0.53329  0.14221  0.01958  1.0000
  H   H48       1.0  0.51786  0.11221  0.01442  1.0000
  C   C55       1.0  0.52008  0.13454  0.30439  1.0000
  H   H49       1.0  0.50504  0.12018  0.33306  1.0000
  H   H50       1.0  0.51725  0.13446  0.23251  1.0000
  C   C56       1.0  0.85610  0.40820  0.32375  1.0000
  C   C57       1.0  0.85551  0.42169  0.25363  1.0000
  C   C58       1.0  0.85600  0.44213  0.27106  1.0000
  H   H51       1.0  0.85477  0.45084  0.21800  1.0000
  H   H52       1.0  0.85394  0.41637  0.18891  1.0000
  H   H53       1.0  0.84572  0.39111  0.01956  1.0000
  H   H54       1.0  0.87572  0.40568  0.01440  1.0000
  C   C59       1.0  0.85340  0.38558  0.30436  1.0000
  H   H55       1.0  0.86775  0.38489  0.33304  1.0000
  H   H56       1.0  0.85347  0.38283  0.23248  1.0000
  C   C60       1.0  0.57974  0.44793  0.32374  1.0000
  C   C61       1.0  0.56624  0.43385  0.25361  1.0000
  C   C62       1.0  0.54580  0.41390  0.27103  1.0000
  H   H57       1.0  0.53710  0.40397  0.21797  1.0000
  H   H58       1.0  0.57157  0.43761  0.18889  1.0000
  H   H59       1.0  0.59682  0.45461  0.01955  1.0000
  H   H60       1.0  0.58226  0.47005  0.01442  1.0000
  C   C63       1.0  0.60236  0.46784  0.30437  1.0000
  H   H61       1.0  0.60305  0.48289  0.33305  1.0000
  H   H62       1.0  0.60511  0.47067  0.23249  1.0000
  H   H63       1.0  0.92527  0.05833  0.20306  1.0000
  H   H64       1.0  0.93924  0.03237  0.21096  1.0000
  H   H65       1.0  0.12096  0.06253  0.20285  1.0000
  H   H66       1.0  0.92923  0.86700  0.20239  1.0000
  C   C64       1.0  0.49263  0.34765  0.31375  1.0000
  C   C65       1.0  0.47404  0.33705  0.37251  1.0000
  C   C66       1.0  0.46324  0.31358  0.38705  1.0000
  C   C67       1.0  0.47065  0.30032  0.34186  1.0000
  C   C68       1.0  0.48907  0.31091  0.28225  1.0000
  C   C69       1.0  0.49992  0.33438  0.26826  1.0000
  C   C70       1.0  0.46095  0.27754  0.36003  1.0000
  C   C71       1.0  0.44733  0.26143  0.30225  1.0000
  C   C72       1.0  0.43820  0.23863  0.31994  1.0000
  C   C73       1.0  0.45231  0.22911  0.32790  1.0000
  C   C74       1.0  0.44317  0.20587  0.34614  1.0000
  C   C75       1.0  0.41955  0.19217  0.35728  1.0000
  C   C76       1.0  0.40506  0.20126  0.34838  1.0000
  C   C77       1.0  0.41462  0.22459  0.32980  1.0000
  C   C78       1.0  0.38203  0.18748  0.36278  1.0000
  C   C79       1.0  0.36603  0.18640  0.30758  1.0000
  C   C80       1.0  0.34328  0.17233  0.32369  1.0000
  C   C81       1.0  0.33068  0.18063  0.36805  1.0000
  C   C82       1.0  0.33236  0.14954  0.29584  1.0000
  C   C83       1.0  0.30917  0.13525  0.31245  1.0000
  C   C84       1.0  0.29656  0.14353  0.35700  1.0000
  C   C85       1.0  0.30752  0.16626  0.38500  1.0000
  C   C86       1.0  0.45758  0.19727  0.35712  1.0000
  C   C87       1.0  0.45588  0.17969  0.31035  1.0000
  C   C88       1.0  0.47151  0.17250  0.31769  1.0000
  C   C89       1.0  0.48386  0.17267  0.24179  1.0000
  C   C90       1.0  0.47594  0.16558  0.40054  1.0000
  C   C91       1.0  0.49285  0.15965  0.40780  1.0000
  C   C92       1.0  0.50543  0.16025  0.33238  1.0000
  C   C93       1.0  0.50071  0.16667  0.24915  1.0000
  H   H67       1.0  0.46868  0.34648  0.40650  1.0000
  H   H68       1.0  0.45012  0.30633  0.43145  1.0000
  H   H69       1.0  0.40438  0.23152  0.32543  1.0000
  H   H70       1.0  0.46945  0.23924  0.32039  1.0000
  H   H71       1.0  0.41286  0.17539  0.37249  1.0000
  H   H72       1.0  0.48121  0.17785  0.18116  1.0000
  H   H73       1.0  0.33825  0.19709  0.38883  1.0000
  H   H74       1.0  0.30152  0.11876  0.29234  1.0000
  H   H75       1.0  0.34117  0.14316  0.26359  1.0000
  H   H76       1.0  0.51002  0.16767  0.19417  1.0000
  H   H77       1.0  0.46724  0.16528  0.45660  1.0000
  H   H78       1.0  0.37033  0.19596  0.25306  1.0000
  H   H79       1.0  0.37731  0.17746  0.41618  1.0000
  H   H80       1.0  0.46457  0.27321  0.41853  1.0000
  H   H81       1.0  0.44342  0.26575  0.24438  1.0000
  H   H82       1.0  0.44379  0.17228  0.26464  1.0000
  H   H83       1.0  0.47046  0.20540  0.39920  1.0000
  N   N10       1.0  0.27326  0.12979  0.37535  1.0000
  H   H84       1.0  0.27077  0.11576  0.41004  1.0000
  N   N11       1.0  0.50489  0.37128  0.30075  1.0000
  H   H85       1.0  0.49439  0.37665  0.27560  1.0000
  N   N12       1.0  0.52342  0.15592  0.34399  1.0000
  H   H86       1.0  0.53801  0.16951  0.32022  1.0000
  C   C94       1.0  0.64029  0.14503  0.31383  1.0000
  C   C95       1.0  0.65089  0.13702  0.37253  1.0000
  C   C96       1.0  0.67436  0.14969  0.38706  1.0000
  C   C97       1.0  0.68762  0.17037  0.34192  1.0000
  C   C98       1.0  0.67703  0.17822  0.28238  1.0000
  C   C99       1.0  0.65355  0.16559  0.26838  1.0000
  C   C100      1.0  0.71040  0.18345  0.36008  1.0000
  C   C101      1.0  0.72651  0.18593  0.30231  1.0000
  C   C102      1.0  0.74931  0.19960  0.31995  1.0000
  C   C103      1.0  0.75883  0.22323  0.32789  1.0000
  C   C104      1.0  0.78206  0.23733  0.34610  1.0000
  C   C105      1.0  0.79577  0.22742  0.35719  1.0000
  C   C106      1.0  0.78668  0.20383  0.34830  1.0000
  C   C107      1.0  0.76335  0.19007  0.32979  1.0000
  C   C108      1.0  0.80047  0.19460  0.36270  1.0000
  C   C109      1.0  0.80153  0.17965  0.30756  1.0000
  C   C110      1.0  0.81560  0.17098  0.32367  1.0000
  C   C111      1.0  0.80730  0.15006  0.36797  1.0000
  C   C112      1.0  0.83841  0.18286  0.29592  1.0000
  C   C113      1.0  0.85269  0.17396  0.31254  1.0000
  C   C114      1.0  0.84441  0.15305  0.35700  1.0000
  C   C115      1.0  0.82167  0.14127  0.38491  1.0000
  C   C116      1.0  0.79066  0.26034  0.35706  1.0000
  C   C117      1.0  0.80823  0.27622  0.31029  1.0000
  C   C118      1.0  0.81543  0.29904  0.31763  1.0000
  C   C119      1.0  0.81526  0.31122  0.24175  1.0000
  C   C120      1.0  0.82235  0.31039  0.40049  1.0000
  C   C121      1.0  0.82827  0.33323  0.40775  1.0000
  C   C122      1.0  0.82768  0.34521  0.33232  1.0000
  C   C123      1.0  0.82126  0.33408  0.24909  1.0000
  H   H87       1.0  0.64146  0.12223  0.40648  1.0000
  H   H88       1.0  0.68161  0.14381  0.43141  1.0000
  H   H89       1.0  0.75642  0.17288  0.32543  1.0000
  H   H90       1.0  0.74869  0.23024  0.32041  1.0000
  H   H91       1.0  0.81255  0.23751  0.37238  1.0000
  H   H92       1.0  0.81009  0.30339  0.18111  1.0000
  H   H93       1.0  0.79083  0.14116  0.38866  1.0000
  H   H94       1.0  0.86919  0.18280  0.29249  1.0000
  H   H95       1.0  0.84479  0.19806  0.26373  1.0000
  H   H96       1.0  0.82027  0.34239  0.19412  1.0000
  H   H97       1.0  0.82264  0.30199  0.45656  1.0000
  H   H98       1.0  0.79196  0.17438  0.25311  1.0000
  H   H99       1.0  0.81051  0.19991  0.41605  1.0000
  H   H100      1.0  0.71473  0.19141  0.41853  1.0000
  H   H101      1.0  0.72218  0.17767  0.24448  1.0000
  H   H102      1.0  0.81565  0.27155  0.26458  1.0000
  H   H103      1.0  0.78253  0.26509  0.39915  1.0000
  N   N13       1.0  0.85814  0.14349  0.37535  1.0000
  H   H104      1.0  0.87216  0.15502  0.41009  1.0000
  N   N14       1.0  0.61666  0.13366  0.30079  1.0000
  H   H105      1.0  0.61130  0.11779  0.27561  1.0000
  N   N15       1.0  0.83201  0.36754  0.34396  1.0000
  H   H106      1.0  0.81843  0.36854  0.32018  1.0000
  C   C124      1.0  0.84291  0.49529  0.31384  1.0000
  C   C125      1.0  0.85091  0.51389  0.37256  1.0000
  C   C126      1.0  0.83824  0.52469  0.38710  1.0000
  C   C127      1.0  0.81756  0.51727  0.34195  1.0000
  C   C128      1.0  0.80972  0.49884  0.28238  1.0000
  C   C129      1.0  0.82235  0.48800  0.26836  1.0000
  C   C130      1.0  0.80448  0.52697  0.36011  1.0000
  C   C131      1.0  0.80199  0.54059  0.30230  1.0000
  C   C132      1.0  0.78833  0.54972  0.31997  1.0000
  C   C133      1.0  0.76469  0.53562  0.32796  1.0000
  C   C134      1.0  0.75060  0.54476  0.34620  1.0000
  C   C135      1.0  0.76052  0.56838  0.35727  1.0000
  C   C136      1.0  0.78410  0.58287  0.34833  1.0000
  C   C137      1.0  0.79786  0.57330  0.32981  1.0000
  C   C138      1.0  0.79335  0.60590  0.36268  1.0000
  C   C139      1.0  0.80828  0.62190  0.30749  1.0000
  C   C140      1.0  0.81696  0.64465  0.32359  1.0000
  C   C141      1.0  0.83787  0.65725  0.36797  1.0000
  C   C142      1.0  0.80510  0.65558  0.29577  1.0000
  C   C143      1.0  0.81400  0.67876  0.31241  1.0000
  C   C144      1.0  0.83489  0.69137  0.35695  1.0000
  C   C145      1.0  0.84666  0.68041  0.38492  1.0000
  C   C146      1.0  0.72759  0.53036  0.35721  1.0000
  C   C147      1.0  0.71172  0.53205  0.31038  1.0000
  C   C148      1.0  0.68889  0.51641  0.31770  1.0000
  C   C149      1.0  0.67672  0.50405  0.24181  1.0000
  C   C150      1.0  0.67753  0.51199  0.40054  1.0000
  C   C151      1.0  0.65470  0.49506  0.40779  1.0000
  C   C152      1.0  0.64272  0.48249  0.33236  1.0000
  C   C153      1.0  0.65387  0.48720  0.24914  1.0000
  H   H107      1.0  0.86570  0.51926  0.40653  1.0000
  H   H108      1.0  0.84411  0.53782  0.43147  1.0000
  H   H109      1.0  0.81504  0.58355  0.32537  1.0000
  H   H110      1.0  0.75768  0.51848  0.32049  1.0000
  H   H111      1.0  0.75043  0.57508  0.37246  1.0000
  H   H112      1.0  0.68455  0.50672  0.18117  1.0000
  H   H113      1.0  0.84676  0.64967  0.38872  1.0000
  H   H114      1.0  0.80517  0.68642  0.29231  1.0000
  H   H115      1.0  0.78991  0.64677  0.26353  1.0000
  H   H116      1.0  0.64555  0.47791  0.19415  1.0000
  H   H117      1.0  0.68593  0.52067  0.45662  1.0000
  H   H118      1.0  0.81353  0.61759  0.25299  1.0000
  H   H119      1.0  0.78806  0.61063  0.41610  1.0000
  H   H120      1.0  0.79653  0.52336  0.41859  1.0000
  H   H121      1.0  0.81024  0.54451  0.24445  1.0000
  H   H122      1.0  0.71639  0.54413  0.26465  1.0000
  H   H123      1.0  0.72284  0.51747  0.39927  1.0000
  N   N16       1.0  0.84447  0.71467  0.37533  1.0000
  H   H124      1.0  0.83292  0.71716  0.41002  1.0000
  N   N17       1.0  0.85429  0.48304  0.30080  1.0000
  H   H125      1.0  0.87015  0.49355  0.27564  1.0000
  N   N18       1.0  0.62040  0.46450  0.34397  1.0000
  H   H126      1.0  0.61940  0.44991  0.32019  1.0000
  C   C154      1.0  0.18602  0.09381  0.34715  1.0000
  C   C155      1.0  0.20163  0.10068  0.41826  1.0000
  C   C156      1.0  0.22488  0.11003  0.40234  1.0000
  H   H127      1.0  0.23542  0.11500  0.45626  1.0000
  H   H128      1.0  0.19622  0.09918  0.48284  1.0000
  H   H129      1.0  0.17168  0.07194  0.65512  1.0000
  H   H130      1.0  0.17508  0.09946  0.65020  1.0000
  C   C157      1.0  0.16151  0.08449  0.36566  1.0000
  H   H131      1.0  0.15661  0.09605  0.33627  1.0000
  H   H132      1.0  0.15820  0.08374  0.43739  1.0000
  C   C158      1.0  0.89410  0.09222  0.34708  1.0000
  C   C159      1.0  0.88723  0.10096  0.41821  1.0000
  C   C160      1.0  0.87789  0.11486  0.40230  1.0000
  H   H133      1.0  0.87292  0.12042  0.45623  1.0000
  H   H134      1.0  0.88873  0.09704  0.48278  1.0000
  H   H135      1.0  0.91600  0.09978  0.65508  1.0000
  H   H136      1.0  0.88849  0.07568  0.65012  1.0000
  C   C161      1.0  0.90343  0.07704  0.36558  1.0000
  H   H137      1.0  0.89187  0.06057  0.33616  1.0000
  H   H138      1.0  0.90417  0.07446  0.43731  1.0000
  C   C162      1.0  0.89572  0.80191  0.34720  1.0000
  C   C163      1.0  0.88698  0.78629  0.41830  1.0000
  C   C164      1.0  0.87308  0.76305  0.40236  1.0000
  H   H139      1.0  0.86751  0.75251  0.45628  1.0000
  H   H140      1.0  0.89087  0.79170  0.48288  1.0000
  H   H141      1.0  0.88821  0.81627  0.65517  1.0000
  H   H142      1.0  0.91232  0.81287  0.65026  1.0000
  C   C165      1.0  0.91089  0.82641  0.36573  1.0000
  H   H143      1.0  0.92737  0.83133  0.33634  1.0000
  H   H144      1.0  0.91346  0.82972  0.43746  1.0000
  C   C166      1.0  0.58071  0.13077  0.35934  1.0000
  C   C167      1.0  0.56634  0.12959  0.42998  1.0000
  C   C168      1.0  0.54615  0.13010  0.41238  1.0000
  N   N19       1.0  0.53337  0.12945  0.48321  1.0000
  C   C169      1.0  0.53866  0.12823  0.56961  1.0000
  C   C170      1.0  0.55865  0.12770  0.58657  1.0000
  N   N20       1.0  0.57161  0.12846  0.51672  1.0000
  H   H145      1.0  0.56359  0.12688  0.65010  1.0000
  C   C171      1.0  0.52390  0.12770  0.64241  1.0000
  H   H146      1.0  0.50928  0.12828  0.61621  1.0000
  C   C172      1.0  0.60286  0.13239  0.37979  1.0000
  H   H147      1.0  0.59987  0.11785  0.42045  1.0000
  H   H148      1.0  0.61236  0.14760  0.42048  1.0000
  C   C173      1.0  0.85716  0.44997  0.35934  1.0000
  C   C174      1.0  0.85835  0.43679  0.42997  1.0000
  C   C175      1.0  0.85783  0.41609  0.41236  1.0000
  N   N21       1.0  0.85848  0.40396  0.48319  1.0000
  C   C176      1.0  0.85970  0.41045  0.56960  1.0000
  C   C177      1.0  0.86023  0.43098  0.58656  1.0000
  N   N22       1.0  0.85947  0.44318  0.51672  1.0000
  H   H149      1.0  0.86105  0.43674  0.65010  1.0000
  C   C178      1.0  0.86023  0.39622  0.64239  1.0000
  H   H150      1.0  0.85964  0.38103  0.61619  1.0000
  C   C179      1.0  0.85555  0.47051  0.37979  1.0000
  H   H151      1.0  0.87009  0.48205  0.42046  1.0000
  H   H152      1.0  0.84033  0.46479  0.42049  1.0000
  C   C180      1.0  0.53796  0.40722  0.35931  1.0000
  C   C181      1.0  0.55114  0.42158  0.42995  1.0000
  C   C182      1.0  0.57185  0.44177  0.41236  1.0000
  N   N23       1.0  0.58398  0.45455  0.48319  1.0000
  C   C183      1.0  0.57748  0.44926  0.56959  1.0000
  C   C184      1.0  0.55695  0.42927  0.58654  1.0000
  N   N24       1.0  0.54476  0.41631  0.51670  1.0000
  H   H153      1.0  0.55119  0.42432  0.65008  1.0000
  C   C185      1.0  0.59171  0.46401  0.64240  1.0000
  H   H154      1.0  0.60691  0.47863  0.61620  1.0000
  C   C186      1.0  0.51743  0.38507  0.37975  1.0000
  H   H155      1.0  0.50588  0.38806  0.42044  1.0000
  H   H156      1.0  0.52314  0.37556  0.42041  1.0000
