data_image0
_chemical_formula_structural       C16H16CNC2NCHCNC2NCHC3NC3NC5NC5NC36H26N5C2HCHNC2HCH
_chemical_formula_sum              "C82 H48 N14"
_cell_length_a       34.2047
_cell_length_b       34.2027
_cell_length_c       14.6808
_cell_angle_alpha    90
_cell_angle_beta     90
_cell_angle_gamma    89.934

_space_group_name_H-M_alt    "P 1"
_space_group_IT_number       1

loop_
  _space_group_symop_operation_xyz
  'x, y, z'

loop_
  _atom_site_type_symbol
  _atom_site_label
  _atom_site_symmetry_multiplicity
  _atom_site_fract_x
  _atom_site_fract_y
  _atom_site_fract_z
  _atom_site_occupancy
  C   C1        1.0  0.17956  0.01224  0.29186  1.0000
  C   C2        1.0  0.22074  0.01247  0.29080  1.0000
  C   C3        1.0  0.34708  0.03528  0.30675  1.0000
  C   C4        1.0  0.30587  0.03507  0.30878  1.0000
  C   C5        1.0  0.01183  0.17666  0.29588  1.0000
  C   C6        1.0  0.01200  0.21785  0.29660  1.0000
  C   C7        1.0  0.99067  0.30311  0.32188  1.0000
  C   C8        1.0  0.99057  0.34431  0.32268  1.0000
  C   C9        1.0  0.80738  0.00894  0.29682  1.0000
  C   C10       1.0  0.84856  0.00840  0.29598  1.0000
  C   C11       1.0  0.72206  0.98815  0.32231  1.0000
  C   C12       1.0  0.68087  0.98825  0.32331  1.0000
  C   C13       1.0  0.01581  0.84577  0.29172  1.0000
  C   C14       1.0  0.01603  0.80458  0.29053  1.0000
  C   C15       1.0  0.03804  0.67804  0.30605  1.0000
  C   C16       1.0  0.03809  0.71924  0.30827  1.0000
  H   H1        1.0  0.05544  0.66397  0.25974  1.0000
  H   H2        1.0  0.05613  0.73367  0.26411  1.0000
  H   H3        1.0  0.01681  0.79091  0.22864  1.0000
  H   H4        1.0  0.01706  0.86067  0.23134  1.0000
  H   H5        1.0  0.86288  0.00579  0.23508  1.0000
  H   H6        1.0  0.79308  0.00728  0.23578  1.0000
  H   H7        1.0  0.00941  0.16229  0.23501  1.0000
  H   H8        1.0  0.01021  0.23210  0.23552  1.0000
  H   H9        1.0  0.97139  0.35876  0.28126  1.0000
  H   H10       1.0  0.97132  0.28918  0.27989  1.0000
  H   H11       1.0  0.29133  0.05297  0.26443  1.0000
  H   H12       1.0  0.36102  0.05271  0.26039  1.0000
  H   H13       1.0  0.23445  0.01328  0.22895  1.0000
  H   H14       1.0  0.16470  0.01354  0.23144  1.0000
  H   H15       1.0  0.73590  0.96874  0.28022  1.0000
  H   H16       1.0  0.66633  0.96915  0.28191  1.0000
  C   C17       1.0  0.01028  0.47092  0.34760  1.0000
  N   N1        1.0  0.01174  0.53886  0.30759  1.0000
  C   C18       1.0  0.01173  0.50085  0.28038  1.0000
  C   C19       1.0  0.01291  0.49454  0.19297  1.0000
  N   N2        1.0  0.01393  0.48879  0.11594  1.0000
  C   C20       1.0  0.00824  0.43109  0.32794  1.0000
  H   H17       1.0  0.00044  0.42300  0.26555  1.0000
  C   C21       1.0  0.55435  0.00850  0.34855  1.0000
  N   N3        1.0  0.48640  0.01015  0.30866  1.0000
  C   C22       1.0  0.52440  0.01031  0.28141  1.0000
  C   C23       1.0  0.53069  0.01197  0.19403  1.0000
  N   N4        1.0  0.53642  0.01342  0.11704  1.0000
  C   C24       1.0  0.59418  0.00648  0.32878  1.0000
  H   H18       1.0  0.60226  0.99895  0.26619  1.0000
  C   C25       1.0  0.08671  0.90918  0.37580  1.0000
  C   C26       1.0  0.11539  0.93758  0.37574  1.0000
  C   C27       1.0  0.09722  0.97420  0.37637  1.0000
  N   N5        1.0  0.05829  0.96656  0.37676  1.0000
  C   C28       1.0  0.05026  0.92771  0.37622  1.0000
  C   C29       1.0  0.01353  0.90811  0.37618  1.0000
  C   C30       1.0  0.97658  0.92717  0.37660  1.0000
  N   N6        1.0  0.96916  0.96603  0.37676  1.0000
  C   C31       1.0  0.93038  0.97384  0.37701  1.0000
  C   C32       1.0  0.91168  0.93755  0.37718  1.0000
  C   C33       1.0  0.94010  0.90883  0.37669  1.0000
  C   C34       1.0  0.91170  0.01099  0.37735  1.0000
  C   C35       1.0  0.93169  0.04751  0.37744  1.0000
  N   N7        1.0  0.97062  0.05514  0.37714  1.0000
  C   C36       1.0  0.97865  0.09399  0.37734  1.0000
  C   C37       1.0  0.94222  0.11254  0.37780  1.0000
  C   C38       1.0  0.91353  0.08415  0.37760  1.0000
  C   C39       1.0  0.01538  0.11359  0.37739  1.0000
  C   C40       1.0  0.05232  0.09453  0.37718  1.0000
  N   N8        1.0  0.05973  0.05567  0.37707  1.0000
  C   C41       1.0  0.09851  0.04786  0.37656  1.0000
  C   C42       1.0  0.11722  0.08415  0.37640  1.0000
  C   C43       1.0  0.08880  0.11286  0.37662  1.0000
  C   C44       1.0  0.11719  0.01072  0.37624  1.0000
  C   C45       1.0  0.15896  0.01022  0.37504  1.0000
  C   C46       1.0  0.24284  0.01082  0.37252  1.0000
  C   C47       1.0  0.22170  0.00865  0.45553  1.0000
  C   C48       1.0  0.18050  0.00838  0.45696  1.0000
  C   C49       1.0  0.28490  0.01139  0.37123  1.0000
  C   C50       1.0  0.30723  0.98804  0.43185  1.0000
  C   C51       1.0  0.34844  0.98842  0.43034  1.0000
  C   C52       1.0  0.36901  0.01234  0.36812  1.0000
  C   C53       1.0  0.01527  0.15537  0.37789  1.0000
  C   C54       1.0  0.01565  0.23924  0.37898  1.0000
  C   C55       1.0  0.01904  0.21742  0.46080  1.0000
  C   C56       1.0  0.01887  0.17623  0.46044  1.0000
  C   C57       1.0  0.01578  0.28128  0.37956  1.0000
  C   C58       1.0  0.01577  0.36540  0.38116  1.0000
  C   C59       1.0  0.04048  0.34393  0.43967  1.0000
  C   C60       1.0  0.04068  0.30272  0.43846  1.0000
  C   C61       1.0  0.86992  0.01158  0.37794  1.0000
  C   C62       1.0  0.84912  0.01536  0.46055  1.0000
  C   C63       1.0  0.80794  0.01594  0.46102  1.0000
  C   C64       1.0  0.78605  0.01274  0.37926  1.0000
  C   C65       1.0  0.74401  0.01311  0.38000  1.0000
  C   C66       1.0  0.65989  0.01350  0.38200  1.0000
  C   C67       1.0  0.68146  0.03807  0.44048  1.0000
  C   C68       1.0  0.72268  0.03808  0.43907  1.0000
  C   C69       1.0  0.01368  0.86633  0.37495  1.0000
  C   C70       1.0  0.01173  0.84474  0.45679  1.0000
  C   C71       1.0  0.01418  0.78244  0.37215  1.0000
  C   C72       1.0  0.01198  0.80354  0.45522  1.0000
  C   C73       1.0  0.01449  0.74037  0.37070  1.0000
  C   C74       1.0  0.99092  0.71819  0.43104  1.0000
  C   C75       1.0  0.99104  0.67698  0.42937  1.0000
  C   C76       1.0  0.01490  0.65625  0.36719  1.0000
  H   H19       1.0  0.97292  0.66224  0.47272  1.0000
  H   H20       1.0  0.97247  0.73186  0.47568  1.0000
  H   H21       1.0  0.01133  0.78909  0.51616  1.0000
  H   H22       1.0  0.01032  0.85889  0.51811  1.0000
  H   H23       1.0  0.09212  0.87981  0.37539  1.0000
  H   H24       1.0  0.14471  0.93188  0.37521  1.0000
  H   H25       1.0  0.03852  0.98653  0.37716  1.0000
  H   H26       1.0  0.99038  0.03517  0.37689  1.0000
  H   H27       1.0  0.93459  0.87950  0.37663  1.0000
  H   H28       1.0  0.88229  0.93233  0.37758  1.0000
  H   H29       1.0  0.86384  0.01755  0.52101  1.0000
  H   H30       1.0  0.79406  0.01791  0.52252  1.0000
  H   H31       1.0  0.88422  0.08987  0.37768  1.0000
  H   H32       1.0  0.93681  0.14191  0.37817  1.0000
  H   H33       1.0  0.14660  0.08937  0.37601  1.0000
  H   H34       1.0  0.09432  0.14220  0.37627  1.0000
  H   H35       1.0  0.02128  0.16156  0.52092  1.0000
  H   H36       1.0  0.02096  0.23135  0.52225  1.0000
  H   H37       1.0  0.05981  0.28850  0.48054  1.0000
  H   H38       1.0  0.05892  0.35824  0.48321  1.0000
  H   H39       1.0  0.16633  0.00718  0.51827  1.0000
  H   H40       1.0  0.23611  0.00820  0.51652  1.0000
  H   H41       1.0  0.36329  0.97046  0.47394  1.0000
  H   H42       1.0  0.29368  0.96957  0.47657  1.0000
  H   H43       1.0  0.73698  0.05709  0.48120  1.0000
  H   H44       1.0  0.66724  0.05654  0.48420  1.0000
  N   N9        1.0  0.40796  0.01298  0.36090  1.0000
  N   N10       1.0  0.01533  0.61730  0.35988  1.0000
  N   N11       1.0  0.62087  0.01427  0.38797  1.0000
  N   N12       1.0  0.01642  0.40442  0.38695  1.0000
  N   N13       1.0  0.00915  0.48286  0.43612  1.0000
  C   C77       1.0  0.00939  0.52091  0.46277  1.0000
  C   C78       1.0  0.01059  0.55067  0.39609  1.0000
  H   H45       1.0  0.00823  0.52730  0.53070  1.0000
  C   C79       1.0  0.00931  0.59008  0.41888  1.0000
  H   H46       1.0  0.00376  0.59742  0.48313  1.0000
  N   N14       1.0  0.54243  0.00690  0.43705  1.0000
  C   C80       1.0  0.50439  0.00702  0.46374  1.0000
  C   C81       1.0  0.47461  0.00853  0.39713  1.0000
  H   H47       1.0  0.49802  0.00545  0.53164  1.0000
  C   C82       1.0  0.43521  0.00707  0.41991  1.0000
  H   H48       1.0  0.42791  0.00142  0.48413  1.0000
