data_image0
_chemical_formula_structural       C15H12C3NC3H5C3NC3H5C2NC2NC5NC3NC17H14CNHCNHC15H12C3NC3H5C3NC3H5C2NC2NC5NC3NC17H14CNHCNHC15H12C3NC3H5C3NC3H5C2NC2NC5NC3NC17H14CNHCNHC15H12C3NC3H5C3NC3H5C2NC2NC5NC3NC17H14CNHCNH
_chemical_formula_sum              "C232 H152 N32"
_cell_length_a       42.6422
_cell_length_b       42.6422
_cell_length_c       14.9272
_cell_angle_alpha    90
_cell_angle_beta     90
_cell_angle_gamma    90

_space_group_name_H-M_alt    "P 1"
_space_group_IT_number       1

loop_
  _space_group_symop_operation_xyz
  'x, y, z'

loop_
  _atom_site_type_symbol
  _atom_site_label
  _atom_site_symmetry_multiplicity
  _atom_site_fract_x
  _atom_site_fract_y
  _atom_site_fract_z
  _atom_site_occupancy
  C   C1        1.0  0.43798  0.47537  0.33161  1.0000
  C   C2        1.0  0.03460  0.43732  0.33446  1.0000
  C   C3        1.0  0.50360  0.08688  0.33998  1.0000
  C   C4        1.0  0.47397  0.07169  0.33784  1.0000
  C   C5        1.0  0.42195  0.06353  0.33636  1.0000
  C   C6        1.0  0.44475  0.08649  0.33715  1.0000
  C   C7        1.0  0.33866  0.50057  0.25232  1.0000
  C   C8        1.0  0.37169  0.50052  0.25269  1.0000
  C   C9        1.0  0.50377  0.12038  0.33853  1.0000
  C   C10       1.0  0.50009  0.16966  0.25490  1.0000
  C   C11       1.0  0.50008  0.13665  0.25685  1.0000
  C   C12       1.0  0.13683  0.01737  0.26331  1.0000
  C   C13       1.0  0.16982  0.01813  0.26177  1.0000
  C   C14       1.0  0.01631  0.37156  0.25535  1.0000
  C   C15       1.0  0.01670  0.33854  0.25490  1.0000
  H   H1        1.0  0.02659  0.32745  0.20119  1.0000
  H   H2        1.0  0.02525  0.38335  0.20136  1.0000
  H   H3        1.0  0.44187  0.39994  0.31529  1.0000
  H   H4        1.0  0.12472  0.02629  0.20984  1.0000
  H   H5        1.0  0.18060  0.02824  0.20785  1.0000
  H   H6        1.0  0.06641  0.10933  0.35552  1.0000
  H   H7        1.0  0.39837  0.06780  0.33498  1.0000
  H   H8        1.0  0.44035  0.11005  0.33760  1.0000
  H   H9        1.0  0.49729  0.12456  0.19813  1.0000
  H   H10       1.0  0.49741  0.18045  0.19417  1.0000
  H   H11       1.0  0.38346  0.49764  0.19349  1.0000
  H   H12       1.0  0.32750  0.49778  0.19216  1.0000
  C   C16       1.0  0.99377  0.26884  0.25167  1.0000
  C   C17       1.0  0.50365  0.28733  0.32597  1.0000
  C   C18       1.0  0.50414  0.22106  0.33181  1.0000
  N   N1        1.0  0.99475  0.23704  0.25772  1.0000
  C   C19       1.0  0.98214  0.28150  0.16546  1.0000
  C   C20       1.0  0.45030  0.26947  0.13082  1.0000
  C   C21       1.0  0.45329  0.30321  0.16468  1.0000
  H   H13       1.0  0.99920  0.28548  0.11210  1.0000
  H   H14       1.0  0.45310  0.32128  0.11291  1.0000
  H   H15       1.0  0.44189  0.30786  0.22883  1.0000
  H   H16       1.0  0.43675  0.25399  0.17440  1.0000
  H   H17       1.0  0.94796  0.26715  0.05829  1.0000
  C   C22       1.0  0.23932  0.99487  0.25441  1.0000
  C   C23       1.0  0.22142  0.50482  0.32979  1.0000
  C   C24       1.0  0.28770  0.50503  0.33174  1.0000
  N   N2        1.0  0.27117  0.99572  0.25857  1.0000
  C   C25       1.0  0.22597  0.98330  0.16898  1.0000
  C   C26       1.0  0.23756  0.45138  0.13363  1.0000
  C   C27       1.0  0.20410  0.45456  0.16956  1.0000
  H   H18       1.0  0.22166  0.00038  0.11589  1.0000
  H   H19       1.0  0.18564  0.45448  0.11891  1.0000
  H   H20       1.0  0.19987  0.44319  0.23397  1.0000
  H   H21       1.0  0.25329  0.43776  0.17627  1.0000
  H   H22       1.0  0.23932  0.94903  0.06099  1.0000
  C   C28       1.0  0.44634  0.42335  0.32219  1.0000
  C   C29       1.0  0.42339  0.44616  0.32397  1.0000
  N   N3        1.0  0.46918  0.46908  0.33549  1.0000
  C   C30       1.0  0.47558  0.43793  0.33051  1.0000
  C   C31       1.0  0.50497  0.42195  0.33198  1.0000
  N   N4        1.0  0.04062  0.46850  0.33616  1.0000
  C   C32       1.0  0.07175  0.47476  0.33666  1.0000
  C   C33       1.0  0.08666  0.44561  0.33425  1.0000
  C   C34       1.0  0.06389  0.42265  0.33515  1.0000
  C   C35       1.0  0.08688  0.50451  0.33926  1.0000
  C   C36       1.0  0.07067  0.03374  0.34247  1.0000
  N   N5        1.0  0.03946  0.03989  0.33865  1.0000
  C   C37       1.0  0.03298  0.07104  0.34277  1.0000
  C   C38       1.0  0.06209  0.08583  0.35027  1.0000
  C   C39       1.0  0.08506  0.06305  0.35130  1.0000
  N   N6        1.0  0.46803  0.04054  0.33757  1.0000
  C   C40       1.0  0.43693  0.03439  0.33661  1.0000
  C   C41       1.0  0.42193  0.50465  0.33430  1.0000
  C   C42       1.0  0.38842  0.50435  0.33356  1.0000
  C   C43       1.0  0.37136  0.00851  0.41375  1.0000
  C   C44       1.0  0.33834  0.00891  0.41294  1.0000
  C   C45       1.0  0.32122  0.50488  0.33230  1.0000
  C   C46       1.0  0.00758  0.13789  0.41808  1.0000
  C   C47       1.0  0.00794  0.17091  0.41571  1.0000
  C   C48       1.0  0.50413  0.18755  0.33416  1.0000
  C   C49       1.0  0.12052  0.50508  0.33794  1.0000
  C   C50       1.0  0.18779  0.50535  0.33273  1.0000
  C   C51       1.0  0.17128  0.49328  0.40761  1.0000
  C   C52       1.0  0.13828  0.49357  0.41085  1.0000
  C   C53       1.0  0.50473  0.38830  0.33011  1.0000
  C   C54       1.0  0.49301  0.37095  0.40355  1.0000
  C   C55       1.0  0.49232  0.33795  0.40140  1.0000
  C   C56       1.0  0.50411  0.32099  0.32699  1.0000
  H   H23       1.0  0.48280  0.32638  0.45495  1.0000
  H   H24       1.0  0.48442  0.38229  0.45880  1.0000
  H   H25       1.0  0.39991  0.44170  0.31895  1.0000
  H   H26       1.0  0.48496  0.48492  0.34336  1.0000
  H   H27       1.0  0.02375  0.02405  0.32969  1.0000
  H   H28       1.0  0.06852  0.39915  0.33473  1.0000
  H   H29       1.0  0.11020  0.44119  0.33330  1.0000
  H   H30       1.0  0.12724  0.48462  0.46612  1.0000
  H   H31       1.0  0.18319  0.48368  0.46045  1.0000
  H   H32       1.0  0.10846  0.06767  0.35760  1.0000
  H   H33       1.0  0.01023  0.12668  0.47825  1.0000
  H   H34       1.0  0.01069  0.18266  0.47493  1.0000
  H   H35       1.0  0.32695  0.01191  0.47264  1.0000
  H   H36       1.0  0.38289  0.01144  0.47332  1.0000
  C   C57       1.0  0.51327  0.27032  0.40273  1.0000
  N   N7        1.0  0.51322  0.23852  0.40342  1.0000
  H   H37       1.0  0.52106  0.28159  0.45891  1.0000
  C   C58       1.0  0.23899  0.51434  0.40558  1.0000
  N   N8        1.0  0.27078  0.51416  0.40436  1.0000
  H   H38       1.0  0.22813  0.52213  0.46243  1.0000
  C   C59       1.0  0.43798  0.97537  0.33161  1.0000
  C   C60       1.0  0.03460  0.93732  0.33446  1.0000
  C   C61       1.0  0.50360  0.58688  0.33998  1.0000
  C   C62       1.0  0.47397  0.57168  0.33784  1.0000
  C   C63       1.0  0.42195  0.56353  0.33636  1.0000
  C   C64       1.0  0.44475  0.58649  0.33715  1.0000
  C   C65       1.0  0.33866  0.00057  0.25232  1.0000
  C   C66       1.0  0.37169  0.00052  0.25269  1.0000
  C   C67       1.0  0.50377  0.62038  0.33853  1.0000
  C   C68       1.0  0.50009  0.66966  0.25490  1.0000
  C   C69       1.0  0.50008  0.63666  0.25685  1.0000
  C   C70       1.0  0.13683  0.51737  0.26331  1.0000
  C   C71       1.0  0.16982  0.51813  0.26177  1.0000
  C   C72       1.0  0.01631  0.87156  0.25535  1.0000
  C   C73       1.0  0.01670  0.83854  0.25490  1.0000
  H   H39       1.0  0.02659  0.82744  0.20119  1.0000
  H   H40       1.0  0.02525  0.88335  0.20136  1.0000
  H   H41       1.0  0.44187  0.89994  0.31529  1.0000
  H   H42       1.0  0.12472  0.52629  0.20984  1.0000
  H   H43       1.0  0.18060  0.52824  0.20785  1.0000
  H   H44       1.0  0.06641  0.60933  0.35552  1.0000
  H   H45       1.0  0.39837  0.56780  0.33498  1.0000
  H   H46       1.0  0.44035  0.61005  0.33760  1.0000
  H   H47       1.0  0.49729  0.62456  0.19813  1.0000
  H   H48       1.0  0.49741  0.68045  0.19417  1.0000
  H   H49       1.0  0.38346  0.99764  0.19349  1.0000
  H   H50       1.0  0.32750  0.99778  0.19216  1.0000
  C   C74       1.0  0.99377  0.76884  0.25167  1.0000
  C   C75       1.0  0.50365  0.78733  0.32597  1.0000
  C   C76       1.0  0.50414  0.72106  0.33181  1.0000
  N   N9        1.0  0.99475  0.73704  0.25772  1.0000
  C   C77       1.0  0.98214  0.78150  0.16546  1.0000
  C   C78       1.0  0.45030  0.76947  0.13082  1.0000
  C   C79       1.0  0.45329  0.80321  0.16468  1.0000
  H   H51       1.0  0.99920  0.78548  0.11210  1.0000
  H   H52       1.0  0.45310  0.82128  0.11291  1.0000
  H   H53       1.0  0.44189  0.80786  0.22883  1.0000
  H   H54       1.0  0.43675  0.75399  0.17440  1.0000
  H   H55       1.0  0.94796  0.76715  0.05829  1.0000
  C   C80       1.0  0.23932  0.49486  0.25441  1.0000
  C   C81       1.0  0.22142  0.00482  0.32979  1.0000
  C   C82       1.0  0.28770  0.00503  0.33174  1.0000
  N   N10       1.0  0.27117  0.49572  0.25857  1.0000
  C   C83       1.0  0.22597  0.48330  0.16898  1.0000
  C   C84       1.0  0.23756  0.95138  0.13363  1.0000
  C   C85       1.0  0.20410  0.95456  0.16956  1.0000
  H   H56       1.0  0.22166  0.50038  0.11589  1.0000
  H   H57       1.0  0.18564  0.95447  0.11891  1.0000
  H   H58       1.0  0.19987  0.94319  0.23397  1.0000
  H   H59       1.0  0.25329  0.93776  0.17627  1.0000
  H   H60       1.0  0.23932  0.44904  0.06099  1.0000
  C   C86       1.0  0.44634  0.92335  0.32219  1.0000
  C   C87       1.0  0.42339  0.94616  0.32397  1.0000
  N   N11       1.0  0.46918  0.96908  0.33549  1.0000
  C   C88       1.0  0.47558  0.93793  0.33051  1.0000
  C   C89       1.0  0.50497  0.92195  0.33198  1.0000
  N   N12       1.0  0.04062  0.96850  0.33616  1.0000
  C   C90       1.0  0.07175  0.97477  0.33666  1.0000
  C   C91       1.0  0.08666  0.94561  0.33425  1.0000
  C   C92       1.0  0.06389  0.92265  0.33515  1.0000
  C   C93       1.0  0.08688  0.00451  0.33926  1.0000
  C   C94       1.0  0.07067  0.53374  0.34247  1.0000
  N   N13       1.0  0.03946  0.53989  0.33865  1.0000
  C   C95       1.0  0.03298  0.57103  0.34277  1.0000
  C   C96       1.0  0.06209  0.58583  0.35027  1.0000
  C   C97       1.0  0.08506  0.56305  0.35130  1.0000
  N   N14       1.0  0.46803  0.54053  0.33757  1.0000
  C   C98       1.0  0.43693  0.53439  0.33661  1.0000
  C   C99       1.0  0.42193  0.00465  0.33430  1.0000
  C   C100      1.0  0.38842  0.00435  0.33356  1.0000
  C   C101      1.0  0.37136  0.50851  0.41375  1.0000
  C   C102      1.0  0.33834  0.50891  0.41294  1.0000
  C   C103      1.0  0.32122  0.00488  0.33230  1.0000
  C   C104      1.0  0.00758  0.63789  0.41808  1.0000
  C   C105      1.0  0.00794  0.67091  0.41571  1.0000
  C   C106      1.0  0.50413  0.68755  0.33416  1.0000
  C   C107      1.0  0.12052  0.00508  0.33794  1.0000
  C   C108      1.0  0.18779  0.00536  0.33273  1.0000
  C   C109      1.0  0.17128  0.99328  0.40761  1.0000
  C   C110      1.0  0.13828  0.99357  0.41085  1.0000
  C   C111      1.0  0.50473  0.88830  0.33011  1.0000
  C   C112      1.0  0.49301  0.87095  0.40355  1.0000
  C   C113      1.0  0.49232  0.83795  0.40140  1.0000
  C   C114      1.0  0.50411  0.82099  0.32699  1.0000
  H   H61       1.0  0.48280  0.82638  0.45495  1.0000
  H   H62       1.0  0.48442  0.88229  0.45880  1.0000
  H   H63       1.0  0.39991  0.94170  0.31895  1.0000
  H   H64       1.0  0.48496  0.98492  0.34336  1.0000
  H   H65       1.0  0.02375  0.52405  0.32969  1.0000
  H   H66       1.0  0.06852  0.89915  0.33473  1.0000
  H   H67       1.0  0.11020  0.94119  0.33330  1.0000
  H   H68       1.0  0.12724  0.98462  0.46612  1.0000
  H   H69       1.0  0.18319  0.98369  0.46045  1.0000
  H   H70       1.0  0.10846  0.56767  0.35760  1.0000
  H   H71       1.0  0.01023  0.62667  0.47825  1.0000
  H   H72       1.0  0.01069  0.68266  0.47493  1.0000
  H   H73       1.0  0.32695  0.51192  0.47264  1.0000
  H   H74       1.0  0.38289  0.51144  0.47332  1.0000
  C   C115      1.0  0.51327  0.77031  0.40273  1.0000
  N   N15       1.0  0.51322  0.73852  0.40342  1.0000
  H   H75       1.0  0.52106  0.78159  0.45891  1.0000
  C   C116      1.0  0.23899  0.01434  0.40558  1.0000
  N   N16       1.0  0.27078  0.01416  0.40436  1.0000
  H   H76       1.0  0.22813  0.02213  0.46243  1.0000
  C   C117      1.0  0.93798  0.47537  0.33161  1.0000
  C   C118      1.0  0.53460  0.43732  0.33446  1.0000
  C   C119      1.0  0.00360  0.08688  0.33998  1.0000
  C   C120      1.0  0.97397  0.07169  0.33784  1.0000
  C   C121      1.0  0.92195  0.06353  0.33636  1.0000
  C   C122      1.0  0.94475  0.08649  0.33715  1.0000
  C   C123      1.0  0.83866  0.50057  0.25232  1.0000
  C   C124      1.0  0.87169  0.50052  0.25269  1.0000
  C   C125      1.0  0.00377  0.12038  0.33853  1.0000
  C   C126      1.0  0.00009  0.16966  0.25490  1.0000
  C   C127      1.0  0.00008  0.13665  0.25685  1.0000
  C   C128      1.0  0.63683  0.01737  0.26331  1.0000
  C   C129      1.0  0.66982  0.01813  0.26177  1.0000
  C   C130      1.0  0.51631  0.37156  0.25535  1.0000
  C   C131      1.0  0.51670  0.33854  0.25490  1.0000
  H   H77       1.0  0.52659  0.32745  0.20119  1.0000
  H   H78       1.0  0.52524  0.38335  0.20136  1.0000
  H   H79       1.0  0.94187  0.39994  0.31529  1.0000
  H   H80       1.0  0.62472  0.02629  0.20984  1.0000
  H   H81       1.0  0.68060  0.02824  0.20785  1.0000
  H   H82       1.0  0.56641  0.10933  0.35552  1.0000
  H   H83       1.0  0.89837  0.06780  0.33498  1.0000
  H   H84       1.0  0.94035  0.11005  0.33760  1.0000
  H   H85       1.0  0.99729  0.12456  0.19813  1.0000
  H   H86       1.0  0.99741  0.18045  0.19417  1.0000
  H   H87       1.0  0.88346  0.49764  0.19349  1.0000
  H   H88       1.0  0.82751  0.49778  0.19216  1.0000
  C   C132      1.0  0.49377  0.26884  0.25167  1.0000
  C   C133      1.0  0.00365  0.28733  0.32597  1.0000
  C   C134      1.0  0.00414  0.22106  0.33181  1.0000
  N   N17       1.0  0.49475  0.23704  0.25772  1.0000
  C   C135      1.0  0.48214  0.28150  0.16546  1.0000
  C   C136      1.0  0.95029  0.26947  0.13082  1.0000
  C   C137      1.0  0.95329  0.30321  0.16468  1.0000
  H   H89       1.0  0.49921  0.28548  0.11210  1.0000
  H   H90       1.0  0.95310  0.32128  0.11291  1.0000
  H   H91       1.0  0.94189  0.30786  0.22883  1.0000
  H   H92       1.0  0.93675  0.25399  0.17440  1.0000
  H   H93       1.0  0.44796  0.26715  0.05829  1.0000
  C   C138      1.0  0.73932  0.99487  0.25441  1.0000
  C   C139      1.0  0.72142  0.50482  0.32979  1.0000
  C   C140      1.0  0.78770  0.50503  0.33174  1.0000
  N   N18       1.0  0.77117  0.99572  0.25857  1.0000
  C   C141      1.0  0.72597  0.98330  0.16898  1.0000
  C   C142      1.0  0.73756  0.45138  0.13363  1.0000
  C   C143      1.0  0.70410  0.45456  0.16956  1.0000
  H   H94       1.0  0.72166  0.00038  0.11589  1.0000
  H   H95       1.0  0.68564  0.45448  0.11891  1.0000
  H   H96       1.0  0.69987  0.44319  0.23397  1.0000
  H   H97       1.0  0.75329  0.43776  0.17627  1.0000
  H   H98       1.0  0.73932  0.94903  0.06099  1.0000
  C   C144      1.0  0.94634  0.42335  0.32219  1.0000
  C   C145      1.0  0.92339  0.44616  0.32397  1.0000
  N   N19       1.0  0.96918  0.46908  0.33549  1.0000
  C   C146      1.0  0.97558  0.43793  0.33051  1.0000
  C   C147      1.0  0.00497  0.42195  0.33198  1.0000
  N   N20       1.0  0.54061  0.46850  0.33616  1.0000
  C   C148      1.0  0.57175  0.47476  0.33666  1.0000
  C   C149      1.0  0.58666  0.44561  0.33425  1.0000
  C   C150      1.0  0.56389  0.42265  0.33515  1.0000
  C   C151      1.0  0.58688  0.50451  0.33926  1.0000
  C   C152      1.0  0.57067  0.03374  0.34247  1.0000
  N   N21       1.0  0.53946  0.03989  0.33865  1.0000
  C   C153      1.0  0.53298  0.07104  0.34277  1.0000
  C   C154      1.0  0.56209  0.08583  0.35027  1.0000
  C   C155      1.0  0.58506  0.06305  0.35130  1.0000
  N   N22       1.0  0.96803  0.04054  0.33757  1.0000
  C   C156      1.0  0.93693  0.03439  0.33661  1.0000
  C   C157      1.0  0.92193  0.50465  0.33430  1.0000
  C   C158      1.0  0.88842  0.50435  0.33356  1.0000
  C   C159      1.0  0.87136  0.00851  0.41375  1.0000
  C   C160      1.0  0.83834  0.00891  0.41294  1.0000
  C   C161      1.0  0.82122  0.50488  0.33230  1.0000
  C   C162      1.0  0.50757  0.13789  0.41808  1.0000
  C   C163      1.0  0.50794  0.17091  0.41571  1.0000
  C   C164      1.0  0.00413  0.18755  0.33416  1.0000
  C   C165      1.0  0.62052  0.50508  0.33794  1.0000
  C   C166      1.0  0.68778  0.50535  0.33273  1.0000
  C   C167      1.0  0.67128  0.49328  0.40761  1.0000
  C   C168      1.0  0.63828  0.49357  0.41085  1.0000
  C   C169      1.0  0.00473  0.38830  0.33011  1.0000
  C   C170      1.0  0.99301  0.37095  0.40355  1.0000
  C   C171      1.0  0.99232  0.33795  0.40140  1.0000
  C   C172      1.0  0.00411  0.32099  0.32699  1.0000
  H   H99       1.0  0.98280  0.32638  0.45495  1.0000
  H   H100      1.0  0.98442  0.38229  0.45880  1.0000
  H   H101      1.0  0.89991  0.44170  0.31895  1.0000
  H   H102      1.0  0.98496  0.48492  0.34336  1.0000
  H   H103      1.0  0.52375  0.02405  0.32969  1.0000
  H   H104      1.0  0.56852  0.39915  0.33473  1.0000
  H   H105      1.0  0.61020  0.44119  0.33330  1.0000
  H   H106      1.0  0.62724  0.48462  0.46612  1.0000
  H   H107      1.0  0.68319  0.48368  0.46045  1.0000
  H   H108      1.0  0.60846  0.06767  0.35760  1.0000
  H   H109      1.0  0.51023  0.12668  0.47825  1.0000
  H   H110      1.0  0.51069  0.18266  0.47493  1.0000
  H   H111      1.0  0.82695  0.01191  0.47264  1.0000
  H   H112      1.0  0.88290  0.01144  0.47332  1.0000
  C   C173      1.0  0.01327  0.27032  0.40273  1.0000
  N   N23       1.0  0.01322  0.23852  0.40342  1.0000
  H   H113      1.0  0.02106  0.28159  0.45891  1.0000
  C   C174      1.0  0.73899  0.51434  0.40558  1.0000
  N   N24       1.0  0.77078  0.51416  0.40436  1.0000
  H   H114      1.0  0.72813  0.52213  0.46243  1.0000
  C   C175      1.0  0.93798  0.97537  0.33161  1.0000
  C   C176      1.0  0.53460  0.93732  0.33446  1.0000
  C   C177      1.0  0.00360  0.58688  0.33998  1.0000
  C   C178      1.0  0.97397  0.57168  0.33784  1.0000
  C   C179      1.0  0.92195  0.56353  0.33636  1.0000
  C   C180      1.0  0.94475  0.58649  0.33715  1.0000
  C   C181      1.0  0.83866  0.00057  0.25232  1.0000
  C   C182      1.0  0.87169  0.00052  0.25269  1.0000
  C   C183      1.0  0.00377  0.62038  0.33853  1.0000
  C   C184      1.0  0.00009  0.66966  0.25490  1.0000
  C   C185      1.0  0.00008  0.63666  0.25685  1.0000
  C   C186      1.0  0.63683  0.51737  0.26331  1.0000
  C   C187      1.0  0.66982  0.51813  0.26177  1.0000
  C   C188      1.0  0.51631  0.87156  0.25535  1.0000
  C   C189      1.0  0.51670  0.83854  0.25490  1.0000
  H   H115      1.0  0.52659  0.82744  0.20119  1.0000
  H   H116      1.0  0.52524  0.88335  0.20136  1.0000
  H   H117      1.0  0.94187  0.89994  0.31529  1.0000
  H   H118      1.0  0.62472  0.52629  0.20984  1.0000
  H   H119      1.0  0.68060  0.52824  0.20785  1.0000
  H   H120      1.0  0.56641  0.60933  0.35552  1.0000
  H   H121      1.0  0.89837  0.56780  0.33498  1.0000
  H   H122      1.0  0.94035  0.61005  0.33760  1.0000
  H   H123      1.0  0.99729  0.62456  0.19813  1.0000
  H   H124      1.0  0.99741  0.68045  0.19417  1.0000
  H   H125      1.0  0.88346  0.99764  0.19349  1.0000
  H   H126      1.0  0.82751  0.99778  0.19216  1.0000
  C   C190      1.0  0.49377  0.76884  0.25167  1.0000
  C   C191      1.0  0.00365  0.78733  0.32597  1.0000
  C   C192      1.0  0.00414  0.72106  0.33181  1.0000
  N   N25       1.0  0.49475  0.73704  0.25772  1.0000
  C   C193      1.0  0.48214  0.78150  0.16546  1.0000
  C   C194      1.0  0.95029  0.76947  0.13082  1.0000
  C   C195      1.0  0.95329  0.80321  0.16468  1.0000
  H   H127      1.0  0.49921  0.78548  0.11210  1.0000
  H   H128      1.0  0.95310  0.82128  0.11291  1.0000
  H   H129      1.0  0.94189  0.80786  0.22883  1.0000
  H   H130      1.0  0.93675  0.75399  0.17440  1.0000
  H   H131      1.0  0.44796  0.76715  0.05829  1.0000
  C   C196      1.0  0.73932  0.49486  0.25441  1.0000
  C   C197      1.0  0.72142  0.00482  0.32979  1.0000
  C   C198      1.0  0.78770  0.00503  0.33174  1.0000
  N   N26       1.0  0.77117  0.49572  0.25857  1.0000
  C   C199      1.0  0.72597  0.48330  0.16898  1.0000
  C   C200      1.0  0.73756  0.95138  0.13363  1.0000
  C   C201      1.0  0.70410  0.95456  0.16956  1.0000
  H   H132      1.0  0.72166  0.50038  0.11589  1.0000
  H   H133      1.0  0.68564  0.95447  0.11891  1.0000
  H   H134      1.0  0.69987  0.94319  0.23397  1.0000
  H   H135      1.0  0.75329  0.93776  0.17627  1.0000
  H   H136      1.0  0.73932  0.44904  0.06099  1.0000
  C   C202      1.0  0.94634  0.92335  0.32219  1.0000
  C   C203      1.0  0.92339  0.94616  0.32397  1.0000
  N   N27       1.0  0.96918  0.96908  0.33549  1.0000
  C   C204      1.0  0.97558  0.93793  0.33051  1.0000
  C   C205      1.0  0.00497  0.92195  0.33198  1.0000
  N   N28       1.0  0.54061  0.96850  0.33616  1.0000
  C   C206      1.0  0.57175  0.97477  0.33666  1.0000
  C   C207      1.0  0.58666  0.94561  0.33425  1.0000
  C   C208      1.0  0.56389  0.92265  0.33515  1.0000
  C   C209      1.0  0.58688  0.00451  0.33926  1.0000
  C   C210      1.0  0.57067  0.53374  0.34247  1.0000
  N   N29       1.0  0.53946  0.53989  0.33865  1.0000
  C   C211      1.0  0.53298  0.57103  0.34277  1.0000
  C   C212      1.0  0.56209  0.58583  0.35027  1.0000
  C   C213      1.0  0.58506  0.56305  0.35130  1.0000
  N   N30       1.0  0.96803  0.54053  0.33757  1.0000
  C   C214      1.0  0.93693  0.53439  0.33661  1.0000
  C   C215      1.0  0.92193  0.00465  0.33430  1.0000
  C   C216      1.0  0.88842  0.00435  0.33356  1.0000
  C   C217      1.0  0.87136  0.50851  0.41375  1.0000
  C   C218      1.0  0.83834  0.50891  0.41294  1.0000
  C   C219      1.0  0.82122  0.00488  0.33230  1.0000
  C   C220      1.0  0.50757  0.63789  0.41808  1.0000
  C   C221      1.0  0.50794  0.67091  0.41571  1.0000
  C   C222      1.0  0.00413  0.68755  0.33416  1.0000
  C   C223      1.0  0.62052  0.00508  0.33794  1.0000
  C   C224      1.0  0.68778  0.00536  0.33273  1.0000
  C   C225      1.0  0.67128  0.99328  0.40761  1.0000
  C   C226      1.0  0.63828  0.99357  0.41085  1.0000
  C   C227      1.0  0.00473  0.88830  0.33011  1.0000
  C   C228      1.0  0.99301  0.87095  0.40355  1.0000
  C   C229      1.0  0.99232  0.83795  0.40140  1.0000
  C   C230      1.0  0.00411  0.82099  0.32699  1.0000
  H   H137      1.0  0.98280  0.82638  0.45495  1.0000
  H   H138      1.0  0.98442  0.88229  0.45880  1.0000
  H   H139      1.0  0.89991  0.94170  0.31895  1.0000
  H   H140      1.0  0.98496  0.98492  0.34336  1.0000
  H   H141      1.0  0.52375  0.52405  0.32969  1.0000
  H   H142      1.0  0.56852  0.89915  0.33473  1.0000
  H   H143      1.0  0.61020  0.94119  0.33330  1.0000
  H   H144      1.0  0.62724  0.98462  0.46612  1.0000
  H   H145      1.0  0.68319  0.98369  0.46045  1.0000
  H   H146      1.0  0.60846  0.56767  0.35760  1.0000
  H   H147      1.0  0.51023  0.62667  0.47825  1.0000
  H   H148      1.0  0.51069  0.68266  0.47493  1.0000
  H   H149      1.0  0.82695  0.51192  0.47264  1.0000
  H   H150      1.0  0.88290  0.51144  0.47332  1.0000
  C   C231      1.0  0.01327  0.77031  0.40273  1.0000
  N   N31       1.0  0.01322  0.73852  0.40342  1.0000
  H   H151      1.0  0.02106  0.78159  0.45891  1.0000
  C   C232      1.0  0.73899  0.01434  0.40558  1.0000
  N   N32       1.0  0.77078  0.01416  0.40436  1.0000
  H   H152      1.0  0.72813  0.02213  0.46243  1.0000
