data_image0
_chemical_formula_structural       C3HCH3C6H6C3H2CHCH3NC12H4CHC3HC3H3C3HCHC4HCH3CHC2H2CH3C2H2NC18H12C3H2CH2C2HC4HCH3
_chemical_formula_sum              "C78 H60 N2"
_cell_length_a       32.3373
_cell_length_b       32.3373
_cell_length_c       14.5258
_cell_angle_alpha    90
_cell_angle_beta     90
_cell_angle_gamma    120

_space_group_name_H-M_alt    "P 1"
_space_group_IT_number       1

loop_
  _space_group_symop_operation_xyz
  'x, y, z'

loop_
  _atom_site_type_symbol
  _atom_site_label
  _atom_site_symmetry_multiplicity
  _atom_site_fract_x
  _atom_site_fract_y
  _atom_site_fract_z
  _atom_site_occupancy
  C   C1        1.0  0.15296  0.58228  0.35682  1.0000
  C   C2        1.0  0.12734  0.60637  0.37474  1.0000
  C   C3        1.0  0.07667  0.58243  0.37535  1.0000
  H   H1        1.0  0.14612  0.64245  0.38600  1.0000
  C   C4        1.0  0.05196  0.61007  0.39269  1.0000
  H   H2        1.0  0.07684  0.64802  0.40399  1.0000
  H   H3        1.0  0.02935  0.59625  0.45359  1.0000
  H   H4        1.0  0.02970  0.60690  0.33363  1.0000
  C   C5        1.0  0.30682  0.65775  0.35650  1.0000
  C   C6        1.0  0.28065  0.62701  0.28327  1.0000
  C   C7        1.0  0.23027  0.60179  0.28392  1.0000
  C   C8        1.0  0.20424  0.60724  0.35680  1.0000
  C   C9        1.0  0.23078  0.63844  0.42969  1.0000
  C   C10       1.0  0.28114  0.66285  0.43001  1.0000
  H   H5        1.0  0.35605  0.62257  0.48413  1.0000
  H   H6        1.0  0.29831  0.62270  0.22903  1.0000
  H   H7        1.0  0.21267  0.58017  0.22917  1.0000
  H   H8        1.0  0.35704  0.74249  0.22903  1.0000
  H   H9        1.0  0.29916  0.68477  0.48411  1.0000
  H   H10       1.0  0.21355  0.64299  0.48448  1.0000
  C   C11       1.0  0.05042  0.53229  0.35896  1.0000
  C   C12       1.0  0.07581  0.50811  0.34061  1.0000
  C   C13       1.0  0.12609  0.53270  0.33896  1.0000
  H   H11       1.0  0.14302  0.51364  0.32684  1.0000
  H   H12       1.0  0.05777  0.47205  0.32877  1.0000
  C   C14       1.0  0.43444  0.52914  0.37482  1.0000
  H   H13       1.0  0.39837  0.51184  0.38611  1.0000
  C   C15       1.0  0.43075  0.45006  0.39284  1.0000
  H   H14       1.0  0.39281  0.43700  0.40419  1.0000
  H   H15       1.0  0.44459  0.44130  0.45374  1.0000
  H   H16       1.0  0.43391  0.43096  0.33379  1.0000
  N   N1        1.0  0.35782  0.68299  0.35624  1.0000
  C   C16       1.0  0.38305  0.65723  0.35650  1.0000
  C   C17       1.0  0.38358  0.73398  0.35650  1.0000
  C   C18       1.0  0.41379  0.66179  0.28327  1.0000
  C   C19       1.0  0.43900  0.63662  0.28391  1.0000
  C   C20       1.0  0.43356  0.60515  0.35682  1.0000
  C   C21       1.0  0.40238  0.60052  0.42972  1.0000
  C   C22       1.0  0.37796  0.62646  0.43003  1.0000
  C   C23       1.0  0.41436  0.75966  0.43002  1.0000
  C   C24       1.0  0.44031  0.81002  0.42969  1.0000
  C   C25       1.0  0.43566  0.83657  0.35681  1.0000
  C   C26       1.0  0.40420  0.81054  0.28390  1.0000
  C   C27       1.0  0.37901  0.76016  0.28328  1.0000
  H   H17       1.0  0.41808  0.68375  0.22901  1.0000
  H   H18       1.0  0.39783  0.57874  0.48451  1.0000
  H   H19       1.0  0.41826  0.74165  0.48411  1.0000
  H   H20       1.0  0.40015  0.82814  0.22918  1.0000
  C   C28       1.0  0.43925  0.91472  0.33903  1.0000
  H   H21       1.0  0.40327  0.89778  0.32683  1.0000
  C   C29       1.0  0.45853  0.57884  0.35684  1.0000
  C   C30       1.0  0.45839  0.50241  0.37544  1.0000
  C   C31       1.0  0.54010  0.48109  0.27984  1.0000
  H   H22       1.0  0.52435  0.48316  0.22018  1.0000
  C   C32       1.0  0.46197  0.88784  0.35683  1.0000
  C   C33       1.0  0.51168  0.91346  0.37474  1.0000
  C   C34       1.0  0.53840  0.96414  0.37538  1.0000
  H   H23       1.0  0.52898  0.89468  0.38602  1.0000
  H   H24       1.0  0.46061  0.64063  0.22915  1.0000
  H   H25       1.0  0.46208  0.82725  0.48449  1.0000
  C   C35       1.0  0.50852  0.52630  0.35898  1.0000
  C   C36       1.0  0.53270  0.57587  0.34058  1.0000
  C   C37       1.0  0.50811  0.60156  0.33896  1.0000
  H   H26       1.0  0.52716  0.63753  0.32675  1.0000
  C   C38       1.0  0.53552  0.50220  0.36152  1.0000
  H   H27       1.0  0.51687  0.50479  0.55130  1.0000
  C   C39       1.0  0.51452  0.99038  0.35897  1.0000
  C   C40       1.0  0.46494  0.96499  0.34062  1.0000
  C   C41       1.0  0.53862  0.04149  0.36151  1.0000
  C   C42       1.0  0.54256  0.06746  0.44334  1.0000
  H   H28       1.0  0.44693  0.98303  0.32877  1.0000
  C   C43       1.0  0.52095  0.04245  0.53150  1.0000
  H   H29       1.0  0.53607  0.02023  0.55128  1.0000
  H   H30       1.0  0.48242  0.01979  0.52324  1.0000
  H   H31       1.0  0.52719  0.06714  0.58809  1.0000
  C   C44       1.0  0.56561  0.45632  0.27879  1.0000
  H   H32       1.0  0.56686  0.44069  0.21842  1.0000
  C   C45       1.0  0.55971  0.06717  0.27982  1.0000
  C   C46       1.0  0.58449  0.11745  0.27878  1.0000
  H   H33       1.0  0.55761  0.04935  0.22013  1.0000
  H   H34       1.0  0.60007  0.13434  0.21839  1.0000
  C   C47       1.0  0.59076  0.98885  0.39272  1.0000
  H   H35       1.0  0.60382  0.96396  0.40402  1.0000
  H   H36       1.0  0.59954  0.01145  0.45363  1.0000
  H   H37       1.0  0.60985  0.01111  0.33366  1.0000
  C   C48       1.0  0.97363  0.50068  0.27980  1.0000
  C   C49       1.0  0.92335  0.47517  0.27876  1.0000
  H   H38       1.0  0.99145  0.51643  0.22013  1.0000
  H   H39       1.0  0.90646  0.47391  0.21839  1.0000
  N   N2        1.0  0.69115  0.34965  0.35599  1.0000
  C   C50       1.0  0.66539  0.37483  0.35660  1.0000
  C   C51       1.0  0.66597  0.29872  0.35661  1.0000
  C   C52       1.0  0.74208  0.37542  0.35660  1.0000
  C   C53       1.0  0.76762  0.40416  0.43242  1.0000
  C   C54       1.0  0.81799  0.42961  0.43296  1.0000
  C   C55       1.0  0.84493  0.42718  0.35811  1.0000
  C   C56       1.0  0.81874  0.39808  0.28239  1.0000
  C   C57       1.0  0.76836  0.37281  0.28149  1.0000
  C   C58       1.0  0.63666  0.37164  0.43243  1.0000
  C   C59       1.0  0.61120  0.39654  0.43296  1.0000
  C   C60       1.0  0.61363  0.42591  0.35812  1.0000
  C   C61       1.0  0.64271  0.42881  0.28238  1.0000
  C   C62       1.0  0.66798  0.40370  0.28148  1.0000
  C   C63       1.0  0.63709  0.27244  0.28149  1.0000
  C   C64       1.0  0.61199  0.22206  0.28240  1.0000
  C   C65       1.0  0.61490  0.19587  0.35812  1.0000
  C   C66       1.0  0.64428  0.22282  0.43295  1.0000
  C   C67       1.0  0.66918  0.27318  0.43242  1.0000
  H   H40       1.0  0.59005  0.39226  0.48866  1.0000
  H   H41       1.0  0.63399  0.35085  0.48772  1.0000
  H   H42       1.0  0.68867  0.40681  0.22573  1.0000
  H   H43       1.0  0.64658  0.45011  0.22721  1.0000
  H   H44       1.0  0.74950  0.40685  0.48769  1.0000
  H   H45       1.0  0.83485  0.45078  0.48862  1.0000
  H   H46       1.0  0.63396  0.29002  0.22577  1.0000
  H   H47       1.0  0.59067  0.20463  0.22725  1.0000
  H   H48       1.0  0.64858  0.20596  0.48863  1.0000
  H   H49       1.0  0.68998  0.29130  0.48770  1.0000
  H   H50       1.0  0.75078  0.35210  0.22575  1.0000
  H   H51       1.0  0.83617  0.39420  0.22723  1.0000
  C   C68       1.0  0.58776  0.45160  0.35909  1.0000
  C   C69       1.0  0.58323  0.47324  0.44051  1.0000
  C   C70       1.0  0.55759  0.49828  0.44333  1.0000
  H   H52       1.0  0.59973  0.47143  0.49922  1.0000
  H   H53       1.0  0.56875  0.59388  0.32869  1.0000
  C   C71       1.0  0.55421  0.51992  0.53148  1.0000
  H   H54       1.0  0.57006  0.55844  0.52318  1.0000
  H   H55       1.0  0.57269  0.51370  0.58807  1.0000
  C   C72       1.0  0.58921  0.14432  0.35909  1.0000
  C   C73       1.0  0.56761  0.11814  0.44052  1.0000
  H   H56       1.0  0.56942  0.13645  0.49924  1.0000
  C   C74       1.0  0.99932  0.50530  0.36150  1.0000
  C   C75       1.0  0.89648  0.45304  0.35907  1.0000
  C   C76       1.0  0.92266  0.45762  0.44051  1.0000
  C   C77       1.0  0.97334  0.48325  0.44332  1.0000
  H   H57       1.0  0.90435  0.44112  0.49923  1.0000
  C   C78       1.0  0.99835  0.48665  0.53149  1.0000
  H   H58       1.0  0.02058  0.52400  0.55126  1.0000
  H   H59       1.0  0.02103  0.47080  0.52322  1.0000
  H   H60       1.0  0.97366  0.46820  0.58808  1.0000
