data_image0
_chemical_formula_structural       C3HNO2C3HNO2C3HNO2C3HNO2C3HNO2C3HNO2C3HNO2C3HNO2C3HNO2C3HNO2C3HNO2C3HNO2C3HNO2C3HNO2C3HNO2C3HNO2C3HNO2C3HNO2CNCNCNCNCNCNCNCNCNCNCNCNCNCNCNCNCNCNCNCNCNCNCNCNCNCNCNCNCNCNCNCNCNCNCNCNC3HNO2C3HNO2C3HNO2C3HNO2C3HNO2C3HNO2C3HNO2C3HNO2C3HNO2C3HNO2C3HNO2C3HNO2C3HNO2C3HNO2C3HNO2C3HNO2C3HNO2C3HNO2
_chemical_formula_sum              "C144 H36 N72 O72"
_cell_length_a       33.9534
_cell_length_b       33.7934
_cell_length_c       14.8082
_cell_angle_alpha    90
_cell_angle_beta     90
_cell_angle_gamma    90.2779

_space_group_name_H-M_alt    "P 1"
_space_group_IT_number       1

loop_
  _space_group_symop_operation_xyz
  'x, y, z'

loop_
  _atom_site_type_symbol
  _atom_site_label
  _atom_site_symmetry_multiplicity
  _atom_site_fract_x
  _atom_site_fract_y
  _atom_site_fract_z
  _atom_site_occupancy
  C   C1        1.0  0.97393  0.53471  0.34470  1.0000
  C   C2        1.0  0.98942  0.51978  0.26262  1.0000
  C   C3        1.0  0.01918  0.49040  0.26461  1.0000
  H   H1        1.0  0.03000  0.47985  0.20488  1.0000
  N   N1        1.0  0.97466  0.53459  0.17997  1.0000
  O   O1        1.0  0.95928  0.50748  0.13370  1.0000
  O   O2        1.0  0.00149  0.55074  0.13447  1.0000
  C   C4        1.0  0.47398  0.97322  0.34466  1.0000
  C   C5        1.0  0.48940  0.98835  0.26256  1.0000
  C   C6        1.0  0.51926  0.01789  0.26458  1.0000
  H   H2        1.0  0.53007  0.02858  0.20487  1.0000
  N   N2        1.0  0.47453  0.97350  0.17991  1.0000
  O   O3        1.0  0.50130  0.95760  0.13421  1.0000
  O   O4        1.0  0.45916  0.00053  0.13385  1.0000
  C   C7        1.0  0.07105  0.33731  0.34431  1.0000
  C   C8        1.0  0.06601  0.31614  0.26244  1.0000
  C   C9        1.0  0.05730  0.27505  0.26503  1.0000
  H   H3        1.0  0.05384  0.26005  0.20555  1.0000
  N   N3        1.0  0.07005  0.33653  0.17948  1.0000
  O   O5        1.0  0.03877  0.33485  0.13436  1.0000
  O   O6        1.0  0.09756  0.32241  0.13307  1.0000
  C   C10       1.0  0.93650  0.67270  0.34508  1.0000
  C   C11       1.0  0.94225  0.69359  0.26307  1.0000
  C   C12       1.0  0.95128  0.73462  0.26531  1.0000
  H   H4        1.0  0.95519  0.74942  0.20572  1.0000
  N   N4        1.0  0.93850  0.67299  0.18031  1.0000
  O   O7        1.0  0.97005  0.67425  0.13611  1.0000
  O   O8        1.0  0.91138  0.68723  0.13286  1.0000
  C   C13       1.0  0.67200  0.07092  0.34398  1.0000
  C   C14       1.0  0.69320  0.06641  0.26216  1.0000
  C   C15       1.0  0.73405  0.05781  0.26484  1.0000
  H   H5        1.0  0.74906  0.05476  0.20538  1.0000
  N   N5        1.0  0.67304  0.07074  0.17916  1.0000
  O   O9        1.0  0.67456  0.03948  0.13344  1.0000
  O   O10       1.0  0.68733  0.09860  0.13338  1.0000
  C   C16       1.0  0.33606  0.93626  0.34516  1.0000
  C   C17       1.0  0.31550  0.94289  0.26326  1.0000
  C   C18       1.0  0.27484  0.95241  0.26554  1.0000
  H   H6        1.0  0.26027  0.95685  0.20598  1.0000
  N   N6        1.0  0.33603  0.93939  0.18051  1.0000
  O   O11       1.0  0.33549  0.97135  0.13730  1.0000
  O   O12       1.0  0.32135  0.91258  0.13213  1.0000
  C   C19       1.0  0.45440  0.75284  0.34477  1.0000
  C   C20       1.0  0.44839  0.77369  0.26289  1.0000
  C   C21       1.0  0.43909  0.81457  0.26540  1.0000
  H   H7        1.0  0.43469  0.82927  0.20592  1.0000
  N   N7        1.0  0.45181  0.75310  0.18007  1.0000
  O   O13       1.0  0.42008  0.75393  0.13656  1.0000
  O   O14       1.0  0.47870  0.76763  0.13201  1.0000
  C   C22       1.0  0.55361  0.25360  0.34401  1.0000
  C   C23       1.0  0.55949  0.23286  0.26194  1.0000
  C   C24       1.0  0.56858  0.19193  0.26405  1.0000
  H   H8        1.0  0.57298  0.17732  0.20445  1.0000
  N   N8        1.0  0.55612  0.25359  0.17930  1.0000
  O   O15       1.0  0.58780  0.25261  0.13560  1.0000
  O   O16       1.0  0.52909  0.23928  0.13129  1.0000
  C   C25       1.0  0.75373  0.55398  0.34471  1.0000
  C   C26       1.0  0.77470  0.55941  0.26281  1.0000
  C   C27       1.0  0.81559  0.56829  0.26528  1.0000
  H   H9        1.0  0.83033  0.57242  0.20578  1.0000
  N   N9        1.0  0.75419  0.55595  0.17998  1.0000
  O   O17       1.0  0.75572  0.58769  0.13596  1.0000
  O   O18       1.0  0.76812  0.52863  0.13240  1.0000
  C   C28       1.0  0.25452  0.45333  0.34415  1.0000
  C   C29       1.0  0.23352  0.44866  0.26207  1.0000
  C   C30       1.0  0.19246  0.44066  0.26423  1.0000
  H   H10       1.0  0.17770  0.43696  0.20460  1.0000
  N   N10       1.0  0.25416  0.45199  0.17938  1.0000
  O   O19       1.0  0.25193  0.42050  0.13463  1.0000
  O   O20       1.0  0.24088  0.47985  0.13240  1.0000
  C   C31       1.0  0.09769  0.11802  0.34600  1.0000
  C   C32       1.0  0.11012  0.10055  0.26388  1.0000
  C   C33       1.0  0.13403  0.06630  0.26613  1.0000
  H   H11       1.0  0.14131  0.05288  0.20655  1.0000
  N   N11       1.0  0.09687  0.11667  0.18111  1.0000
  O   O21       1.0  0.12537  0.12738  0.13277  1.0000
  O   O22       1.0  0.07640  0.09211  0.13781  1.0000
  C   C34       1.0  0.91102  0.89196  0.34617  1.0000
  C   C35       1.0  0.89861  0.90953  0.26412  1.0000
  C   C36       1.0  0.87477  0.94382  0.26653  1.0000
  H   H12       1.0  0.86750  0.95730  0.20701  1.0000
  N   N12       1.0  0.91183  0.89348  0.18124  1.0000
  O   O23       1.0  0.88332  0.88294  0.13274  1.0000
  O   O24       1.0  0.93240  0.91805  0.13817  1.0000
  C   C37       1.0  0.89056  0.09854  0.34620  1.0000
  C   C38       1.0  0.90853  0.11039  0.26409  1.0000
  C   C39       1.0  0.94332  0.13370  0.26636  1.0000
  H   H13       1.0  0.95701  0.14060  0.20683  1.0000
  N   N13       1.0  0.89229  0.09718  0.18130  1.0000
  O   O25       1.0  0.88259  0.12588  0.13243  1.0000
  O   O26       1.0  0.91622  0.07600  0.13858  1.0000
  C   C40       1.0  0.11768  0.91170  0.34583  1.0000
  C   C41       1.0  0.09979  0.89984  0.26364  1.0000
  C   C42       1.0  0.06512  0.87635  0.26584  1.0000
  H   H14       1.0  0.05148  0.86939  0.20629  1.0000
  N   N14       1.0  0.11598  0.91319  0.18090  1.0000
  O   O27       1.0  0.12580  0.88458  0.13188  1.0000
  O   O28       1.0  0.09195  0.93431  0.13831  1.0000
  C   C43       1.0  0.36430  0.54576  0.34389  1.0000
  C   C44       1.0  0.37675  0.56333  0.26174  1.0000
  C   C45       1.0  0.39984  0.59835  0.26403  1.0000
  H   H15       1.0  0.41009  0.60986  0.20456  1.0000
  N   N15       1.0  0.36724  0.54456  0.17905  1.0000
  O   O29       1.0  0.34743  0.56701  0.12926  1.0000
  O   O30       1.0  0.39771  0.53426  0.13729  1.0000
  C   C46       1.0  0.64443  0.46055  0.34397  1.0000
  C   C47       1.0  0.63199  0.44296  0.26183  1.0000
  C   C48       1.0  0.60882  0.40798  0.26407  1.0000
  H   H16       1.0  0.59856  0.39650  0.20459  1.0000
  N   N16       1.0  0.64160  0.46168  0.17914  1.0000
  O   O31       1.0  0.66139  0.43917  0.12947  1.0000
  O   O32       1.0  0.61117  0.47202  0.13724  1.0000
  C   C49       1.0  0.54775  0.64418  0.34413  1.0000
  C   C50       1.0  0.56538  0.63197  0.26204  1.0000
  C   C51       1.0  0.60026  0.60912  0.26430  1.0000
  H   H17       1.0  0.61179  0.59906  0.20480  1.0000
  N   N17       1.0  0.54675  0.64141  0.17932  1.0000
  O   O33       1.0  0.56912  0.66158  0.12970  1.0000
  O   O34       1.0  0.53655  0.61071  0.13739  1.0000
  C   C52       1.0  0.46056  0.36241  0.34416  1.0000
  C   C53       1.0  0.44283  0.37441  0.26201  1.0000
  C   C54       1.0  0.40787  0.39714  0.26426  1.0000
  H   H18       1.0  0.39629  0.40713  0.20476  1.0000
  N   N18       1.0  0.46145  0.36493  0.17932  1.0000
  O   O35       1.0  0.43914  0.34458  0.12995  1.0000
  O   O36       1.0  0.47149  0.39560  0.13710  1.0000
  C   C55       1.0  0.13106  0.42751  0.34535  1.0000
  N   N19       1.0  0.10261  0.45580  0.34590  1.0000
  C   C56       1.0  0.06366  0.44581  0.34540  1.0000
  N   N20       1.0  0.05348  0.40676  0.34516  1.0000
  C   C57       1.0  0.08143  0.37800  0.34512  1.0000
  N   N21       1.0  0.12004  0.38878  0.34512  1.0000
  C   C58       1.0  0.87675  0.58220  0.34684  1.0000
  N   N22       1.0  0.90536  0.55408  0.34666  1.0000
  C   C59       1.0  0.94425  0.56425  0.34612  1.0000
  N   N23       1.0  0.95423  0.60334  0.34549  1.0000
  C   C60       1.0  0.92615  0.63198  0.34621  1.0000
  N   N24       1.0  0.88757  0.62100  0.34674  1.0000
  C   C61       1.0  0.58217  0.13045  0.34510  1.0000
  N   N25       1.0  0.55405  0.10160  0.34589  1.0000
  C   C62       1.0  0.56398  0.06259  0.34542  1.0000
  N   N26       1.0  0.60284  0.05271  0.34505  1.0000
  C   C63       1.0  0.63148  0.08106  0.34475  1.0000
  N   N27       1.0  0.62074  0.11978  0.34466  1.0000
  C   C64       1.0  0.42544  0.87590  0.34698  1.0000
  N   N28       1.0  0.45375  0.90456  0.34671  1.0000
  C   C65       1.0  0.44410  0.94362  0.34607  1.0000
  N   N29       1.0  0.40532  0.95377  0.34542  1.0000
  C   C66       1.0  0.37646  0.92564  0.34624  1.0000
  N   N30       1.0  0.38693  0.88684  0.34687  1.0000
  C   C67       1.0  0.99962  0.16047  0.34745  1.0000
  N   N31       1.0  0.00762  0.19995  0.34742  1.0000
  C   C68       1.0  0.04556  0.21330  0.34673  1.0000
  N   N32       1.0  0.07556  0.18662  0.34666  1.0000
  C   C69       1.0  0.06788  0.14707  0.34712  1.0000
  N   N33       1.0  0.02992  0.13450  0.34741  1.0000
  C   C70       1.0  0.00894  0.84934  0.34685  1.0000
  N   N34       1.0  0.00088  0.80986  0.34691  1.0000
  C   C71       1.0  0.96291  0.79657  0.34645  1.0000
  N   N35       1.0  0.93297  0.82330  0.34665  1.0000
  C   C72       1.0  0.94073  0.86284  0.34697  1.0000
  N   N36       1.0  0.97869  0.87535  0.34703  1.0000
  C   C73       1.0  0.84789  0.99997  0.34768  1.0000
  N   N37       1.0  0.80860  0.00770  0.34749  1.0000
  C   C74       1.0  0.79536  0.04573  0.34668  1.0000
  N   N38       1.0  0.82199  0.07608  0.34666  1.0000
  C   C75       1.0  0.86135  0.06864  0.34727  1.0000
  N   N39       1.0  0.87376  0.03061  0.34767  1.0000
  C   C76       1.0  0.16096  0.01005  0.34695  1.0000
  N   N40       1.0  0.20022  0.00202  0.34704  1.0000
  C   C77       1.0  0.21318  0.96387  0.34662  1.0000
  N   N41       1.0  0.18631  0.93375  0.34676  1.0000
  C   C78       1.0  0.14703  0.94148  0.34697  1.0000
  N   N42       1.0  0.13489  0.97959  0.34704  1.0000
  C   C79       1.0  0.50911  0.65954  0.34552  1.0000
  N   N43       1.0  0.50097  0.69894  0.34536  1.0000
  C   C80       1.0  0.46296  0.71180  0.34577  1.0000
  N   N44       1.0  0.43308  0.68472  0.34570  1.0000
  C   C81       1.0  0.44092  0.64529  0.34544  1.0000
  N   N45       1.0  0.47890  0.63321  0.34545  1.0000
  C   C82       1.0  0.49921  0.34705  0.34552  1.0000
  N   N46       1.0  0.50726  0.30764  0.34508  1.0000
  C   C83       1.0  0.54523  0.29468  0.34537  1.0000
  N   N47       1.0  0.57518  0.32170  0.34540  1.0000
  C   C84       1.0  0.56746  0.36117  0.34546  1.0000
  N   N48       1.0  0.52949  0.37332  0.34558  1.0000
  C   C85       1.0  0.66018  0.49933  0.34535  1.0000
  N   N49       1.0  0.69948  0.50745  0.34518  1.0000
  C   C86       1.0  0.71273  0.54561  0.34571  1.0000
  N   N50       1.0  0.68610  0.57569  0.34581  1.0000
  C   C87       1.0  0.64674  0.56789  0.34560  1.0000
  N   N51       1.0  0.63432  0.52973  0.34547  1.0000
  C   C88       1.0  0.34842  0.50707  0.34523  1.0000
  N   N52       1.0  0.30909  0.49923  0.34491  1.0000
  C   C89       1.0  0.29560  0.46118  0.34542  1.0000
  N   N53       1.0  0.32203  0.43090  0.34560  1.0000
  C   C90       1.0  0.36145  0.43845  0.34556  1.0000
  N   N54       1.0  0.37410  0.47653  0.34546  1.0000
  C   C91       1.0  0.03409  0.47547  0.34681  1.0000
  C   C92       1.0  0.01861  0.49042  0.42889  1.0000
  C   C93       1.0  0.98884  0.51978  0.42690  1.0000
  H   H19       1.0  0.97799  0.53031  0.48662  1.0000
  N   N55       1.0  0.03335  0.47561  0.51155  1.0000
  O   O37       1.0  0.00649  0.45953  0.55710  1.0000
  O   O38       1.0  0.04879  0.50271  0.55776  1.0000
  C   C94       1.0  0.53427  0.03282  0.34682  1.0000
  C   C95       1.0  0.51888  0.01766  0.42891  1.0000
  C   C96       1.0  0.48902  0.98811  0.42689  1.0000
  H   H20       1.0  0.47819  0.97743  0.48661  1.0000
  N   N56       1.0  0.53378  0.03245  0.51157  1.0000
  O   O39       1.0  0.54914  0.00537  0.55753  1.0000
  O   O40       1.0  0.50705  0.04835  0.55738  1.0000
  C   C97       1.0  0.05375  0.25447  0.34761  1.0000
  C   C98       1.0  0.05885  0.27561  0.42950  1.0000
  C   C99       1.0  0.06751  0.31671  0.42690  1.0000
  H   H21       1.0  0.07147  0.33160  0.48636  1.0000
  N   N57       1.0  0.05531  0.25507  0.51240  1.0000
  O   O41       1.0  0.08677  0.25682  0.55682  1.0000
  O   O42       1.0  0.02792  0.26898  0.55953  1.0000
  C   C100      1.0  0.95455  0.75541  0.34766  1.0000
  C   C101      1.0  0.94878  0.73455  0.42969  1.0000
  C   C102      1.0  0.93976  0.69352  0.42744  1.0000
  H   H22       1.0  0.93542  0.67882  0.48701  1.0000
  N   N58       1.0  0.95216  0.75527  0.51239  1.0000
  O   O43       1.0  0.92052  0.75391  0.55620  1.0000
  O   O44       1.0  0.97926  0.74126  0.56025  1.0000
  C   C103      1.0  0.75438  0.05371  0.34745  1.0000
  C   C104      1.0  0.73319  0.05817  0.42927  1.0000
  C   C105      1.0  0.69233  0.06678  0.42659  1.0000
  H   H23       1.0  0.67742  0.07025  0.48605  1.0000
  N   N59       1.0  0.75343  0.05407  0.51224  1.0000
  O   O45       1.0  0.73933  0.02615  0.55814  1.0000
  O   O46       1.0  0.75179  0.08534  0.55788  1.0000
  C   C106      1.0  0.25407  0.95537  0.34784  1.0000
  C   C107      1.0  0.27461  0.94871  0.42975  1.0000
  C   C108      1.0  0.31527  0.93921  0.42746  1.0000
  H   H24       1.0  0.32972  0.93430  0.48698  1.0000
  N   N60       1.0  0.25396  0.95177  0.51244  1.0000
  O   O47       1.0  0.25460  0.91967  0.55510  1.0000
  O   O48       1.0  0.26842  0.97849  0.56136  1.0000
  C   C109      1.0  0.43562  0.83522  0.34789  1.0000
  C   C110      1.0  0.44152  0.81432  0.42977  1.0000
  C   C111      1.0  0.45088  0.77346  0.42725  1.0000
  H   H25       1.0  0.45488  0.75865  0.48676  1.0000
  N   N61       1.0  0.43761  0.83474  0.51267  1.0000
  O   O49       1.0  0.46914  0.83391  0.55694  1.0000
  O   O50       1.0  0.41056  0.81999  0.55994  1.0000
  C   C112      1.0  0.57185  0.17109  0.34634  1.0000
  C   C113      1.0  0.56599  0.19184  0.42841  1.0000
  C   C114      1.0  0.55688  0.23277  0.42630  1.0000
  H   H26       1.0  0.55292  0.24748  0.48594  1.0000
  N   N62       1.0  0.56973  0.17122  0.51109  1.0000
  O   O51       1.0  0.53816  0.17207  0.55520  1.0000
  O   O52       1.0  0.59680  0.18572  0.55869  1.0000
  C   C115      1.0  0.83619  0.57180  0.34776  1.0000
  C   C116      1.0  0.81518  0.56650  0.42965  1.0000
  C   C117      1.0  0.77431  0.55754  0.42718  1.0000
  H   H27       1.0  0.75946  0.55391  0.48671  1.0000
  N   N63       1.0  0.83551  0.57058  0.51255  1.0000
  O   O53       1.0  0.83401  0.53912  0.55755  1.0000
  O   O54       1.0  0.82135  0.59813  0.55912  1.0000
  C   C118      1.0  0.17171  0.43749  0.34656  1.0000
  C   C119      1.0  0.19273  0.44213  0.42864  1.0000
  C   C120      1.0  0.23378  0.45014  0.42648  1.0000
  H   H28       1.0  0.24864  0.45337  0.48613  1.0000
  N   N64       1.0  0.17219  0.43839  0.51138  1.0000
  O   O55       1.0  0.17430  0.46978  0.55655  1.0000
  O   O56       1.0  0.18568  0.41049  0.55789  1.0000
  C   C121      1.0  0.14535  0.04874  0.34860  1.0000
  C   C122      1.0  0.13245  0.06594  0.43068  1.0000
  C   C123      1.0  0.10909  0.10056  0.42848  1.0000
  H   H29       1.0  0.09860  0.11176  0.48794  1.0000
  N   N65       1.0  0.14184  0.04716  0.51332  1.0000
  O   O57       1.0  0.16130  0.06985  0.56372  1.0000
  O   O58       1.0  0.11131  0.03622  0.55443  1.0000
  C   C124      1.0  0.86368  0.96137  0.34911  1.0000
  C   C125      1.0  0.87657  0.94416  0.43116  1.0000
  C   C126      1.0  0.89976  0.90943  0.42875  1.0000
  H   H30       1.0  0.91031  0.89819  0.48812  1.0000
  N   N66       1.0  0.86739  0.96301  0.51385  1.0000
  O   O59       1.0  0.84793  0.94042  0.56445  1.0000
  O   O60       1.0  0.89804  0.97384  0.55466  1.0000
  C   C127      1.0  0.96096  0.14486  0.34889  1.0000
  C   C128      1.0  0.94320  0.13271  0.43100  1.0000
  C   C129      1.0  0.90809  0.10991  0.42871  1.0000
  H   H31       1.0  0.89649  0.09980  0.48819  1.0000
  N   N67       1.0  0.96190  0.14222  0.51371  1.0000
  O   O61       1.0  0.93973  0.16252  0.56308  1.0000
  O   O62       1.0  0.97170  0.11157  0.55592  1.0000
  C   C130      1.0  0.04759  0.86502  0.34835  1.0000
  C   C131      1.0  0.06521  0.87728  0.43053  1.0000
  C   C132      1.0  0.10023  0.90024  0.42833  1.0000
  H   H32       1.0  0.11179  0.91037  0.48783  1.0000
  N   N68       1.0  0.04648  0.86777  0.51319  1.0000
  O   O63       1.0  0.06869  0.84765  0.56283  1.0000
  O   O64       1.0  0.03647  0.89843  0.55514  1.0000
  C   C133      1.0  0.41127  0.61583  0.34659  1.0000
  C   C134      1.0  0.39921  0.59799  0.42873  1.0000
  C   C135      1.0  0.37558  0.56334  0.42643  1.0000
  H   H33       1.0  0.36846  0.54971  0.48595  1.0000
  N   N69       1.0  0.41248  0.61422  0.51150  1.0000
  O   O65       1.0  0.38398  0.62432  0.56023  1.0000
  O   O66       1.0  0.43323  0.58995  0.55439  1.0000
  C   C136      1.0  0.59718  0.39058  0.34657  1.0000
  C   C137      1.0  0.60928  0.40842  0.42871  1.0000
  C   C138      1.0  0.63303  0.44300  0.42647  1.0000
  H   H34       1.0  0.64006  0.45666  0.48601  1.0000
  N   N70       1.0  0.59591  0.39225  0.51146  1.0000
  O   O67       1.0  0.62434  0.38205  0.56027  1.0000
  O   O68       1.0  0.57521  0.41659  0.55427  1.0000
  C   C139      1.0  0.61760  0.59761  0.34679  1.0000
  C   C140      1.0  0.59964  0.60932  0.42889  1.0000
  C   C141      1.0  0.56515  0.63275  0.42663  1.0000
  H   H35       1.0  0.55145  0.63952  0.48615  1.0000
  N   N71       1.0  0.61558  0.59585  0.51164  1.0000
  O   O69       1.0  0.62552  0.62440  0.56104  1.0000
  O   O70       1.0  0.59132  0.57459  0.55380  1.0000
  C   C142      1.0  0.39051  0.40863  0.34676  1.0000
  C   C143      1.0  0.40852  0.39702  0.42890  1.0000
  C   C144      1.0  0.44313  0.37377  0.42667  1.0000
  H   H36       1.0  0.45684  0.36702  0.48618  1.0000
  N   N72       1.0  0.39250  0.41040  0.51165  1.0000
  O   O71       1.0  0.38267  0.38179  0.56097  1.0000
  O   O72       1.0  0.41665  0.43173  0.55389  1.0000
