data_image0
_chemical_formula_structural       C2H2C2NCHC2NCHC2NCHCNHCNHCNHC22H13C24H15C24H15C24H15CNHCNHCNHC2NCHC2NCHC2NCH
_chemical_formula_sum              "C120 H72 N12"
_cell_length_a       45.6723
_cell_length_b       45.6724
_cell_length_c       14.9834
_cell_angle_alpha    90
_cell_angle_beta     90
_cell_angle_gamma    120

_space_group_name_H-M_alt    "P 1"
_space_group_IT_number       1

loop_
  _space_group_symop_operation_xyz
  'x, y, z'

loop_
  _atom_site_type_symbol
  _atom_site_label
  _atom_site_symmetry_multiplicity
  _atom_site_fract_x
  _atom_site_fract_y
  _atom_site_fract_z
  _atom_site_occupancy
  C   C1        1.0  0.01087  0.03204  0.33285  1.0000
  C   C2        1.0  0.01004  0.97852  0.33283  1.0000
  H   H1        1.0  0.02412  0.05793  0.33275  1.0000
  H   H2        1.0  0.02268  0.96528  0.33269  1.0000
  C   C3        1.0  0.17412  0.08587  0.33131  1.0000
  C   C4        1.0  0.19442  0.08641  0.25927  1.0000
  N   N1        1.0  0.22859  0.10466  0.26648  1.0000
  C   C5        1.0  0.24547  0.12303  0.33970  1.0000
  H   H3        1.0  0.18425  0.07416  0.20063  1.0000
  C   C6        1.0  0.90352  0.08876  0.33155  1.0000
  C   C7        1.0  0.90289  0.10844  0.25942  1.0000
  N   N2        1.0  0.88462  0.12433  0.26661  1.0000
  C   C8        1.0  0.86631  0.12290  0.33990  1.0000
  H   H4        1.0  0.91509  0.11047  0.20072  1.0000
  C   C9        1.0  0.90076  0.81527  0.33111  1.0000
  C   C10       1.0  0.88101  0.79497  0.25906  1.0000
  N   N3        1.0  0.86515  0.76081  0.26619  1.0000
  C   C11       1.0  0.86668  0.74392  0.33933  1.0000
  H   H5        1.0  0.87890  0.80515  0.20047  1.0000
  C   C12       1.0  0.55042  0.14573  0.25762  1.0000
  N   N4        1.0  0.58039  0.14629  0.25505  1.0000
  H   H6        1.0  0.53985  0.14699  0.19873  1.0000
  C   C13       1.0  0.84276  0.40469  0.25771  1.0000
  N   N5        1.0  0.84223  0.43411  0.25536  1.0000
  H   H7        1.0  0.84144  0.39287  0.19875  1.0000
  C   C14       1.0  0.58468  0.43835  0.25708  1.0000
  N   N6        1.0  0.55532  0.40834  0.25470  1.0000
  H   H8        1.0  0.59659  0.44877  0.19816  1.0000
  C   C15       1.0  0.97511  0.01514  0.33290  1.0000
  C   C16       1.0  0.02890  0.01429  0.33281  1.0000
  C   C17       1.0  0.97426  0.96049  0.33287  1.0000
  C   C18       1.0  0.95735  0.97935  0.33293  1.0000
  C   C19       1.0  0.06509  0.03197  0.33239  1.0000
  C   C20       1.0  0.08400  0.06024  0.38840  1.0000
  C   C21       1.0  0.11958  0.07765  0.38782  1.0000
  C   C22       1.0  0.13790  0.06777  0.33091  1.0000
  C   C23       1.0  0.11884  0.03928  0.27542  1.0000
  C   C24       1.0  0.08326  0.02180  0.27609  1.0000
  C   C25       1.0  0.95742  0.03364  0.33255  1.0000
  C   C26       1.0  0.96757  0.06196  0.27617  1.0000
  C   C27       1.0  0.95007  0.08005  0.27551  1.0000
  C   C28       1.0  0.92163  0.07065  0.33114  1.0000
  C   C29       1.0  0.91179  0.04248  0.38816  1.0000
  C   C30       1.0  0.92919  0.02431  0.38868  1.0000
  C   C31       1.0  0.95576  0.92430  0.33247  1.0000
  C   C32       1.0  0.92741  0.90612  0.27618  1.0000
  C   C33       1.0  0.90935  0.87054  0.27544  1.0000
  C   C34       1.0  0.91883  0.85149  0.33081  1.0000
  C   C35       1.0  0.94703  0.86982  0.38774  1.0000
  C   C36       1.0  0.96516  0.90540  0.38837  1.0000
  H   H9        1.0  0.95897  0.10065  0.23460  1.0000
  H   H10       1.0  0.98763  0.06949  0.23371  1.0000
  H   H11       1.0  0.89141  0.03447  0.42971  1.0000
  H   H12       1.0  0.92126  0.00438  0.43181  1.0000
  H   H13       1.0  0.91982  0.91866  0.23390  1.0000
  H   H14       1.0  0.88873  0.85883  0.23460  1.0000
  H   H15       1.0  0.98511  0.91739  0.43144  1.0000
  H   H16       1.0  0.95509  0.85745  0.42912  1.0000
  H   H17       1.0  0.07072  0.00171  0.23372  1.0000
  H   H18       1.0  0.13054  0.03037  0.23455  1.0000
  H   H19       1.0  0.13196  0.09806  0.42929  1.0000
  H   H20       1.0  0.07202  0.06821  0.43148  1.0000
  H   H21       1.0  0.93147  0.96672  0.33288  1.0000
  C   C37       1.0  0.44427  0.25018  0.32365  1.0000
  C   C38       1.0  0.40860  0.23193  0.32700  1.0000
  C   C39       1.0  0.39044  0.19621  0.33547  1.0000
  C   C40       1.0  0.40904  0.17905  0.34240  1.0000
  C   C41       1.0  0.44475  0.19680  0.34247  1.0000
  C   C42       1.0  0.46190  0.23227  0.33215  1.0000
  C   C43       1.0  0.35430  0.17796  0.33715  1.0000
  C   C44       1.0  0.33597  0.18925  0.38900  1.0000
  C   C45       1.0  0.30040  0.17128  0.39054  1.0000
  C   C46       1.0  0.28161  0.14132  0.34000  1.0000
  C   C47       1.0  0.30005  0.13025  0.28758  1.0000
  C   C48       1.0  0.33562  0.14806  0.28656  1.0000
  C   C49       1.0  0.46293  0.28597  0.31534  1.0000
  C   C50       1.0  0.46088  0.30685  0.38174  1.0000
  C   C51       1.0  0.48449  0.34174  0.38385  1.0000
  C   C52       1.0  0.51055  0.35689  0.31927  1.0000
  C   C53       1.0  0.51082  0.33616  0.24927  1.0000
  C   C54       1.0  0.48763  0.30127  0.24780  1.0000
  C   C55       1.0  0.46379  0.18005  0.35103  1.0000
  C   C56       1.0  0.48964  0.19087  0.41586  1.0000
  C   C57       1.0  0.51246  0.17872  0.41527  1.0000
  C   C58       1.0  0.51058  0.15565  0.34919  1.0000
  C   C59       1.0  0.48350  0.14350  0.28738  1.0000
  C   C60       1.0  0.46032  0.15534  0.28853  1.0000
  H   H22       1.0  0.48329  0.35571  0.43561  1.0000
  H   H23       1.0  0.44398  0.29644  0.43313  1.0000
  H   H24       1.0  0.52963  0.34565  0.20235  1.0000
  H   H25       1.0  0.49013  0.28678  0.19956  1.0000
  H   H26       1.0  0.49312  0.20902  0.46152  1.0000
  H   H27       1.0  0.53198  0.18889  0.46014  1.0000
  H   H28       1.0  0.44240  0.14756  0.23935  1.0000
  H   H29       1.0  0.48109  0.12680  0.23852  1.0000
  H   H30       1.0  0.34778  0.13924  0.24684  1.0000
  H   H31       1.0  0.28775  0.10873  0.24994  1.0000
  H   H32       1.0  0.28843  0.18093  0.42777  1.0000
  H   H33       1.0  0.34841  0.21059  0.42725  1.0000
  H   H34       1.0  0.39573  0.24482  0.32005  1.0000
  H   H35       1.0  0.48782  0.24537  0.33111  1.0000
  H   H36       1.0  0.39649  0.15336  0.35098  1.0000
  C   C61       1.0  0.73872  0.19398  0.32321  1.0000
  C   C62       1.0  0.75709  0.17668  0.32674  1.0000
  C   C63       1.0  0.79280  0.19435  0.33519  1.0000
  C   C64       1.0  0.80985  0.23011  0.34199  1.0000
  C   C65       1.0  0.79199  0.24796  0.34191  1.0000
  C   C66       1.0  0.75653  0.22953  0.33157  1.0000
  C   C67       1.0  0.81116  0.17657  0.33705  1.0000
  C   C68       1.0  0.79995  0.14700  0.38906  1.0000
  C   C69       1.0  0.81802  0.12949  0.39074  1.0000
  C   C70       1.0  0.84796  0.14069  0.34014  1.0000
  C   C71       1.0  0.85894  0.17014  0.28754  1.0000
  C   C72       1.0  0.84105  0.18782  0.28638  1.0000
  C   C73       1.0  0.70293  0.17672  0.31505  1.0000
  C   C74       1.0  0.68217  0.15386  0.38167  1.0000
  C   C75       1.0  0.64726  0.14250  0.38397  1.0000
  C   C76       1.0  0.63199  0.15321  0.31922  1.0000
  C   C77       1.0  0.65261  0.17414  0.24901  1.0000
  C   C78       1.0  0.68753  0.18593  0.24735  1.0000
  C   C79       1.0  0.80863  0.28375  0.35051  1.0000
  C   C80       1.0  0.79771  0.29870  0.41530  1.0000
  C   C81       1.0  0.80986  0.33367  0.41499  1.0000
  C   C82       1.0  0.83293  0.35491  0.34900  1.0000
  C   C83       1.0  0.84515  0.34006  0.28714  1.0000
  C   C84       1.0  0.83335  0.30505  0.28812  1.0000
  H   H37       1.0  0.63336  0.12737  0.43586  1.0000
  H   H38       1.0  0.69266  0.14750  0.43315  1.0000
  H   H39       1.0  0.64304  0.18336  0.20207  1.0000
  H   H40       1.0  0.70195  0.20293  0.19904  1.0000
  H   H41       1.0  0.77953  0.28397  0.46084  1.0000
  H   H42       1.0  0.79957  0.34295  0.45968  1.0000
  H   H43       1.0  0.84125  0.29498  0.23906  1.0000
  H   H44       1.0  0.86190  0.35442  0.23844  1.0000
  H   H45       1.0  0.84981  0.20876  0.24660  1.0000
  H   H46       1.0  0.88045  0.17938  0.24988  1.0000
  H   H47       1.0  0.80842  0.10790  0.42809  1.0000
  H   H48       1.0  0.77862  0.13807  0.42738  1.0000
  H   H49       1.0  0.74427  0.15091  0.31985  1.0000
  H   H50       1.0  0.74334  0.24226  0.33046  1.0000
  H   H51       1.0  0.83554  0.24333  0.35059  1.0000
  C   C85       1.0  0.79500  0.54507  0.32424  1.0000
  C   C86       1.0  0.81243  0.58075  0.32734  1.0000
  C   C87       1.0  0.79488  0.59893  0.33548  1.0000
  C   C88       1.0  0.75913  0.58036  0.34236  1.0000
  C   C89       1.0  0.74116  0.54465  0.34273  1.0000
  C   C90       1.0  0.75946  0.52747  0.33275  1.0000
  C   C91       1.0  0.81280  0.63508  0.33694  1.0000
  C   C92       1.0  0.84243  0.65343  0.38874  1.0000
  C   C93       1.0  0.86003  0.68900  0.39020  1.0000
  C   C94       1.0  0.84885  0.70777  0.33960  1.0000
  C   C95       1.0  0.81936  0.68931  0.28714  1.0000
  C   C96       1.0  0.80160  0.65374  0.28619  1.0000
  C   C97       1.0  0.81212  0.52641  0.31605  1.0000
  C   C98       1.0  0.83502  0.52843  0.38246  1.0000
  C   C99       1.0  0.84633  0.50485  0.38452  1.0000
  C   C100      1.0  0.83542  0.47880  0.31990  1.0000
  C   C101      1.0  0.81443  0.47852  0.24991  1.0000
  C   C102      1.0  0.80270  0.50170  0.24849  1.0000
  C   C103      1.0  0.70536  0.52561  0.35107  1.0000
  C   C104      1.0  0.69030  0.49998  0.41643  1.0000
  C   C105      1.0  0.65534  0.47707  0.41567  1.0000
  C   C106      1.0  0.63425  0.47858  0.34868  1.0000
  C   C107      1.0  0.64922  0.50542  0.28619  1.0000
  C   C108      1.0  0.68420  0.52874  0.28763  1.0000
  H   H52       1.0  0.86156  0.50608  0.43618  1.0000
  H   H53       1.0  0.84163  0.54543  0.43367  1.0000
  H   H54       1.0  0.80501  0.45965  0.20317  1.0000
  H   H55       1.0  0.78565  0.49914  0.20038  1.0000
  H   H56       1.0  0.70493  0.49678  0.46283  1.0000
  H   H57       1.0  0.64597  0.45774  0.46110  1.0000
  H   H58       1.0  0.69438  0.54648  0.23804  1.0000
  H   H59       1.0  0.63497  0.50760  0.23678  1.0000
  H   H60       1.0  0.78061  0.64157  0.24655  1.0000
  H   H61       1.0  0.81013  0.70160  0.24948  1.0000
  H   H62       1.0  0.88164  0.70098  0.42745  1.0000
  H   H63       1.0  0.85133  0.64101  0.42712  1.0000
  H   H64       1.0  0.83819  0.59359  0.32030  1.0000
  H   H65       1.0  0.74663  0.50154  0.33191  1.0000
  H   H66       1.0  0.74598  0.59291  0.35064  1.0000
  C   C109      1.0  0.22524  0.12255  0.41175  1.0000
  N   N7        1.0  0.19108  0.10426  0.40449  1.0000
  H   H67       1.0  0.23551  0.13492  0.47021  1.0000
  C   C110      1.0  0.86689  0.10324  0.41206  1.0000
  N   N8        1.0  0.88518  0.08738  0.40481  1.0000
  H   H68       1.0  0.85455  0.10118  0.47057  1.0000
  C   C111      1.0  0.88641  0.76415  0.41140  1.0000
  N   N9        1.0  0.90223  0.79830  0.40422  1.0000
  H   H69       1.0  0.88854  0.75387  0.46983  1.0000
  C   C112      1.0  0.59830  0.14712  0.32866  1.0000
  C   C113      1.0  0.58423  0.14769  0.41227  1.0000
  N   N10       1.0  0.55539  0.14931  0.41456  1.0000
  C   C114      1.0  0.53742  0.14836  0.34101  1.0000
  H   H70       1.0  0.59687  0.15045  0.47070  1.0000
  C   C115      1.0  0.84152  0.45120  0.32910  1.0000
  C   C116      1.0  0.84099  0.43652  0.41260  1.0000
  N   N11       1.0  0.83935  0.40605  0.41471  1.0000
  C   C117      1.0  0.84021  0.38904  0.34102  1.0000
  H   H71       1.0  0.83831  0.44640  0.47112  1.0000
  C   C118      1.0  0.53814  0.39061  0.32842  1.0000
  C   C119      1.0  0.55263  0.40492  0.41195  1.0000
  N   N12       1.0  0.58305  0.43382  0.41413  1.0000
  C   C120      1.0  0.60017  0.45162  0.34046  1.0000
  H   H72       1.0  0.54268  0.39244  0.47053  1.0000
