data_image0
_chemical_formula_structural       CHC2OHCHC2OHNCN2CNH2C2NCOHCOH3C2NCOHCOHC3HC3HC2HCNCNCNC2HC2HCHC3HC3HC2HCNCNCNC2HC2HCHC3H2C3H2C3H2CNCNCNCNCNCNC3HOHC3HOHC3HOHC3H2C3H2C3H2CNCNCNCNCNCNC3HOHC3HOHC3HOH
_chemical_formula_sum              "C96 H48 O12 N24"
_cell_length_a       29.069
_cell_length_b       29.069
_cell_length_c       14.7637
_cell_angle_alpha    90
_cell_angle_beta     90
_cell_angle_gamma    120

_space_group_name_H-M_alt    "P 1"
_space_group_IT_number       1

loop_
  _space_group_symop_operation_xyz
  'x, y, z'

loop_
  _atom_site_type_symbol
  _atom_site_label
  _atom_site_symmetry_multiplicity
  _atom_site_fract_x
  _atom_site_fract_y
  _atom_site_fract_z
  _atom_site_occupancy
  C   C1        1.0  0.04000  0.27200  0.26734  1.0000
  H   H1        1.0  0.05966  0.28183  0.20662  1.0000
  C   C2        1.0  0.06860  0.28630  0.34978  1.0000
  C   C3        1.0  0.04001  0.27201  0.43306  1.0000
  O   O1        1.0  0.06210  0.28306  0.51806  1.0000
  H   H2        1.0  0.10101  0.30249  0.51642  1.0000
  C   C4        1.0  0.04000  0.77200  0.26734  1.0000
  H   H3        1.0  0.05967  0.78183  0.20662  1.0000
  C   C5        1.0  0.06860  0.78630  0.34978  1.0000
  C   C6        1.0  0.04001  0.77201  0.43306  1.0000
  O   O2        1.0  0.06210  0.78306  0.51806  1.0000
  H   H4        1.0  0.10101  0.80249  0.51642  1.0000
  N   N1        1.0  0.15177  0.36824  0.34709  1.0000
  C   C7        1.0  0.12440  0.31420  0.34643  1.0000
  N   N2        1.0  0.15177  0.28754  0.34708  1.0000
  N   N3        1.0  0.15177  0.86824  0.34709  1.0000
  C   C8        1.0  0.12440  0.81420  0.34643  1.0000
  N   N4        1.0  0.15177  0.78753  0.34708  1.0000
  H   H5        1.0  0.23818  0.28183  0.20660  1.0000
  H   H6        1.0  0.23818  0.46035  0.20661  1.0000
  C   C9        1.0  0.20581  0.39561  0.34642  1.0000
  C   C10       1.0  0.20581  0.31420  0.34641  1.0000
  N   N5        1.0  0.23247  0.36824  0.34708  1.0000
  C   C11       1.0  0.23371  0.28630  0.34977  1.0000
  O   O3        1.0  0.23695  0.28305  0.51805  1.0000
  H   H7        1.0  0.21752  0.30252  0.51641  1.0000
  C   C12       1.0  0.23371  0.45141  0.34977  1.0000
  O   O4        1.0  0.23695  0.45791  0.51806  1.0000
  H   H8        1.0  0.21752  0.41900  0.51642  1.0000
  H   H9        1.0  0.23818  0.78183  0.20660  1.0000
  H   H10       1.0  0.23818  0.96035  0.20661  1.0000
  C   C13       1.0  0.20581  0.89561  0.34642  1.0000
  C   C14       1.0  0.20581  0.81420  0.34641  1.0000
  N   N6        1.0  0.23247  0.86824  0.34708  1.0000
  C   C15       1.0  0.23371  0.78630  0.34977  1.0000
  O   O5        1.0  0.23695  0.78305  0.51805  1.0000
  H   H11       1.0  0.21752  0.80252  0.51641  1.0000
  C   C16       1.0  0.23371  0.95141  0.34977  1.0000
  O   O6        1.0  0.23695  0.95791  0.51806  1.0000
  H   H12       1.0  0.21752  0.91900  0.51642  1.0000
  C   C17       1.0  0.29032  0.22969  0.34899  1.0000
  C   C18       1.0  0.27599  0.24403  0.26690  1.0000
  C   C19       1.0  0.24801  0.27200  0.26733  1.0000
  H   H13       1.0  0.28579  0.23422  0.20614  1.0000
  C   C20       1.0  0.29032  0.06463  0.34899  1.0000
  C   C21       1.0  0.27599  0.03596  0.26690  1.0000
  C   C22       1.0  0.24801  0.48001  0.26733  1.0000
  H   H14       1.0  0.28579  0.05557  0.20614  1.0000
  C   C23       1.0  0.45538  0.22969  0.34899  1.0000
  C   C24       1.0  0.48405  0.24402  0.26690  1.0000
  H   H15       1.0  0.46445  0.23422  0.20614  1.0000
  C   C25       1.0  0.31821  0.12041  0.34875  1.0000
  N   N7        1.0  0.37225  0.14777  0.34882  1.0000
  C   C26       1.0  0.39960  0.20180  0.34875  1.0000
  N   N8        1.0  0.37225  0.22848  0.34882  1.0000
  C   C27       1.0  0.31821  0.20180  0.34876  1.0000
  N   N9        1.0  0.29153  0.14777  0.34882  1.0000
  C   C28       1.0  0.24800  0.27201  0.43306  1.0000
  C   C29       1.0  0.27608  0.24393  0.43138  1.0000
  H   H16       1.0  0.28626  0.23375  0.49146  1.0000
  C   C30       1.0  0.24800  0.48000  0.43306  1.0000
  C   C31       1.0  0.27608  0.03615  0.43138  1.0000
  H   H17       1.0  0.28626  0.05652  0.49146  1.0000
  C   C32       1.0  0.48386  0.24393  0.43138  1.0000
  H   H18       1.0  0.46349  0.23375  0.49146  1.0000
  C   C33       1.0  0.29032  0.72969  0.34899  1.0000
  C   C34       1.0  0.27599  0.74403  0.26690  1.0000
  C   C35       1.0  0.24801  0.77200  0.26733  1.0000
  H   H19       1.0  0.28579  0.73422  0.20614  1.0000
  C   C36       1.0  0.29032  0.56463  0.34899  1.0000
  C   C37       1.0  0.27599  0.53596  0.26690  1.0000
  C   C38       1.0  0.24802  0.98002  0.26733  1.0000
  H   H20       1.0  0.28579  0.55557  0.20614  1.0000
  C   C39       1.0  0.45538  0.72969  0.34899  1.0000
  C   C40       1.0  0.48405  0.74402  0.26690  1.0000
  H   H21       1.0  0.46445  0.73422  0.20614  1.0000
  C   C41       1.0  0.31821  0.62041  0.34875  1.0000
  N   N10       1.0  0.37225  0.64777  0.34882  1.0000
  C   C42       1.0  0.39960  0.70180  0.34875  1.0000
  N   N11       1.0  0.37225  0.72848  0.34882  1.0000
  C   C43       1.0  0.31821  0.70180  0.34876  1.0000
  N   N12       1.0  0.29153  0.64777  0.34882  1.0000
  C   C44       1.0  0.24800  0.77201  0.43306  1.0000
  C   C45       1.0  0.27608  0.74394  0.43138  1.0000
  H   H22       1.0  0.28626  0.73375  0.49146  1.0000
  C   C46       1.0  0.24800  0.98000  0.43306  1.0000
  C   C47       1.0  0.27608  0.53615  0.43138  1.0000
  H   H23       1.0  0.28626  0.55652  0.49146  1.0000
  C   C48       1.0  0.48386  0.74393  0.43138  1.0000
  H   H24       1.0  0.46349  0.73375  0.49146  1.0000
  C   C49       1.0  0.79033  0.22969  0.34899  1.0000
  C   C50       1.0  0.77599  0.24403  0.26690  1.0000
  C   C51       1.0  0.74801  0.27200  0.26733  1.0000
  H   H25       1.0  0.73818  0.28183  0.20660  1.0000
  H   H26       1.0  0.78579  0.23422  0.20614  1.0000
  C   C52       1.0  0.79032  0.06463  0.34899  1.0000
  C   C53       1.0  0.77599  0.03596  0.26690  1.0000
  C   C54       1.0  0.74801  0.48001  0.26733  1.0000
  H   H27       1.0  0.73818  0.46035  0.20661  1.0000
  H   H28       1.0  0.78579  0.05557  0.20614  1.0000
  C   C55       1.0  0.95538  0.22969  0.34899  1.0000
  C   C56       1.0  0.98405  0.24402  0.26690  1.0000
  C   C57       1.0  0.54000  0.27200  0.26734  1.0000
  H   H29       1.0  0.55966  0.28183  0.20662  1.0000
  H   H30       1.0  0.96445  0.23422  0.20614  1.0000
  C   C58       1.0  0.70581  0.39561  0.34642  1.0000
  N   N13       1.0  0.65177  0.36824  0.34709  1.0000
  C   C59       1.0  0.62440  0.31420  0.34643  1.0000
  N   N14       1.0  0.65177  0.28754  0.34708  1.0000
  C   C60       1.0  0.70581  0.31420  0.34641  1.0000
  N   N15       1.0  0.73247  0.36824  0.34708  1.0000
  C   C61       1.0  0.81821  0.12041  0.34875  1.0000
  N   N16       1.0  0.87224  0.14777  0.34882  1.0000
  C   C62       1.0  0.89960  0.20180  0.34875  1.0000
  N   N17       1.0  0.87225  0.22848  0.34882  1.0000
  C   C63       1.0  0.81821  0.20180  0.34876  1.0000
  N   N18       1.0  0.79153  0.14777  0.34882  1.0000
  C   C64       1.0  0.73371  0.28630  0.34977  1.0000
  C   C65       1.0  0.74800  0.27201  0.43306  1.0000
  C   C66       1.0  0.77608  0.24393  0.43138  1.0000
  H   H31       1.0  0.78626  0.23375  0.49146  1.0000
  O   O7        1.0  0.73696  0.28305  0.51805  1.0000
  H   H32       1.0  0.71752  0.30252  0.51641  1.0000
  C   C67       1.0  0.73371  0.45141  0.34977  1.0000
  C   C68       1.0  0.74800  0.48000  0.43306  1.0000
  C   C69       1.0  0.77608  0.03615  0.43138  1.0000
  H   H33       1.0  0.78626  0.05652  0.49146  1.0000
  O   O8        1.0  0.73695  0.45791  0.51806  1.0000
  H   H34       1.0  0.71752  0.41900  0.51642  1.0000
  C   C70       1.0  0.56861  0.28630  0.34978  1.0000
  C   C71       1.0  0.54002  0.27201  0.43306  1.0000
  C   C72       1.0  0.98386  0.24393  0.43138  1.0000
  H   H35       1.0  0.96349  0.23375  0.49146  1.0000
  O   O9        1.0  0.56210  0.28306  0.51806  1.0000
  H   H36       1.0  0.60101  0.30249  0.51642  1.0000
  C   C73       1.0  0.79032  0.72969  0.34899  1.0000
  C   C74       1.0  0.77599  0.74403  0.26690  1.0000
  C   C75       1.0  0.74801  0.77200  0.26733  1.0000
  H   H37       1.0  0.73818  0.78183  0.20660  1.0000
  H   H38       1.0  0.78579  0.73422  0.20614  1.0000
  C   C76       1.0  0.79032  0.56463  0.34899  1.0000
  C   C77       1.0  0.77599  0.53596  0.26690  1.0000
  C   C78       1.0  0.74801  0.98002  0.26733  1.0000
  H   H39       1.0  0.73818  0.96035  0.20661  1.0000
  H   H40       1.0  0.78579  0.55557  0.20614  1.0000
  C   C79       1.0  0.95538  0.72969  0.34899  1.0000
  C   C80       1.0  0.98405  0.74402  0.26690  1.0000
  C   C81       1.0  0.54000  0.77200  0.26734  1.0000
  H   H41       1.0  0.55967  0.78183  0.20662  1.0000
  H   H42       1.0  0.96445  0.73422  0.20614  1.0000
  C   C82       1.0  0.70581  0.89561  0.34642  1.0000
  N   N19       1.0  0.65177  0.86824  0.34709  1.0000
  C   C83       1.0  0.62440  0.81420  0.34643  1.0000
  N   N20       1.0  0.65177  0.78753  0.34708  1.0000
  C   C84       1.0  0.70581  0.81420  0.34641  1.0000
  N   N21       1.0  0.73248  0.86824  0.34708  1.0000
  C   C85       1.0  0.81821  0.62041  0.34875  1.0000
  N   N22       1.0  0.87225  0.64777  0.34882  1.0000
  C   C86       1.0  0.89960  0.70180  0.34875  1.0000
  N   N23       1.0  0.87225  0.72848  0.34882  1.0000
  C   C87       1.0  0.81821  0.70180  0.34876  1.0000
  N   N24       1.0  0.79153  0.64777  0.34882  1.0000
  C   C88       1.0  0.73371  0.78630  0.34977  1.0000
  C   C89       1.0  0.74800  0.77201  0.43306  1.0000
  C   C90       1.0  0.77608  0.74394  0.43138  1.0000
  H   H43       1.0  0.78626  0.73375  0.49146  1.0000
  O   O10       1.0  0.73695  0.78305  0.51805  1.0000
  H   H44       1.0  0.71752  0.80252  0.51641  1.0000
  C   C91       1.0  0.73371  0.95141  0.34977  1.0000
  C   C92       1.0  0.74800  0.98000  0.43306  1.0000
  C   C93       1.0  0.77608  0.53615  0.43138  1.0000
  H   H45       1.0  0.78626  0.55652  0.49146  1.0000
  O   O11       1.0  0.73696  0.95791  0.51806  1.0000
  H   H46       1.0  0.71752  0.91900  0.51642  1.0000
  C   C94       1.0  0.56860  0.78630  0.34978  1.0000
  C   C95       1.0  0.54002  0.77201  0.43306  1.0000
  C   C96       1.0  0.98386  0.74393  0.43138  1.0000
  H   H47       1.0  0.96349  0.73375  0.49146  1.0000
  O   O12       1.0  0.56210  0.78306  0.51806  1.0000
  H   H48       1.0  0.60101  0.80249  0.51642  1.0000
