data_image0
_chemical_formula_structural       C2HC2HC4H2C2HC5H3C2HC5H3C2NC3NHCH3C2NC3NHCH3C2NC3NHCH3C2NC3NHCH3C2NC3NHCH3C2NC3NHCH3CNCNCNC18H12CNCNCNC18H12CNCNCNC18H12CNCNCNC18H12CNCNCNC18H12CNCNCNC18H12C2NC2NHCH3C2NC3NHCH3C2NC3NHCH3C2HC5H3C2HC5H3C2HC5H3C2HC5H3C2HC5H3C2HC5H3
_chemical_formula_sum              "C243 H144 N36"
_cell_length_a       75.8136
_cell_length_b       75.8136
_cell_length_c       14.9921
_cell_angle_alpha    90
_cell_angle_beta     90
_cell_angle_gamma    120

_space_group_name_H-M_alt    "P 1"
_space_group_IT_number       1

loop_
  _space_group_symop_operation_xyz
  'x, y, z'

loop_
  _atom_site_type_symbol
  _atom_site_label
  _atom_site_symmetry_multiplicity
  _atom_site_fract_x
  _atom_site_fract_y
  _atom_site_fract_z
  _atom_site_occupancy
  C   C1        1.0  0.01147  0.50579  0.16894  1.0000
  C   C2        1.0  0.01111  0.50562  0.33210  1.0000
  H   H1        1.0  0.01919  0.50964  0.10962  1.0000
  C   C3        1.0  0.02214  0.51112  0.25069  1.0000
  C   C4        1.0  0.04361  0.52185  0.25433  1.0000
  H   H2        1.0  0.05181  0.52594  0.19611  1.0000
  C   C5        1.0  0.94683  0.47351  0.33180  1.0000
  C   C6        1.0  0.95746  0.47882  0.24995  1.0000
  C   C7        1.0  0.97897  0.48956  0.24858  1.0000
  C   C8        1.0  0.99005  0.49510  0.16790  1.0000
  H   H3        1.0  0.98264  0.49139  0.10784  1.0000
  H   H4        1.0  0.94949  0.47483  0.19118  1.0000
  C   C9        1.0  0.48953  0.51114  0.25070  1.0000
  C   C10       1.0  0.47881  0.52189  0.25434  1.0000
  H   H5        1.0  0.47472  0.52599  0.19612  1.0000
  C   C11       1.0  0.52715  0.47343  0.33177  1.0000
  C   C12       1.0  0.52184  0.47876  0.24993  1.0000
  C   C13       1.0  0.51109  0.48953  0.24857  1.0000
  C   C14       1.0  0.50556  0.49508  0.16789  1.0000
  C   C15       1.0  0.49486  0.50580  0.16894  1.0000
  H   H6        1.0  0.50927  0.49137  0.10783  1.0000
  H   H7        1.0  0.49101  0.50967  0.10963  1.0000
  H   H8        1.0  0.52582  0.47478  0.19115  1.0000
  C   C16       1.0  0.48951  0.97853  0.25069  1.0000
  C   C17       1.0  0.47876  0.95706  0.25433  1.0000
  H   H9        1.0  0.47466  0.94886  0.19611  1.0000
  C   C18       1.0  0.52722  0.05384  0.33179  1.0000
  C   C19       1.0  0.52190  0.04321  0.24995  1.0000
  C   C20       1.0  0.51113  0.02170  0.24858  1.0000
  C   C21       1.0  0.50557  0.01062  0.16789  1.0000
  C   C22       1.0  0.49485  0.98920  0.16894  1.0000
  H   H10       1.0  0.50928  0.01803  0.10783  1.0000
  H   H11       1.0  0.49098  0.98148  0.10962  1.0000
  H   H12       1.0  0.52588  0.05118  0.19117  1.0000
  C   C23       1.0  0.31206  0.53147  0.33059  1.0000
  C   C24       1.0  0.30100  0.52955  0.25117  1.0000
  N   N1        1.0  0.28198  0.52697  0.25806  1.0000
  C   C25       1.0  0.27244  0.52574  0.33639  1.0000
  C   C26       1.0  0.25381  0.52573  0.33747  1.0000
  C   C27       1.0  0.22873  0.52954  0.25679  1.0000
  N   N2        1.0  0.24523  0.52708  0.26001  1.0000
  H   H13       1.0  0.22401  0.53179  0.19609  1.0000
  C   C28       1.0  0.30896  0.53138  0.15941  1.0000
  H   H14       1.0  0.32404  0.53289  0.15776  1.0000
  H   H15       1.0  0.30985  0.54469  0.12697  1.0000
  H   H16       1.0  0.29865  0.51782  0.12127  1.0000
  C   C29       1.0  0.46923  0.78077  0.33059  1.0000
  C   C30       1.0  0.47117  0.77163  0.25119  1.0000
  N   N3        1.0  0.47372  0.75518  0.25805  1.0000
  C   C31       1.0  0.47493  0.74685  0.33636  1.0000
  C   C32       1.0  0.47493  0.72823  0.33737  1.0000
  C   C33       1.0  0.47108  0.69932  0.25671  1.0000
  N   N4        1.0  0.47359  0.71830  0.25989  1.0000
  H   H17       1.0  0.46892  0.69239  0.19597  1.0000
  C   C34       1.0  0.46932  0.77775  0.15943  1.0000
  H   H18       1.0  0.46781  0.79132  0.15780  1.0000
  H   H19       1.0  0.45599  0.76533  0.12704  1.0000
  H   H20       1.0  0.48287  0.78100  0.12124  1.0000
  C   C35       1.0  0.21990  0.68860  0.33057  1.0000
  C   C36       1.0  0.22905  0.69968  0.25119  1.0000
  N   N5        1.0  0.24550  0.71869  0.25806  1.0000
  C   C37       1.0  0.25382  0.72822  0.33639  1.0000
  C   C38       1.0  0.27245  0.74684  0.33742  1.0000
  C   C39       1.0  0.30134  0.77191  0.25672  1.0000
  N   N6        1.0  0.28236  0.75542  0.25993  1.0000
  H   H21       1.0  0.30828  0.77665  0.19597  1.0000
  C   C40       1.0  0.22293  0.69171  0.15942  1.0000
  H   H22       1.0  0.20936  0.67664  0.15777  1.0000
  H   H23       1.0  0.23536  0.69080  0.12706  1.0000
  H   H24       1.0  0.21969  0.70202  0.12122  1.0000
  C   C41       1.0  0.68874  0.46911  0.33072  1.0000
  C   C42       1.0  0.69981  0.47102  0.25131  1.0000
  N   N7        1.0  0.71882  0.47359  0.25816  1.0000
  C   C43       1.0  0.72837  0.47483  0.33647  1.0000
  C   C44       1.0  0.74699  0.47482  0.33749  1.0000
  C   C45       1.0  0.77203  0.47095  0.25686  1.0000
  N   N8        1.0  0.75555  0.47345  0.26003  1.0000
  H   H25       1.0  0.77675  0.46872  0.19613  1.0000
  C   C46       1.0  0.69182  0.46914  0.15957  1.0000
  H   H26       1.0  0.67674  0.46763  0.15794  1.0000
  H   H27       1.0  0.69091  0.45581  0.12726  1.0000
  H   H28       1.0  0.70211  0.48268  0.12129  1.0000
  C   C47       1.0  0.53150  0.21973  0.33053  1.0000
  C   C48       1.0  0.52960  0.22890  0.25116  1.0000
  N   N9        1.0  0.52706  0.24535  0.25807  1.0000
  C   C49       1.0  0.52583  0.25366  0.33640  1.0000
  C   C50       1.0  0.52586  0.27230  0.33750  1.0000
  C   C51       1.0  0.52971  0.30121  0.25688  1.0000
  N   N10       1.0  0.52721  0.28223  0.26005  1.0000
  H   H29       1.0  0.53192  0.30816  0.19615  1.0000
  C   C52       1.0  0.53149  0.22279  0.15942  1.0000
  H   H30       1.0  0.53299  0.20922  0.15780  1.0000
  H   H31       1.0  0.54483  0.23522  0.12714  1.0000
  H   H32       1.0  0.51796  0.21956  0.12112  1.0000
  C   C53       1.0  0.78093  0.31192  0.33055  1.0000
  C   C54       1.0  0.77177  0.30085  0.25118  1.0000
  N   N11       1.0  0.75531  0.28185  0.25807  1.0000
  C   C55       1.0  0.74699  0.27231  0.33640  1.0000
  C   C56       1.0  0.72836  0.25369  0.33746  1.0000
  C   C57       1.0  0.69944  0.22863  0.25686  1.0000
  N   N12       1.0  0.71843  0.24511  0.26001  1.0000
  H   H33       1.0  0.69250  0.22389  0.19613  1.0000
  C   C58       1.0  0.77788  0.30884  0.15944  1.0000
  H   H34       1.0  0.79145  0.32390  0.15784  1.0000
  H   H35       1.0  0.76546  0.30974  0.12710  1.0000
  H   H36       1.0  0.78113  0.29853  0.12120  1.0000
  C   C59       1.0  0.17222  0.60194  0.33151  1.0000
  N   N13       1.0  0.15152  0.59117  0.33300  1.0000
  C   C60       1.0  0.14073  0.57039  0.33410  1.0000
  N   N14       1.0  0.15153  0.56042  0.33382  1.0000
  C   C61       1.0  0.17223  0.57035  0.33240  1.0000
  N   N15       1.0  0.18190  0.59098  0.33131  1.0000
  C   C62       1.0  0.11899  0.55952  0.33529  1.0000
  C   C63       1.0  0.10778  0.56992  0.33571  1.0000
  C   C64       1.0  0.08635  0.55924  0.33645  1.0000
  C   C65       1.0  0.07547  0.53777  0.33692  1.0000
  C   C66       1.0  0.08635  0.52717  0.33647  1.0000
  C   C67       1.0  0.10778  0.53792  0.33575  1.0000
  C   C68       1.0  0.18374  0.62367  0.33052  1.0000
  C   C69       1.0  0.17436  0.63579  0.33677  1.0000
  C   C70       1.0  0.18604  0.65725  0.33697  1.0000
  C   C71       1.0  0.20744  0.66713  0.32995  1.0000
  C   C72       1.0  0.21694  0.65525  0.32340  1.0000
  C   C73       1.0  0.20528  0.63392  0.32380  1.0000
  C   C74       1.0  0.18376  0.56015  0.33252  1.0000
  C   C75       1.0  0.20535  0.57149  0.32906  1.0000
  C   C76       1.0  0.21702  0.56183  0.32997  1.0000
  C   C77       1.0  0.20750  0.54042  0.33443  1.0000
  C   C78       1.0  0.18605  0.52885  0.33789  1.0000
  C   C79       1.0  0.17437  0.53863  0.33669  1.0000
  H   H37       1.0  0.17885  0.66559  0.34195  1.0000
  H   H38       1.0  0.15887  0.62912  0.34201  1.0000
  H   H39       1.0  0.23247  0.66203  0.31872  1.0000
  H   H40       1.0  0.21292  0.62601  0.31903  1.0000
  H   H41       1.0  0.21301  0.58705  0.32602  1.0000
  H   H42       1.0  0.23258  0.57061  0.32779  1.0000
  H   H43       1.0  0.15885  0.52977  0.33947  1.0000
  H   H44       1.0  0.17884  0.51330  0.34138  1.0000
  H   H45       1.0  0.11507  0.52964  0.33537  1.0000
  H   H46       1.0  0.07876  0.51158  0.33666  1.0000
  H   H47       1.0  0.07877  0.56725  0.33662  1.0000
  H   H48       1.0  0.11508  0.58549  0.33535  1.0000
  C   C80       1.0  0.39872  0.57040  0.33153  1.0000
  N   N16       1.0  0.40949  0.56048  0.33304  1.0000
  C   C81       1.0  0.43026  0.57046  0.33415  1.0000
  N   N17       1.0  0.44024  0.59123  0.33388  1.0000
  C   C82       1.0  0.43032  0.60201  0.33246  1.0000
  N   N18       1.0  0.40968  0.59104  0.33134  1.0000
  C   C83       1.0  0.44113  0.55959  0.33533  1.0000
  C   C84       1.0  0.43073  0.53798  0.33574  1.0000
  C   C85       1.0  0.44141  0.52723  0.33647  1.0000
  C   C86       1.0  0.46288  0.53782  0.33695  1.0000
  C   C87       1.0  0.47348  0.55930  0.33651  1.0000
  C   C88       1.0  0.46274  0.56998  0.33579  1.0000
  C   C89       1.0  0.37699  0.56020  0.33052  1.0000
  C   C90       1.0  0.36486  0.53870  0.33686  1.0000
  C   C91       1.0  0.34340  0.52893  0.33704  1.0000
  C   C92       1.0  0.33353  0.54046  0.32991  1.0000
  C   C93       1.0  0.34542  0.56184  0.32330  1.0000
  C   C94       1.0  0.36675  0.57150  0.32371  1.0000
  C   C95       1.0  0.44051  0.62374  0.33256  1.0000
  C   C96       1.0  0.42918  0.63399  0.32908  1.0000
  C   C97       1.0  0.43883  0.65532  0.32995  1.0000
  C   C98       1.0  0.46024  0.66720  0.33440  1.0000
  C   C99       1.0  0.47181  0.65733  0.33787  1.0000
  C   C100      1.0  0.46204  0.63586  0.33671  1.0000
  H   H49       1.0  0.33505  0.51340  0.34210  1.0000
  H   H50       1.0  0.37153  0.52989  0.34216  1.0000
  H   H51       1.0  0.33864  0.57059  0.31856  1.0000
  H   H52       1.0  0.37466  0.58704  0.31887  1.0000
  H   H53       1.0  0.41361  0.62608  0.32604  1.0000
  H   H54       1.0  0.43005  0.66209  0.32774  1.0000
  H   H55       1.0  0.47089  0.62920  0.33949  1.0000
  H   H56       1.0  0.48737  0.66567  0.34132  1.0000
  H   H57       1.0  0.47102  0.58555  0.33543  1.0000
  H   H58       1.0  0.48908  0.56730  0.33670  1.0000
  H   H59       1.0  0.43340  0.51164  0.33663  1.0000
  H   H60       1.0  0.41516  0.52971  0.33536  1.0000
  C   C101      1.0  0.43026  0.82845  0.33155  1.0000
  N   N19       1.0  0.44018  0.84915  0.33304  1.0000
  C   C102      1.0  0.43019  0.85994  0.33413  1.0000
  N   N20       1.0  0.40942  0.84914  0.33385  1.0000
  C   C103      1.0  0.39865  0.82844  0.33244  1.0000
  N   N21       1.0  0.40962  0.81877  0.33136  1.0000
  C   C104      1.0  0.44106  0.88168  0.33531  1.0000
  C   C105      1.0  0.46267  0.89289  0.33572  1.0000
  C   C106      1.0  0.47342  0.91432  0.33645  1.0000
  C   C107      1.0  0.46283  0.92520  0.33693  1.0000
  C   C108      1.0  0.44135  0.91432  0.33648  1.0000
  C   C109      1.0  0.43067  0.89289  0.33577  1.0000
  C   C110      1.0  0.44047  0.81693  0.33056  1.0000
  C   C111      1.0  0.46197  0.82631  0.33679  1.0000
  C   C112      1.0  0.47175  0.81463  0.33699  1.0000
  C   C113      1.0  0.46023  0.79323  0.32998  1.0000
  C   C114      1.0  0.43885  0.78373  0.32345  1.0000
  C   C115      1.0  0.42917  0.79539  0.32385  1.0000
  C   C116      1.0  0.37692  0.81690  0.33255  1.0000
  C   C117      1.0  0.36668  0.79531  0.32915  1.0000
  C   C118      1.0  0.34535  0.78363  0.33003  1.0000
  C   C119      1.0  0.33346  0.79315  0.33442  1.0000
  C   C120      1.0  0.34333  0.81460  0.33781  1.0000
  C   C121      1.0  0.36479  0.82629  0.33664  1.0000
  H   H61       1.0  0.48728  0.82183  0.34196  1.0000
  H   H62       1.0  0.47078  0.84180  0.34202  1.0000
  H   H63       1.0  0.43010  0.76820  0.31877  1.0000
  H   H64       1.0  0.41363  0.78775  0.31909  1.0000
  H   H65       1.0  0.37458  0.78765  0.32615  1.0000
  H   H66       1.0  0.33858  0.76808  0.32788  1.0000
  H   H67       1.0  0.37145  0.84181  0.33937  1.0000
  H   H68       1.0  0.33498  0.82181  0.34122  1.0000
  H   H69       1.0  0.41510  0.88559  0.33539  1.0000
  H   H70       1.0  0.43335  0.92191  0.33667  1.0000
  H   H71       1.0  0.48901  0.92190  0.33663  1.0000
  H   H72       1.0  0.47094  0.88559  0.33536  1.0000
  C   C122      1.0  0.82858  0.39858  0.33200  1.0000
  N   N22       1.0  0.84928  0.40936  0.33306  1.0000
  C   C123      1.0  0.86006  0.43013  0.33398  1.0000
  N   N23       1.0  0.84927  0.44010  0.33388  1.0000
  C   C124      1.0  0.82856  0.43017  0.33289  1.0000
  N   N24       1.0  0.81889  0.40953  0.33197  1.0000
  C   C125      1.0  0.88181  0.44101  0.33442  1.0000
  C   C126      1.0  0.89302  0.43061  0.33432  1.0000
  C   C127      1.0  0.91445  0.44129  0.33386  1.0000
  C   C128      1.0  0.92533  0.46277  0.33362  1.0000
  C   C129      1.0  0.91445  0.47336  0.33389  1.0000
  C   C130      1.0  0.89302  0.46261  0.33436  1.0000
  C   C131      1.0  0.81707  0.37685  0.33100  1.0000
  C   C132      1.0  0.82645  0.36474  0.33713  1.0000
  C   C133      1.0  0.81478  0.34327  0.33717  1.0000
  C   C134      1.0  0.79337  0.33339  0.33015  1.0000
  C   C135      1.0  0.78387  0.34527  0.32375  1.0000
  C   C136      1.0  0.79552  0.36660  0.32430  1.0000
  C   C137      1.0  0.81703  0.44036  0.33299  1.0000
  C   C138      1.0  0.79544  0.42903  0.32942  1.0000
  C   C139      1.0  0.78377  0.43869  0.33019  1.0000
  C   C140      1.0  0.79329  0.46009  0.33464  1.0000
  C   C141      1.0  0.81474  0.47167  0.33823  1.0000
  C   C142      1.0  0.82643  0.46189  0.33715  1.0000
  H   H73       1.0  0.82198  0.33494  0.34204  1.0000
  H   H74       1.0  0.84194  0.37141  0.34232  1.0000
  H   H75       1.0  0.76834  0.33848  0.31904  1.0000
  H   H76       1.0  0.78788  0.37450  0.31959  1.0000
  H   H77       1.0  0.78778  0.41347  0.32635  1.0000
  H   H78       1.0  0.76821  0.42990  0.32790  1.0000
  H   H79       1.0  0.84194  0.47074  0.33999  1.0000
  H   H80       1.0  0.82196  0.48722  0.34170  1.0000
  H   H81       1.0  0.88572  0.47089  0.33426  1.0000
  H   H82       1.0  0.92204  0.48895  0.33343  1.0000
  H   H83       1.0  0.92204  0.43328  0.33338  1.0000
  H   H84       1.0  0.88573  0.41504  0.33423  1.0000
  C   C143      1.0  0.60208  0.43013  0.33194  1.0000
  N   N25       1.0  0.59130  0.44004  0.33300  1.0000
  C   C144      1.0  0.57053  0.43006  0.33393  1.0000
  N   N26       1.0  0.56056  0.40928  0.33384  1.0000
  C   C145      1.0  0.57049  0.39851  0.33285  1.0000
  N   N27       1.0  0.59113  0.40949  0.33192  1.0000
  C   C146      1.0  0.55965  0.44093  0.33437  1.0000
  C   C147      1.0  0.57005  0.46253  0.33427  1.0000
  C   C148      1.0  0.55936  0.47328  0.33382  1.0000
  C   C149      1.0  0.53789  0.46269  0.33358  1.0000
  C   C150      1.0  0.52730  0.44121  0.33385  1.0000
  C   C151      1.0  0.53805  0.43053  0.33432  1.0000
  C   C152      1.0  0.62381  0.44033  0.33094  1.0000
  C   C153      1.0  0.63593  0.46183  0.33718  1.0000
  C   C154      1.0  0.65739  0.47162  0.33731  1.0000
  C   C155      1.0  0.66727  0.46010  0.33018  1.0000
  C   C156      1.0  0.65539  0.43872  0.32365  1.0000
  C   C157      1.0  0.63406  0.42904  0.32415  1.0000
  C   C158      1.0  0.56030  0.37679  0.33298  1.0000
  C   C159      1.0  0.57164  0.36654  0.32952  1.0000
  C   C160      1.0  0.56200  0.34521  0.33032  1.0000
  C   C161      1.0  0.54059  0.33332  0.33469  1.0000
  C   C162      1.0  0.52901  0.34319  0.33817  1.0000
  C   C163      1.0  0.53878  0.36465  0.33707  1.0000
  H   H85       1.0  0.66573  0.48715  0.34229  1.0000
  H   H86       1.0  0.62926  0.47064  0.34248  1.0000
  H   H87       1.0  0.66217  0.42997  0.31889  1.0000
  H   H88       1.0  0.62615  0.41350  0.31935  1.0000
  H   H89       1.0  0.58721  0.37445  0.32651  1.0000
  H   H90       1.0  0.57078  0.33844  0.32811  1.0000
  H   H91       1.0  0.52992  0.37131  0.33983  1.0000
  H   H92       1.0  0.51345  0.33484  0.34158  1.0000
  H   H93       1.0  0.52977  0.41496  0.33422  1.0000
  H   H94       1.0  0.51170  0.43320  0.33340  1.0000
  H   H95       1.0  0.56738  0.48888  0.33335  1.0000
  H   H96       1.0  0.58562  0.47081  0.33419  1.0000
  C   C164      1.0  0.57052  0.17209  0.33202  1.0000
  N   N28       1.0  0.56061  0.15139  0.33308  1.0000
  C   C165      1.0  0.57060  0.14061  0.33399  1.0000
  N   N29       1.0  0.59137  0.15141  0.33391  1.0000
  C   C166      1.0  0.60213  0.17211  0.33293  1.0000
  N   N30       1.0  0.59116  0.18178  0.33201  1.0000
  C   C167      1.0  0.55973  0.11886  0.33442  1.0000
  C   C168      1.0  0.53812  0.10765  0.33432  1.0000
  C   C169      1.0  0.52738  0.08622  0.33384  1.0000
  C   C170      1.0  0.53797  0.07534  0.33361  1.0000
  C   C171      1.0  0.55944  0.08622  0.33390  1.0000
  C   C172      1.0  0.57012  0.10765  0.33436  1.0000
  C   C173      1.0  0.56031  0.18360  0.33102  1.0000
  C   C174      1.0  0.53881  0.17421  0.33719  1.0000
  C   C175      1.0  0.52901  0.18588  0.33723  1.0000
  C   C176      1.0  0.54053  0.20729  0.33014  1.0000
  C   C177      1.0  0.56191  0.21679  0.32369  1.0000
  C   C178      1.0  0.57159  0.20514  0.32425  1.0000
  C   C179      1.0  0.62386  0.18365  0.33306  1.0000
  C   C180      1.0  0.63411  0.20523  0.32966  1.0000
  C   C181      1.0  0.65544  0.21691  0.33043  1.0000
  C   C182      1.0  0.66733  0.20740  0.33472  1.0000
  C   C183      1.0  0.65746  0.18595  0.33811  1.0000
  C   C184      1.0  0.63600  0.17425  0.33705  1.0000
  H   H97       1.0  0.51348  0.17868  0.34212  1.0000
  H   H98       1.0  0.53000  0.15873  0.34242  1.0000
  H   H99       1.0  0.57065  0.23232  0.31893  1.0000
  H   H100      1.0  0.58714  0.21279  0.31950  1.0000
  H   H101      1.0  0.62620  0.21289  0.32670  1.0000
  H   H102      1.0  0.66221  0.23247  0.32825  1.0000
  H   H103      1.0  0.62933  0.15874  0.33975  1.0000
  H   H104      1.0  0.66580  0.17873  0.34144  1.0000
  H   H105      1.0  0.58570  0.11495  0.33428  1.0000
  H   H106      1.0  0.56746  0.07864  0.33344  1.0000
  H   H107      1.0  0.51178  0.07863  0.33337  1.0000
  H   H108      1.0  0.52984  0.11494  0.33422  1.0000
  C   C185      1.0  0.05393  0.52700  0.33708  1.0000
  C   C186      1.0  0.04223  0.52116  0.41679  1.0000
  N   N31       1.0  0.02157  0.51084  0.41026  1.0000
  C   C187      1.0  0.98960  0.49488  0.33120  1.0000
  C   C188      1.0  0.95817  0.47918  0.41167  1.0000
  N   N32       1.0  0.97882  0.48949  0.40866  1.0000
  H   H109      1.0  0.95110  0.47565  0.47242  1.0000
  C   C189      1.0  0.05062  0.52536  0.50847  1.0000
  H   H110      1.0  0.06721  0.53364  0.50998  1.0000
  H   H111      1.0  0.04528  0.51099  0.54392  1.0000
  H   H112      1.0  0.04530  0.53441  0.54388  1.0000
  C   C190      1.0  0.47365  0.52705  0.33710  1.0000
  C   C191      1.0  0.47950  0.52118  0.41680  1.0000
  N   N33       1.0  0.48981  0.51085  0.41026  1.0000
  C   C192      1.0  0.49504  0.50561  0.33211  1.0000
  C   C193      1.0  0.50578  0.49485  0.33120  1.0000
  C   C194      1.0  0.52148  0.47911  0.41165  1.0000
  N   N34       1.0  0.51116  0.48944  0.40865  1.0000
  H   H113      1.0  0.52501  0.47557  0.47240  1.0000
  C   C195      1.0  0.47530  0.52538  0.50849  1.0000
  H   H114      1.0  0.46701  0.53368  0.51000  1.0000
  H   H115      1.0  0.48967  0.53441  0.54392  1.0000
  H   H116      1.0  0.46625  0.51101  0.54390  1.0000
  C   C196      1.0  0.47360  0.94674  0.33708  1.0000
  C   C197      1.0  0.47946  0.95844  0.41680  1.0000
  N   N35       1.0  0.48980  0.97910  0.41026  1.0000
  C   C198      1.0  0.49504  0.98956  0.33210  1.0000
  C   C199      1.0  0.50581  0.01107  0.33120  1.0000
  C   C200      1.0  0.52155  0.04250  0.41167  1.0000
  N   N36       1.0  0.51121  0.02185  0.40866  1.0000
  H   H117      1.0  0.52509  0.04958  0.47242  1.0000
  C   C201      1.0  0.47527  0.95005  0.50847  1.0000
  H   H118      1.0  0.46696  0.93346  0.50998  1.0000
  H   H119      1.0  0.46624  0.95539  0.54392  1.0000
  H   H120      1.0  0.48964  0.95537  0.54388  1.0000
  C   C202      1.0  0.28253  0.52676  0.41759  1.0000
  C   C203      1.0  0.30236  0.52952  0.41353  1.0000
  H   H121      1.0  0.31044  0.53190  0.47147  1.0000
  C   C204      1.0  0.21994  0.53144  0.33658  1.0000
  C   C205      1.0  0.22809  0.52959  0.41850  1.0000
  C   C206      1.0  0.24515  0.52676  0.42002  1.0000
  C   C207      1.0  0.25474  0.52670  0.50065  1.0000
  C   C208      1.0  0.27328  0.52668  0.49945  1.0000
  H   H122      1.0  0.24888  0.52773  0.56064  1.0000
  H   H123      1.0  0.28048  0.52771  0.55860  1.0000
  H   H124      1.0  0.22268  0.53206  0.47707  1.0000
  C   C209      1.0  0.47390  0.75591  0.41756  1.0000
  C   C210      1.0  0.47115  0.77298  0.41352  1.0000
  H   H125      1.0  0.46876  0.77868  0.47146  1.0000
  C   C211      1.0  0.46922  0.68862  0.33642  1.0000
  C   C212      1.0  0.47104  0.69862  0.41832  1.0000
  C   C213      1.0  0.47387  0.71851  0.41990  1.0000
  C   C214      1.0  0.47393  0.72815  0.50055  1.0000
  C   C215      1.0  0.47395  0.74672  0.49940  1.0000
  H   H126      1.0  0.47287  0.72124  0.56054  1.0000
  H   H127      1.0  0.47292  0.75288  0.55856  1.0000
  H   H128      1.0  0.46858  0.69075  0.47689  1.0000
  C   C216      1.0  0.24475  0.71813  0.41758  1.0000
  C   C217      1.0  0.22768  0.69830  0.41351  1.0000
  H   H129      1.0  0.22199  0.69022  0.47145  1.0000
  C   C218      1.0  0.31203  0.78071  0.33647  1.0000
  C   C219      1.0  0.30206  0.77253  0.41840  1.0000
  C   C220      1.0  0.28216  0.75549  0.41997  1.0000
  C   C221      1.0  0.27251  0.74590  0.50061  1.0000
  C   C222      1.0  0.25394  0.72736  0.49943  1.0000
  H   H130      1.0  0.27942  0.75175  0.56060  1.0000
  H   H131      1.0  0.24778  0.72017  0.55859  1.0000
  H   H132      1.0  0.30992  0.77796  0.47699  1.0000
  C   C223      1.0  0.71828  0.47382  0.41767  1.0000
  C   C224      1.0  0.69846  0.47107  0.41364  1.0000
  H   H133      1.0  0.69038  0.46866  0.47161  1.0000
  C   C225      1.0  0.78086  0.46908  0.33659  1.0000
  C   C226      1.0  0.77271  0.47095  0.41849  1.0000
  C   C227      1.0  0.75565  0.47378  0.42004  1.0000
  C   C228      1.0  0.74607  0.47386  0.50069  1.0000
  C   C229      1.0  0.72753  0.47388  0.49951  1.0000
  H   H134      1.0  0.75193  0.47279  0.56066  1.0000
  H   H135      1.0  0.72033  0.47284  0.55866  1.0000
  H   H136      1.0  0.77809  0.46846  0.47709  1.0000
  C   C230      1.0  0.52684  0.24458  0.41758  1.0000
  C   C231      1.0  0.52958  0.22750  0.41351  1.0000
  H   H137      1.0  0.53198  0.22182  0.47146  1.0000
  C   C232      1.0  0.53161  0.31190  0.33667  1.0000
  C   C233      1.0  0.52978  0.30190  0.41858  1.0000
  C   C234      1.0  0.52693  0.28201  0.42006  1.0000
  C   C235      1.0  0.52685  0.27234  0.50068  1.0000
  C   C236      1.0  0.52679  0.25376  0.49946  1.0000
  H   H138      1.0  0.52794  0.27927  0.56067  1.0000
  H   H139      1.0  0.52787  0.24761  0.55859  1.0000
  H   H140      1.0  0.53225  0.30977  0.47719  1.0000
  C   C237      1.0  0.75606  0.28241  0.41759  1.0000
  C   C238      1.0  0.77312  0.30224  0.41351  1.0000
  H   H141      1.0  0.77884  0.31030  0.47149  1.0000
  C   C239      1.0  0.68875  0.21984  0.33661  1.0000
  C   C240      1.0  0.69874  0.22802  0.41850  1.0000
  C   C241      1.0  0.71865  0.24506  0.42002  1.0000
  C   C242      1.0  0.72832  0.25463  0.50067  1.0000
  C   C243      1.0  0.74689  0.27317  0.49945  1.0000
  H   H142      1.0  0.72138  0.24882  0.56064  1.0000
  H   H143      1.0  0.75302  0.28040  0.55859  1.0000
  H   H144      1.0  0.69090  0.22261  0.47713  1.0000
