data_image0
_chemical_formula_structural       C4H2C4H2N4C4H2C4H2N4C4H2C4H2C4H2C4H2N4C4H2C4H2N4C4H2C4H2N4C4H2C4H2CNCNCNCNCNCNCNCNCNCNCNCNCNCNCNCNCNCNCNCNCNCNCNCNCNCNCNCNCNCNCNCNCNCNCNCNCNCNCNCNCNCNCNCNCNCNCNCN5C4H2C4H2N4C4H2C4H2N8C4H2C4H2N4C4H2C4H2N4C4H2C4H2N4
_chemical_formula_sum              "C144 H48 N96"
_cell_length_a       43.6436
_cell_length_b       34.2232
_cell_length_c       14.8464
_cell_angle_alpha    90
_cell_angle_beta     90
_cell_angle_gamma    90

_space_group_name_H-M_alt    "P 1"
_space_group_IT_number       1

loop_
  _space_group_symop_operation_xyz
  'x, y, z'

loop_
  _atom_site_type_symbol
  _atom_site_label
  _atom_site_symmetry_multiplicity
  _atom_site_fract_x
  _atom_site_fract_y
  _atom_site_fract_z
  _atom_site_occupancy
  C   C1        1.0  0.00278  0.96106  0.34325  1.0000
  C   C2        1.0  0.97498  0.98221  0.34137  1.0000
  C   C3        1.0  0.97531  0.02338  0.34108  1.0000
  C   C4        1.0  0.00338  0.04425  0.34285  1.0000
  H   H1        1.0  0.95478  0.03774  0.33984  1.0000
  H   H2        1.0  0.95436  0.96805  0.34020  1.0000
  C   C5        1.0  0.50681  0.46171  0.34240  1.0000
  C   C6        1.0  0.53488  0.48257  0.34087  1.0000
  C   C7        1.0  0.53517  0.52371  0.34139  1.0000
  C   C8        1.0  0.50733  0.54475  0.34327  1.0000
  H   H3        1.0  0.55578  0.53790  0.34042  1.0000
  H   H4        1.0  0.55543  0.46824  0.33965  1.0000
  N   N1        1.0  0.08809  0.15942  0.34924  1.0000
  N   N2        1.0  0.11243  0.18265  0.35064  1.0000
  N   N3        1.0  0.92243  0.84533  0.34992  1.0000
  N   N4        1.0  0.89789  0.82251  0.35038  1.0000
  C   C9        1.0  0.89672  0.21802  0.33861  1.0000
  C   C10       1.0  0.89292  0.17705  0.33241  1.0000
  C   C11       1.0  0.91886  0.15224  0.33368  1.0000
  C   C12       1.0  0.94864  0.16836  0.34065  1.0000
  H   H5        1.0  0.91585  0.12268  0.32928  1.0000
  H   H6        1.0  0.87152  0.16512  0.32730  1.0000
  C   C13       1.0  0.11449  0.79020  0.34242  1.0000
  C   C14       1.0  0.11783  0.83127  0.33663  1.0000
  C   C15       1.0  0.09161  0.85569  0.33737  1.0000
  C   C16       1.0  0.06196  0.83910  0.34335  1.0000
  H   H7        1.0  0.09431  0.88530  0.33316  1.0000
  H   H8        1.0  0.13911  0.84359  0.33210  1.0000
  N   N5        1.0  0.58791  0.66034  0.34996  1.0000
  N   N6        1.0  0.61241  0.68329  0.35117  1.0000
  N   N7        1.0  0.42203  0.34758  0.34810  1.0000
  N   N8        1.0  0.39739  0.32480  0.34926  1.0000
  C   C17       1.0  0.39587  0.71609  0.34348  1.0000
  C   C18       1.0  0.39222  0.67507  0.33797  1.0000
  C   C19       1.0  0.41831  0.65034  0.33875  1.0000
  C   C20       1.0  0.44812  0.66658  0.34459  1.0000
  H   H9        1.0  0.41542  0.62076  0.33463  1.0000
  H   H10       1.0  0.37084  0.66306  0.33338  1.0000
  C   C21       1.0  0.61507  0.29036  0.33958  1.0000
  C   C22       1.0  0.61812  0.33139  0.33273  1.0000
  C   C23       1.0  0.59169  0.35543  0.33376  1.0000
  C   C24       1.0  0.56214  0.33854  0.34097  1.0000
  H   H11       1.0  0.59420  0.38505  0.32881  1.0000
  H   H12       1.0  0.63930  0.34389  0.32716  1.0000
  C   C25       1.0  0.37882  0.07433  0.29748  1.0000
  C   C26       1.0  0.39273  0.10336  0.24292  1.0000
  C   C27       1.0  0.38546  0.14280  0.25552  1.0000
  C   C28       1.0  0.36324  0.15287  0.32002  1.0000
  H   H13       1.0  0.39659  0.16365  0.21850  1.0000
  H   H14       1.0  0.40983  0.09649  0.19847  1.0000
  C   C29       1.0  0.62652  0.93376  0.30768  1.0000
  C   C30       1.0  0.60925  0.90405  0.26463  1.0000
  C   C31       1.0  0.61770  0.86488  0.27392  1.0000
  C   C32       1.0  0.64403  0.85552  0.32416  1.0000
  H   H15       1.0  0.60448  0.84372  0.24460  1.0000
  H   H16       1.0  0.58969  0.91022  0.22941  1.0000
  N   N9        1.0  0.66127  0.12673  0.31886  1.0000
  N   N10       1.0  0.65366  0.08967  0.32243  1.0000
  N   N11       1.0  0.35121  0.88191  0.32708  1.0000
  N   N12       1.0  0.35935  0.91884  0.32736  1.0000
  C   C33       1.0  0.87808  0.57382  0.29491  1.0000
  C   C34       1.0  0.89195  0.60259  0.23973  1.0000
  C   C35       1.0  0.88394  0.64192  0.24984  1.0000
  C   C36       1.0  0.86123  0.65213  0.31284  1.0000
  H   H17       1.0  0.89516  0.66269  0.21278  1.0000
  H   H18       1.0  0.90947  0.59571  0.19674  1.0000
  C   C37       1.0  0.12679  0.43315  0.31112  1.0000
  C   C38       1.0  0.10950  0.40347  0.26810  1.0000
  C   C39       1.0  0.11831  0.36433  0.27556  1.0000
  C   C40       1.0  0.14498  0.35478  0.32416  1.0000
  H   H19       1.0  0.10500  0.34325  0.24625  1.0000
  H   H20       1.0  0.08971  0.40962  0.23401  1.0000
  N   N13       1.0  0.16227  0.62669  0.32247  1.0000
  N   N14       1.0  0.15431  0.58966  0.32475  1.0000
  N   N15       1.0  0.84969  0.38254  0.32614  1.0000
  N   N16       1.0  0.85816  0.41937  0.32619  1.0000
  C   C41       1.0  0.47383  0.01048  0.30902  1.0000
  C   C42       1.0  0.48911  0.04673  0.30318  1.0000
  C   C43       1.0  0.52117  0.04732  0.30338  1.0000
  C   C44       1.0  0.53721  0.01159  0.30810  1.0000
  H   H21       1.0  0.53235  0.07355  0.30085  1.0000
  H   H22       1.0  0.47741  0.07261  0.30114  1.0000
  C   C45       1.0  0.97345  0.51005  0.31401  1.0000
  C   C46       1.0  0.98892  0.54618  0.30803  1.0000
  C   C47       1.0  0.02100  0.54660  0.30889  1.0000
  C   C48       1.0  0.03701  0.51085  0.31439  1.0000
  H   H23       1.0  0.03224  0.57279  0.30588  1.0000
  H   H24       1.0  0.97731  0.57210  0.30510  1.0000
  N   N17       1.0  0.24344  0.28710  0.35898  1.0000
  N   N18       1.0  0.27329  0.28197  0.36095  1.0000
  N   N19       1.0  0.76561  0.72161  0.35907  1.0000
  N   N20       1.0  0.73582  0.72701  0.36092  1.0000
  C   C49       1.0  0.72423  0.24713  0.31506  1.0000
  C   C50       1.0  0.74451  0.21516  0.30189  1.0000
  C   C51       1.0  0.77637  0.22066  0.30441  1.0000
  C   C52       1.0  0.78817  0.25837  0.31942  1.0000
  H   H25       1.0  0.79055  0.19712  0.29643  1.0000
  H   H26       1.0  0.73650  0.18741  0.29207  1.0000
  C   C53       1.0  0.28759  0.76276  0.32421  1.0000
  C   C54       1.0  0.26742  0.79515  0.31576  1.0000
  C   C55       1.0  0.23552  0.78969  0.31631  1.0000
  C   C56       1.0  0.22361  0.75166  0.32495  1.0000
  H   H27       1.0  0.22137  0.81343  0.31170  1.0000
  H   H28       1.0  0.27553  0.82307  0.31047  1.0000
  C   C57       1.0  0.97646  0.14640  0.34245  1.0000
  N   N21       1.0  0.97780  0.10677  0.34125  1.0000
  C   C58       1.0  0.00468  0.08624  0.34345  1.0000
  N   N22       1.0  0.03147  0.10743  0.34699  1.0000
  C   C59       1.0  0.03169  0.14755  0.34858  1.0000
  N   N23       1.0  0.00373  0.16527  0.34619  1.0000
  C   C60       1.0  0.03376  0.86042  0.34409  1.0000
  N   N24       1.0  0.03152  0.90019  0.34320  1.0000
  C   C61       1.0  0.00391  0.91915  0.34395  1.0000
  N   N25       1.0  0.97785  0.89663  0.34558  1.0000
  C   C62       1.0  0.97858  0.85672  0.34655  1.0000
  N   N26       1.0  0.00696  0.84017  0.34577  1.0000
  C   C63       1.0  0.47633  0.64524  0.34527  1.0000
  N   N27       1.0  0.47855  0.60550  0.34375  1.0000
  C   C64       1.0  0.50617  0.58658  0.34443  1.0000
  N   N28       1.0  0.53226  0.60899  0.34671  1.0000
  C   C65       1.0  0.53158  0.64886  0.34845  1.0000
  N   N29       1.0  0.50317  0.66541  0.34763  1.0000
  C   C66       1.0  0.53392  0.35977  0.34231  1.0000
  N   N30       1.0  0.53245  0.39936  0.34115  1.0000
  C   C67       1.0  0.50556  0.41978  0.34285  1.0000
  N   N31       1.0  0.47880  0.39857  0.34578  1.0000
  C   C68       1.0  0.47862  0.35848  0.34718  1.0000
  N   N32       1.0  0.50665  0.34071  0.34541  1.0000
  C   C69       1.0  0.39743  0.96972  0.34294  1.0000
  N   N33       1.0  0.37966  0.00229  0.32911  1.0000
  C   C70       1.0  0.39296  0.03732  0.30711  1.0000
  N   N34       1.0  0.42390  0.03870  0.30186  1.0000
  C   C71       1.0  0.44196  0.00744  0.31405  1.0000
  N   N35       1.0  0.42822  0.97338  0.33406  1.0000
  C   C72       1.0  0.61623  0.03994  0.35120  1.0000
  N   N36       1.0  0.63107  0.00506  0.33869  1.0000
  C   C73       1.0  0.61487  0.97230  0.31491  1.0000
  N   N37       1.0  0.58407  0.97562  0.30526  1.0000
  C   C74       1.0  0.56906  0.00965  0.31469  1.0000
  N   N38       1.0  0.58559  0.04117  0.33764  1.0000
  C   C75       1.0  0.89654  0.46979  0.34391  1.0000
  N   N39       1.0  0.87897  0.50231  0.32826  1.0000
  C   C76       1.0  0.89253  0.53718  0.30676  1.0000
  N   N40       1.0  0.92352  0.53854  0.30334  1.0000
  C   C77       1.0  0.94146  0.50723  0.31750  1.0000
  N   N41       1.0  0.92745  0.47326  0.33720  1.0000
  C   C78       1.0  0.11642  0.53973  0.35241  1.0000
  N   N42       1.0  0.13121  0.50474  0.34053  1.0000
  C   C79       1.0  0.11497  0.47168  0.31901  1.0000
  N   N43       1.0  0.08407  0.47485  0.31105  1.0000
  C   C80       1.0  0.06897  0.50887  0.32026  1.0000
  N   N44       1.0  0.08566  0.54061  0.34082  1.0000
  C   C81       1.0  0.13707  0.24846  0.35356  1.0000
  N   N45       1.0  0.16732  0.23851  0.36405  1.0000
  C   C82       1.0  0.19035  0.26611  0.36301  1.0000
  N   N46       1.0  0.18250  0.30417  0.35070  1.0000
  C   C83       1.0  0.15315  0.31537  0.33855  1.0000
  N   N47       1.0  0.13141  0.28713  0.34031  1.0000
  C   C84       1.0  0.87243  0.75750  0.34744  1.0000
  N   N48       1.0  0.84248  0.76853  0.36056  1.0000
  C   C85       1.0  0.81880  0.74183  0.36009  1.0000
  N   N49       1.0  0.82573  0.70367  0.34569  1.0000
  C   C86       1.0  0.85465  0.69156  0.33086  1.0000
  N   N50       1.0  0.87717  0.71877  0.33180  1.0000
  C   C87       1.0  0.87250  0.24613  0.33830  1.0000
  N   N51       1.0  0.84212  0.23754  0.32779  1.0000
  C   C88       1.0  0.82003  0.26603  0.32712  1.0000
  N   N52       1.0  0.82900  0.30374  0.33740  1.0000
  C   C89       1.0  0.85876  0.31359  0.34893  1.0000
  N   N53       1.0  0.87990  0.28444  0.34896  1.0000
  C   C90       1.0  0.13900  0.76241  0.34218  1.0000
  N   N54       1.0  0.16930  0.77168  0.33198  1.0000
  C   C91       1.0  0.19176  0.74366  0.33093  1.0000
  N   N55       1.0  0.18325  0.70576  0.34064  1.0000
  C   C92       1.0  0.15368  0.69525  0.35206  1.0000
  N   N56       1.0  0.13208  0.72388  0.35277  1.0000
  C   C93       1.0  0.63746  0.74899  0.35264  1.0000
  N   N57       1.0  0.66798  0.73984  0.36432  1.0000
  C   C94       1.0  0.69048  0.76829  0.36575  1.0000
  N   N58       1.0  0.68156  0.80591  0.35326  1.0000
  C   C95       1.0  0.65228  0.81633  0.33925  1.0000
  N   N59       1.0  0.63119  0.78749  0.33936  1.0000
  C   C96       1.0  0.37197  0.25919  0.35155  1.0000
  N   N60       1.0  0.34162  0.26884  0.36510  1.0000
  C   C97       1.0  0.31883  0.24081  0.36736  1.0000
  N   N61       1.0  0.32730  0.20314  0.35367  1.0000
  C   C98       1.0  0.35630  0.19221  0.33778  1.0000
  N   N62       1.0  0.37783  0.22059  0.33673  1.0000
  C   C99       1.0  0.37189  0.74470  0.34257  1.0000
  N   N63       1.0  0.34109  0.73745  0.33324  1.0000
  C   C100      1.0  0.31999  0.76724  0.33054  1.0000
  N   N64       1.0  0.33062  0.80433  0.33815  1.0000
  C   C101      1.0  0.36048  0.81302  0.34874  1.0000
  N   N65       1.0  0.38055  0.78279  0.35058  1.0000
  C   C102      1.0  0.63965  0.26262  0.33857  1.0000
  N   N66       1.0  0.67018  0.27095  0.32618  1.0000
  C   C103      1.0  0.69192  0.24193  0.32272  1.0000
  N   N67       1.0  0.68221  0.20462  0.33346  1.0000
  C   C104      1.0  0.65273  0.19503  0.34756  1.0000
  N   N68       1.0  0.63190  0.22437  0.34989  1.0000
  N   N69       1.0  0.02917  0.02173  0.34455  1.0000
  N   N70       1.0  0.02884  0.98320  0.34467  1.0000
  N   N71       1.0  0.48127  0.52263  0.34445  1.0000
  N   N72       1.0  0.48098  0.48412  0.34410  1.0000
  C   C105      1.0  0.11094  0.22256  0.35515  1.0000
  C   C106      1.0  0.08088  0.23802  0.35986  1.0000
  C   C107      1.0  0.05518  0.21348  0.35846  1.0000
  C   C108      1.0  0.05843  0.17239  0.35226  1.0000
  H   H29       1.0  0.03410  0.22642  0.36179  1.0000
  H   H30       1.0  0.07705  0.26743  0.36450  1.0000
  C   C109      1.0  0.89903  0.78258  0.34850  1.0000
  C   C110      1.0  0.92898  0.76654  0.34682  1.0000
  C   C111      1.0  0.95496  0.79070  0.34651  1.0000
  C   C112      1.0  0.95194  0.83185  0.34775  1.0000
  H   H31       1.0  0.97601  0.77761  0.34508  1.0000
  H   H32       1.0  0.93248  0.73700  0.34610  1.0000
  N   N73       1.0  0.95018  0.20801  0.34608  1.0000
  N   N74       1.0  0.92617  0.23091  0.34519  1.0000
  N   N75       1.0  0.06092  0.79939  0.34843  1.0000
  N   N76       1.0  0.08515  0.77684  0.34808  1.0000
  C   C113      1.0  0.61113  0.72323  0.35336  1.0000
  C   C114      1.0  0.58101  0.73890  0.35552  1.0000
  C   C115      1.0  0.55513  0.71466  0.35415  1.0000
  C   C116      1.0  0.55830  0.67361  0.35084  1.0000
  H   H33       1.0  0.53404  0.72767  0.35557  1.0000
  H   H34       1.0  0.57720  0.76835  0.35840  1.0000
  C   C117      1.0  0.39839  0.28484  0.35241  1.0000
  C   C118      1.0  0.42838  0.26893  0.35607  1.0000
  C   C119      1.0  0.45438  0.29297  0.35487  1.0000
  C   C120      1.0  0.45158  0.33410  0.35011  1.0000
  H   H35       1.0  0.47535  0.27968  0.35744  1.0000
  H   H36       1.0  0.43198  0.23946  0.36003  1.0000
  N   N77       1.0  0.44943  0.70623  0.34950  1.0000
  N   N78       1.0  0.42536  0.72895  0.34901  1.0000
  N   N79       1.0  0.56130  0.29890  0.34698  1.0000
  N   N80       1.0  0.58577  0.27679  0.34635  1.0000
  N   N81       1.0  0.34941  0.12332  0.36632  1.0000
  N   N82       1.0  0.35709  0.08640  0.35693  1.0000
  N   N83       1.0  0.66045  0.88562  0.36003  1.0000
  N   N84       1.0  0.65209  0.92239  0.35307  1.0000
  C   C121      1.0  0.62926  0.07672  0.37073  1.0000
  C   C122      1.0  0.61220  0.10484  0.41975  1.0000
  C   C123      1.0  0.61970  0.14450  0.41326  1.0000
  C   C124      1.0  0.64493  0.15558  0.36017  1.0000
  H   H37       1.0  0.60652  0.16478  0.44587  1.0000
  H   H38       1.0  0.59295  0.09714  0.45492  1.0000
  C   C125      1.0  0.38693  0.93114  0.35904  1.0000
  C   C126      1.0  0.40677  0.90219  0.39480  1.0000
  C   C127      1.0  0.39832  0.86275  0.39270  1.0000
  C   C128      1.0  0.36965  0.85237  0.35663  1.0000
  H   H39       1.0  0.41323  0.84213  0.41651  1.0000
  H   H40       1.0  0.42798  0.90916  0.41933  1.0000
  N   N85       1.0  0.84759  0.62274  0.36010  1.0000
  N   N86       1.0  0.85580  0.58592  0.35262  1.0000
  N   N87       1.0  0.16138  0.38491  0.36015  1.0000
  N   N88       1.0  0.15274  0.42168  0.35466  1.0000
  C   C129      1.0  0.12946  0.57671  0.37123  1.0000
  C   C130      1.0  0.11243  0.60489  0.42016  1.0000
  C   C131      1.0  0.12036  0.64446  0.41530  1.0000
  C   C132      1.0  0.14598  0.65560  0.36381  1.0000
  H   H41       1.0  0.10714  0.66468  0.44795  1.0000
  H   H42       1.0  0.09301  0.59733  0.45463  1.0000
  C   C133      1.0  0.88548  0.43152  0.36021  1.0000
  C   C134      1.0  0.90461  0.40266  0.39920  1.0000
  C   C135      1.0  0.89581  0.36335  0.39764  1.0000
  C   C136      1.0  0.86753  0.35302  0.35868  1.0000
  H   H43       1.0  0.91032  0.34274  0.42352  1.0000
  H   H44       1.0  0.92559  0.40953  0.42554  1.0000
  N   N89       1.0  0.52081  0.97793  0.31234  1.0000
  N   N90       1.0  0.49097  0.97741  0.31292  1.0000
  N   N91       1.0  0.02044  0.47731  0.31882  1.0000
  N   N92       1.0  0.99056  0.47695  0.31882  1.0000
  C   C137      1.0  0.28645  0.24658  0.37604  1.0000
  C   C138      1.0  0.26588  0.21497  0.39118  1.0000
  C   C139      1.0  0.23398  0.22053  0.38814  1.0000
  C   C140      1.0  0.22227  0.25807  0.37085  1.0000
  H   H45       1.0  0.21970  0.19720  0.39753  1.0000
  H   H46       1.0  0.27374  0.18728  0.40281  1.0000
  C   C141      1.0  0.72289  0.76271  0.37336  1.0000
  C   C142      1.0  0.74364  0.79435  0.38587  1.0000
  C   C143      1.0  0.77553  0.78842  0.38329  1.0000
  C   C144      1.0  0.78701  0.75054  0.36880  1.0000
  H   H47       1.0  0.78999  0.81172  0.39056  1.0000
  H   H48       1.0  0.73592  0.82225  0.39532  1.0000
  N   N93       1.0  0.76727  0.28774  0.32965  1.0000
  N   N94       1.0  0.73744  0.28266  0.32792  1.0000
  N   N95       1.0  0.24446  0.72202  0.33160  1.0000
  N   N96       1.0  0.27427  0.72701  0.33134  1.0000
