data_image0
_chemical_formula_structural       C3H2C2HC2O2C3HCH3NHC3HCH3NHC3HC4H2C2O2C3H2NHC3H2NHC3H2C2HC2O2C3HCH3NHC3HCH3NHC3HC4H2C2O2C3H2NHC3H2NHC3H2C2HC2O2C3HCH3NHC3HCH3NHC3HC4H2C2O2C3H2NHC3H2NHC3H2C2HC2O2C3HCH3NHC3HCH3NHC3HC4H2C2O2C3H2NHC3H2NH
_chemical_formula_sum              "C120 H88 O16 N16"
_cell_length_a       30.3436
_cell_length_b       30.3436
_cell_length_c       14.9995
_cell_angle_alpha    90
_cell_angle_beta     90
_cell_angle_gamma    90

_space_group_name_H-M_alt    "P 1"
_space_group_IT_number       1

loop_
  _space_group_symop_operation_xyz
  'x, y, z'

loop_
  _atom_site_type_symbol
  _atom_site_label
  _atom_site_symmetry_multiplicity
  _atom_site_fract_x
  _atom_site_fract_y
  _atom_site_fract_z
  _atom_site_occupancy
  C   C1        1.0  0.49804  0.43812  0.27068  1.0000
  C   C2        1.0  0.46932  0.40873  0.22619  1.0000
  C   C3        1.0  0.42601  0.42323  0.20861  1.0000
  H   H1        1.0  0.03001  0.42829  0.27581  1.0000
  H   H2        1.0  0.40474  0.40135  0.17969  1.0000
  C   C4        1.0  0.03208  0.08790  0.39427  1.0000
  C   C5        1.0  0.00466  0.05693  0.35045  1.0000
  H   H3        1.0  0.47609  0.06856  0.32372  1.0000
  C   C6        1.0  0.02411  0.13422  0.39429  1.0000
  C   C7        1.0  0.48059  0.36399  0.20959  1.0000
  O   O1        1.0  0.04934  0.15876  0.45028  1.0000
  O   O2        1.0  0.45637  0.34258  0.14704  1.0000
  C   C8        1.0  0.99920  0.26461  0.21079  1.0000
  C   C9        1.0  0.99798  0.21828  0.22344  1.0000
  C   C10       1.0  0.00082  0.20044  0.31164  1.0000
  H   H4        1.0  0.00022  0.27651  0.14720  1.0000
  C   C11       1.0  0.99632  0.18965  0.14266  1.0000
  H   H5        1.0  0.99588  0.20827  0.08036  1.0000
  H   H6        1.0  0.46652  0.16950  0.14419  1.0000
  H   H7        1.0  0.02514  0.16813  0.14108  1.0000
  N   N1        1.0  0.00245  0.15569  0.32675  1.0000
  H   H8        1.0  0.99317  0.13712  0.27775  1.0000
  C   C12       1.0  0.22598  0.03321  0.36697  1.0000
  C   C13       1.0  0.27107  0.03595  0.34280  1.0000
  C   C14       1.0  0.29443  0.99689  0.31844  1.0000
  H   H9        1.0  0.20926  0.06196  0.37683  1.0000
  C   C15       1.0  0.29193  0.08040  0.33776  1.0000
  H   H10       1.0  0.26894  0.10720  0.35186  1.0000
  H   H11       1.0  0.30516  0.58580  0.27096  1.0000
  H   H12       1.0  0.31866  0.08268  0.38620  1.0000
  N   N2        1.0  0.33857  0.99787  0.29688  1.0000
  H   H13       1.0  0.35517  0.02284  0.31857  1.0000
  C   C16       1.0  0.48498  0.48062  0.30098  1.0000
  C   C17       1.0  0.40853  0.46175  0.24830  1.0000
  C   C18       1.0  0.43894  0.48961  0.29320  1.0000
  H   H14       1.0  0.42668  0.01664  0.32438  1.0000
  C   C19       1.0  0.01533  0.01140  0.34101  1.0000
  C   C20       1.0  0.05881  0.99976  0.36883  1.0000
  C   C21       1.0  0.08756  0.02904  0.41399  1.0000
  C   C22       1.0  0.07121  0.07158  0.43322  1.0000
  H   H15       1.0  0.06930  0.46818  0.36229  1.0000
  H   H16       1.0  0.09203  0.09369  0.46270  1.0000
  C   C23       1.0  0.13302  0.02073  0.43069  1.0000
  C   C24       1.0  0.36183  0.46751  0.24865  1.0000
  O   O3        1.0  0.33779  0.44156  0.19307  1.0000
  O   O4        1.0  0.15431  0.04750  0.48920  1.0000
  C   C25       1.0  0.00236  0.29477  0.28250  1.0000
  C   C26       1.0  0.00270  0.23095  0.38315  1.0000
  C   C27       1.0  0.00483  0.27654  0.36902  1.0000
  H   H17       1.0  0.00069  0.22051  0.44771  1.0000
  H   H18       1.0  0.00534  0.29669  0.42378  1.0000
  N   N3        1.0  0.00139  0.33981  0.27431  1.0000
  H   H19       1.0  0.00999  0.35617  0.32760  1.0000
  C   C28       1.0  0.20239  0.99285  0.36991  1.0000
  C   C29       1.0  0.27070  0.95654  0.32202  1.0000
  C   C30       1.0  0.22589  0.95467  0.34510  1.0000
  H   H20       1.0  0.28628  0.92714  0.31213  1.0000
  H   H21       1.0  0.21074  0.92453  0.34695  1.0000
  N   N4        1.0  0.15814  0.98973  0.38853  1.0000
  H   H22       1.0  0.14293  0.96406  0.36487  1.0000
  C   C31       1.0  0.49804  0.93812  0.27068  1.0000
  C   C32       1.0  0.46932  0.90873  0.22619  1.0000
  C   C33       1.0  0.42601  0.92323  0.20861  1.0000
  H   H23       1.0  0.03001  0.92829  0.27581  1.0000
  H   H24       1.0  0.40474  0.90135  0.17969  1.0000
  C   C34       1.0  0.03208  0.58790  0.39427  1.0000
  C   C35       1.0  0.00466  0.55693  0.35045  1.0000
  H   H25       1.0  0.47609  0.56856  0.32372  1.0000
  C   C36       1.0  0.02411  0.63422  0.39429  1.0000
  C   C37       1.0  0.48059  0.86399  0.20959  1.0000
  O   O5        1.0  0.04934  0.65876  0.45028  1.0000
  O   O6        1.0  0.45637  0.84258  0.14704  1.0000
  C   C38       1.0  0.99920  0.76461  0.21079  1.0000
  C   C39       1.0  0.99798  0.71828  0.22344  1.0000
  C   C40       1.0  0.00082  0.70044  0.31164  1.0000
  H   H26       1.0  0.00022  0.77651  0.14720  1.0000
  C   C41       1.0  0.99632  0.68964  0.14266  1.0000
  H   H27       1.0  0.99588  0.70827  0.08036  1.0000
  H   H28       1.0  0.46652  0.66951  0.14419  1.0000
  H   H29       1.0  0.02514  0.66813  0.14108  1.0000
  N   N5        1.0  0.00245  0.65569  0.32675  1.0000
  H   H30       1.0  0.99317  0.63712  0.27775  1.0000
  C   C42       1.0  0.22598  0.53321  0.36697  1.0000
  C   C43       1.0  0.27107  0.53595  0.34280  1.0000
  C   C44       1.0  0.29443  0.49689  0.31844  1.0000
  H   H31       1.0  0.20926  0.56196  0.37683  1.0000
  C   C45       1.0  0.29193  0.58040  0.33776  1.0000
  H   H32       1.0  0.26894  0.60720  0.35186  1.0000
  H   H33       1.0  0.30516  0.08580  0.27096  1.0000
  H   H34       1.0  0.31866  0.58268  0.38620  1.0000
  N   N6        1.0  0.33857  0.49787  0.29688  1.0000
  H   H35       1.0  0.35517  0.52284  0.31857  1.0000
  C   C46       1.0  0.48498  0.98062  0.30098  1.0000
  C   C47       1.0  0.40853  0.96175  0.24830  1.0000
  C   C48       1.0  0.43894  0.98961  0.29320  1.0000
  H   H36       1.0  0.42668  0.51664  0.32438  1.0000
  C   C49       1.0  0.01533  0.51140  0.34101  1.0000
  C   C50       1.0  0.05881  0.49976  0.36883  1.0000
  C   C51       1.0  0.08756  0.52904  0.41399  1.0000
  C   C52       1.0  0.07121  0.57158  0.43322  1.0000
  H   H37       1.0  0.06930  0.96818  0.36229  1.0000
  H   H38       1.0  0.09203  0.59368  0.46270  1.0000
  C   C53       1.0  0.13302  0.52073  0.43069  1.0000
  C   C54       1.0  0.36183  0.96751  0.24865  1.0000
  O   O7        1.0  0.33779  0.94156  0.19307  1.0000
  O   O8        1.0  0.15431  0.54750  0.48920  1.0000
  C   C55       1.0  0.00236  0.79477  0.28250  1.0000
  C   C56       1.0  0.00270  0.73094  0.38315  1.0000
  C   C57       1.0  0.00483  0.77654  0.36902  1.0000
  H   H39       1.0  0.00069  0.72051  0.44771  1.0000
  H   H40       1.0  0.00534  0.79668  0.42378  1.0000
  N   N7        1.0  0.00139  0.83981  0.27431  1.0000
  H   H41       1.0  0.00999  0.85617  0.32760  1.0000
  C   C58       1.0  0.20239  0.49285  0.36991  1.0000
  C   C59       1.0  0.27070  0.45654  0.32202  1.0000
  C   C60       1.0  0.22589  0.45467  0.34510  1.0000
  H   H42       1.0  0.28628  0.42713  0.31213  1.0000
  H   H43       1.0  0.21074  0.42453  0.34695  1.0000
  N   N8        1.0  0.15814  0.48973  0.38853  1.0000
  H   H44       1.0  0.14293  0.46406  0.36487  1.0000
  C   C61       1.0  0.99804  0.43812  0.27068  1.0000
  C   C62       1.0  0.96932  0.40873  0.22619  1.0000
  C   C63       1.0  0.92601  0.42323  0.20861  1.0000
  H   H45       1.0  0.53001  0.42829  0.27581  1.0000
  H   H46       1.0  0.90474  0.40135  0.17969  1.0000
  C   C64       1.0  0.53208  0.08790  0.39427  1.0000
  C   C65       1.0  0.50466  0.05693  0.35045  1.0000
  H   H47       1.0  0.97609  0.06856  0.32372  1.0000
  C   C66       1.0  0.52411  0.13422  0.39429  1.0000
  C   C67       1.0  0.98059  0.36399  0.20959  1.0000
  O   O9        1.0  0.54934  0.15876  0.45028  1.0000
  O   O10       1.0  0.95637  0.34258  0.14704  1.0000
  C   C68       1.0  0.49920  0.26461  0.21079  1.0000
  C   C69       1.0  0.49798  0.21828  0.22344  1.0000
  C   C70       1.0  0.50082  0.20044  0.31164  1.0000
  H   H48       1.0  0.50022  0.27651  0.14720  1.0000
  C   C71       1.0  0.49632  0.18965  0.14266  1.0000
  H   H49       1.0  0.49588  0.20827  0.08036  1.0000
  H   H50       1.0  0.96652  0.16950  0.14419  1.0000
  H   H51       1.0  0.52514  0.16813  0.14108  1.0000
  N   N9        1.0  0.50245  0.15569  0.32675  1.0000
  H   H52       1.0  0.49317  0.13712  0.27775  1.0000
  C   C72       1.0  0.72598  0.03321  0.36697  1.0000
  C   C73       1.0  0.77107  0.03595  0.34280  1.0000
  C   C74       1.0  0.79443  0.99689  0.31844  1.0000
  H   H53       1.0  0.70926  0.06196  0.37683  1.0000
  C   C75       1.0  0.79193  0.08040  0.33776  1.0000
  H   H54       1.0  0.76895  0.10720  0.35186  1.0000
  H   H55       1.0  0.80515  0.58580  0.27096  1.0000
  H   H56       1.0  0.81866  0.08268  0.38620  1.0000
  N   N10       1.0  0.83857  0.99787  0.29688  1.0000
  H   H57       1.0  0.85517  0.02284  0.31857  1.0000
  C   C76       1.0  0.98498  0.48062  0.30098  1.0000
  C   C77       1.0  0.90853  0.46175  0.24830  1.0000
  C   C78       1.0  0.93894  0.48961  0.29320  1.0000
  H   H58       1.0  0.92668  0.01664  0.32438  1.0000
  C   C79       1.0  0.51533  0.01140  0.34101  1.0000
  C   C80       1.0  0.55881  0.99976  0.36883  1.0000
  C   C81       1.0  0.58756  0.02904  0.41399  1.0000
  C   C82       1.0  0.57121  0.07158  0.43322  1.0000
  H   H59       1.0  0.56930  0.46818  0.36229  1.0000
  H   H60       1.0  0.59203  0.09369  0.46270  1.0000
  C   C83       1.0  0.63302  0.02073  0.43069  1.0000
  C   C84       1.0  0.86183  0.46751  0.24865  1.0000
  O   O11       1.0  0.83779  0.44156  0.19307  1.0000
  O   O12       1.0  0.65431  0.04750  0.48920  1.0000
  C   C85       1.0  0.50236  0.29477  0.28250  1.0000
  C   C86       1.0  0.50270  0.23095  0.38315  1.0000
  C   C87       1.0  0.50483  0.27654  0.36902  1.0000
  H   H61       1.0  0.50069  0.22051  0.44771  1.0000
  H   H62       1.0  0.50534  0.29669  0.42378  1.0000
  N   N11       1.0  0.50139  0.33981  0.27431  1.0000
  H   H63       1.0  0.50999  0.35617  0.32760  1.0000
  C   C88       1.0  0.70239  0.99285  0.36991  1.0000
  C   C89       1.0  0.77070  0.95654  0.32202  1.0000
  C   C90       1.0  0.72589  0.95467  0.34510  1.0000
  H   H64       1.0  0.78628  0.92714  0.31213  1.0000
  H   H65       1.0  0.71074  0.92453  0.34695  1.0000
  N   N12       1.0  0.65814  0.98973  0.38853  1.0000
  H   H66       1.0  0.64294  0.96406  0.36487  1.0000
  C   C91       1.0  0.99804  0.93812  0.27068  1.0000
  C   C92       1.0  0.96932  0.90873  0.22619  1.0000
  C   C93       1.0  0.92601  0.92323  0.20861  1.0000
  H   H67       1.0  0.53001  0.92829  0.27581  1.0000
  H   H68       1.0  0.90474  0.90135  0.17969  1.0000
  C   C94       1.0  0.53208  0.58790  0.39427  1.0000
  C   C95       1.0  0.50466  0.55693  0.35045  1.0000
  H   H69       1.0  0.97609  0.56856  0.32372  1.0000
  C   C96       1.0  0.52411  0.63422  0.39429  1.0000
  C   C97       1.0  0.98059  0.86399  0.20959  1.0000
  O   O13       1.0  0.54934  0.65876  0.45028  1.0000
  O   O14       1.0  0.95637  0.84258  0.14704  1.0000
  C   C98       1.0  0.49920  0.76461  0.21079  1.0000
  C   C99       1.0  0.49798  0.71828  0.22344  1.0000
  C   C100      1.0  0.50082  0.70044  0.31164  1.0000
  H   H70       1.0  0.50022  0.77651  0.14720  1.0000
  C   C101      1.0  0.49632  0.68964  0.14266  1.0000
  H   H71       1.0  0.49588  0.70827  0.08036  1.0000
  H   H72       1.0  0.96652  0.66951  0.14419  1.0000
  H   H73       1.0  0.52514  0.66813  0.14108  1.0000
  N   N13       1.0  0.50245  0.65569  0.32675  1.0000
  H   H74       1.0  0.49317  0.63712  0.27775  1.0000
  C   C102      1.0  0.72598  0.53321  0.36697  1.0000
  C   C103      1.0  0.77107  0.53595  0.34280  1.0000
  C   C104      1.0  0.79443  0.49689  0.31844  1.0000
  H   H75       1.0  0.70926  0.56196  0.37683  1.0000
  C   C105      1.0  0.79193  0.58040  0.33776  1.0000
  H   H76       1.0  0.76895  0.60720  0.35186  1.0000
  H   H77       1.0  0.80515  0.08580  0.27096  1.0000
  H   H78       1.0  0.81866  0.58268  0.38620  1.0000
  N   N14       1.0  0.83857  0.49787  0.29688  1.0000
  H   H79       1.0  0.85517  0.52284  0.31857  1.0000
  C   C106      1.0  0.98498  0.98062  0.30098  1.0000
  C   C107      1.0  0.90853  0.96175  0.24830  1.0000
  C   C108      1.0  0.93894  0.98961  0.29320  1.0000
  H   H80       1.0  0.92668  0.51664  0.32438  1.0000
  C   C109      1.0  0.51533  0.51140  0.34101  1.0000
  C   C110      1.0  0.55881  0.49976  0.36883  1.0000
  C   C111      1.0  0.58756  0.52904  0.41399  1.0000
  C   C112      1.0  0.57121  0.57158  0.43322  1.0000
  H   H81       1.0  0.56930  0.96818  0.36229  1.0000
  H   H82       1.0  0.59203  0.59368  0.46270  1.0000
  C   C113      1.0  0.63302  0.52073  0.43069  1.0000
  C   C114      1.0  0.86183  0.96751  0.24865  1.0000
  O   O15       1.0  0.83779  0.94156  0.19307  1.0000
  O   O16       1.0  0.65431  0.54750  0.48920  1.0000
  C   C115      1.0  0.50236  0.79477  0.28250  1.0000
  C   C116      1.0  0.50270  0.73094  0.38315  1.0000
  C   C117      1.0  0.50483  0.77654  0.36902  1.0000
  H   H83       1.0  0.50069  0.72051  0.44771  1.0000
  H   H84       1.0  0.50534  0.79668  0.42378  1.0000
  N   N15       1.0  0.50139  0.83981  0.27431  1.0000
  H   H85       1.0  0.50999  0.85617  0.32760  1.0000
  C   C118      1.0  0.70239  0.49285  0.36991  1.0000
  C   C119      1.0  0.77070  0.45654  0.32202  1.0000
  C   C120      1.0  0.72589  0.45467  0.34510  1.0000
  H   H86       1.0  0.78628  0.42713  0.31213  1.0000
  H   H87       1.0  0.71074  0.42453  0.34695  1.0000
  N   N16       1.0  0.65814  0.48973  0.38853  1.0000
  H   H88       1.0  0.64294  0.46406  0.36487  1.0000
