data_image0
_chemical_formula_structural       CH4CH4C3HCH3NHC3HCH3NHC3HCH3NHC5H2CHCHCHC5H2CHCHCHC3HCH3NHC3HCH3NHC3HCH3NHCH4CH4C3HCH3NHC3HCH3NHC3HCH3NHC5H2CHCHCHC5H2CHCHCHC3HCH3NHC3HCH3NHC3HCH3NHCH4CH4C3HCH3NHC3HCH3NHC3HCH3NHC5H2CHCHCHC5H2CHCHCHC3HCH3NHC3HCH3NHC3HCH3NHCH4CH4C3HCH3NHC3HCH3NHC3HCH3NHC5H2CHCHCHC5H2CHCHCHC3HCH3NHC3HCH3NHC3HCH3NH
_chemical_formula_sum              "C168 H192 N24"
_cell_length_a       43.8125
_cell_length_b       43.8125
_cell_length_c       15.0278
_cell_angle_alpha    90
_cell_angle_beta     90
_cell_angle_gamma    120

_space_group_name_H-M_alt    "P 1"
_space_group_IT_number       1

loop_
  _space_group_symop_operation_xyz
  'x, y, z'

loop_
  _atom_site_type_symbol
  _atom_site_label
  _atom_site_symmetry_multiplicity
  _atom_site_fract_x
  _atom_site_fract_y
  _atom_site_fract_z
  _atom_site_occupancy
  C   C1        1.0  0.20157  0.35642  0.41439  1.0000
  H   H1        1.0  0.22809  0.37373  0.41222  1.0000
  H   H2        1.0  0.23211  0.32077  0.34821  1.0000
  H   H3        1.0  0.08682  0.26558  0.34827  1.0000
  H   H4        1.0  0.17691  0.41088  0.34824  1.0000
  C   C2        1.0  0.29566  0.14173  0.24845  1.0000
  H   H5        1.0  0.26914  0.12442  0.25072  1.0000
  H   H6        1.0  0.26308  0.17917  0.19739  1.0000
  H   H7        1.0  0.41424  0.23460  0.19733  1.0000
  H   H8        1.0  0.31853  0.08345  0.19736  1.0000
  C   C3        1.0  0.21850  0.24343  0.28148  1.0000
  C   C4        1.0  0.24246  0.23378  0.24695  1.0000
  C   C5        1.0  0.27229  0.23913  0.29580  1.0000
  H   H9        1.0  0.23822  0.22262  0.18503  1.0000
  C   C6        1.0  0.18796  0.23709  0.22521  1.0000
  H   H10       1.0  0.17073  0.24513  0.25702  1.0000
  H   H11       1.0  0.17216  0.20905  0.20979  1.0000
  H   H12       1.0  0.19743  0.25176  0.16301  1.0000
  N   N1        1.0  0.29527  0.22836  0.25998  1.0000
  H   H13       1.0  0.30447  0.23994  0.19895  1.0000
  C   C7        1.0  0.25425  0.47460  0.28147  1.0000
  C   C8        1.0  0.26391  0.00822  0.24694  1.0000
  C   C9        1.0  0.25856  0.03270  0.29578  1.0000
  H   H14       1.0  0.27507  0.01514  0.18502  1.0000
  C   C10       1.0  0.26059  0.45040  0.22520  1.0000
  H   H15       1.0  0.25255  0.42513  0.25701  1.0000
  H   H16       1.0  0.28863  0.46265  0.20978  1.0000
  H   H17       1.0  0.24592  0.44520  0.16301  1.0000
  N   N2        1.0  0.26933  0.06645  0.25996  1.0000
  H   H18       1.0  0.25776  0.06407  0.19893  1.0000
  C   C11       1.0  0.02309  0.27919  0.28148  1.0000
  C   C12       1.0  0.48948  0.25523  0.24694  1.0000
  C   C13       1.0  0.46500  0.22540  0.29578  1.0000
  H   H19       1.0  0.48255  0.25947  0.18502  1.0000
  C   C14       1.0  0.04729  0.30973  0.22522  1.0000
  H   H20       1.0  0.07256  0.32696  0.25704  1.0000
  H   H21       1.0  0.03504  0.32553  0.20980  1.0000
  H   H22       1.0  0.05249  0.30026  0.16302  1.0000
  N   N3        1.0  0.43124  0.20242  0.25995  1.0000
  H   H23       1.0  0.43362  0.19322  0.19893  1.0000
  C   C15       1.0  0.18973  0.31993  0.41414  1.0000
  C   C16       1.0  0.17776  0.36935  0.41419  1.0000
  C   C17       1.0  0.14127  0.34469  0.41442  1.0000
  C   C18       1.0  0.12835  0.30796  0.41423  1.0000
  C   C19       1.0  0.15300  0.29612  0.41448  1.0000
  H   H24       1.0  0.12396  0.35391  0.41228  1.0000
  H   H25       1.0  0.14378  0.26960  0.41226  1.0000
  C   C20       1.0  0.21650  0.30851  0.40815  1.0000
  H   H26       1.0  0.23412  0.31897  0.46560  1.0000
  C   C21       1.0  0.09017  0.28119  0.40820  1.0000
  H   H27       1.0  0.08299  0.26357  0.46566  1.0000
  C   C22       1.0  0.18917  0.40753  0.40817  1.0000
  H   H28       1.0  0.17873  0.41470  0.46563  1.0000
  C   C23       1.0  0.30749  0.17822  0.24871  1.0000
  C   C24       1.0  0.31948  0.12881  0.24871  1.0000
  C   C25       1.0  0.35597  0.15347  0.24845  1.0000
  C   C26       1.0  0.36888  0.19021  0.24875  1.0000
  C   C27       1.0  0.34422  0.20204  0.24845  1.0000
  H   H29       1.0  0.37328  0.14426  0.25070  1.0000
  H   H30       1.0  0.35344  0.22856  0.25072  1.0000
  C   C28       1.0  0.28072  0.18962  0.25482  1.0000
  H   H31       1.0  0.26513  0.17736  0.31477  1.0000
  C   C29       1.0  0.40706  0.21697  0.25478  1.0000
  H   H32       1.0  0.41040  0.23258  0.31471  1.0000
  C   C30       1.0  0.30807  0.09064  0.25479  1.0000
  H   H33       1.0  0.32033  0.08730  0.31474  1.0000
  C   C31       1.0  0.22491  0.25899  0.36720  1.0000
  C   C32       1.0  0.27870  0.25469  0.38151  1.0000
  C   C33       1.0  0.25474  0.26434  0.41605  1.0000
  H   H34       1.0  0.25898  0.27550  0.47796  1.0000
  C   C34       1.0  0.30924  0.26103  0.43779  1.0000
  H   H35       1.0  0.32647  0.25299  0.40598  1.0000
  H   H36       1.0  0.29977  0.24636  0.49999  1.0000
  H   H37       1.0  0.32504  0.28908  0.45320  1.0000
  N   N4        1.0  0.20193  0.26977  0.40300  1.0000
  H   H38       1.0  0.19273  0.25820  0.46404  1.0000
  C   C35       1.0  0.23870  0.46546  0.36719  1.0000
  C   C36       1.0  0.24300  0.02355  0.38150  1.0000
  C   C37       1.0  0.23335  0.48994  0.41604  1.0000
  H   H39       1.0  0.22219  0.48302  0.47796  1.0000
  C   C38       1.0  0.23667  0.04775  0.43778  1.0000
  H   H40       1.0  0.24471  0.07303  0.40596  1.0000
  H   H41       1.0  0.25134  0.05296  0.49997  1.0000
  H   H42       1.0  0.20862  0.03551  0.45320  1.0000
  N   N5        1.0  0.22792  0.43170  0.40301  1.0000
  H   H43       1.0  0.23949  0.43407  0.46404  1.0000
  C   C39       1.0  0.03223  0.27277  0.36720  1.0000
  C   C40       1.0  0.47414  0.21899  0.38150  1.0000
  C   C41       1.0  0.00775  0.24294  0.41604  1.0000
  H   H44       1.0  0.01468  0.23871  0.47796  1.0000
  C   C42       1.0  0.44994  0.18845  0.43776  1.0000
  H   H45       1.0  0.42467  0.17122  0.40595  1.0000
  H   H46       1.0  0.44474  0.19792  0.49996  1.0000
  H   H47       1.0  0.46219  0.17265  0.45318  1.0000
  N   N6        1.0  0.06599  0.29575  0.40302  1.0000
  H   H48       1.0  0.06361  0.30495  0.46405  1.0000
  C   C43       1.0  0.20157  0.85642  0.41439  1.0000
  H   H49       1.0  0.22809  0.87373  0.41222  1.0000
  H   H50       1.0  0.23211  0.82077  0.34821  1.0000
  H   H51       1.0  0.08682  0.76558  0.34827  1.0000
  H   H52       1.0  0.17692  0.91088  0.34824  1.0000
  C   C44       1.0  0.29566  0.64172  0.24845  1.0000
  H   H53       1.0  0.26914  0.62442  0.25072  1.0000
  H   H54       1.0  0.26308  0.67917  0.19739  1.0000
  H   H55       1.0  0.41424  0.73460  0.19733  1.0000
  H   H56       1.0  0.31853  0.58345  0.19736  1.0000
  C   C45       1.0  0.21850  0.74343  0.28148  1.0000
  C   C46       1.0  0.24246  0.73377  0.24695  1.0000
  C   C47       1.0  0.27229  0.73913  0.29580  1.0000
  H   H57       1.0  0.23822  0.72262  0.18503  1.0000
  C   C48       1.0  0.18796  0.73709  0.22521  1.0000
  H   H58       1.0  0.17073  0.74513  0.25702  1.0000
  H   H59       1.0  0.17216  0.70905  0.20979  1.0000
  H   H60       1.0  0.19743  0.75176  0.16301  1.0000
  N   N7        1.0  0.29527  0.72836  0.25998  1.0000
  H   H61       1.0  0.30447  0.73994  0.19895  1.0000
  C   C49       1.0  0.25426  0.97461  0.28147  1.0000
  C   C50       1.0  0.26391  0.50822  0.24694  1.0000
  C   C51       1.0  0.25856  0.53270  0.29578  1.0000
  H   H62       1.0  0.27507  0.51514  0.18502  1.0000
  C   C52       1.0  0.26059  0.95040  0.22520  1.0000
  H   H63       1.0  0.25255  0.92513  0.25701  1.0000
  H   H64       1.0  0.28863  0.96265  0.20978  1.0000
  H   H65       1.0  0.24592  0.94520  0.16301  1.0000
  N   N8        1.0  0.26933  0.56645  0.25996  1.0000
  H   H66       1.0  0.25776  0.56407  0.19893  1.0000
  C   C53       1.0  0.02309  0.77919  0.28148  1.0000
  C   C54       1.0  0.48948  0.75523  0.24694  1.0000
  C   C55       1.0  0.46500  0.72540  0.29578  1.0000
  H   H67       1.0  0.48256  0.75947  0.18502  1.0000
  C   C56       1.0  0.04729  0.80973  0.22522  1.0000
  H   H68       1.0  0.07256  0.82696  0.25704  1.0000
  H   H69       1.0  0.03505  0.82553  0.20980  1.0000
  H   H70       1.0  0.05249  0.80026  0.16302  1.0000
  N   N9        1.0  0.43125  0.70242  0.25995  1.0000
  H   H71       1.0  0.43362  0.69322  0.19893  1.0000
  C   C57       1.0  0.18973  0.81993  0.41414  1.0000
  C   C58       1.0  0.17776  0.86935  0.41419  1.0000
  C   C59       1.0  0.14127  0.84469  0.41442  1.0000
  C   C60       1.0  0.12835  0.80796  0.41423  1.0000
  C   C61       1.0  0.15300  0.79612  0.41448  1.0000
  H   H72       1.0  0.12396  0.85391  0.41228  1.0000
  H   H73       1.0  0.14378  0.76960  0.41226  1.0000
  C   C62       1.0  0.21650  0.80852  0.40815  1.0000
  H   H74       1.0  0.23412  0.81897  0.46560  1.0000
  C   C63       1.0  0.09017  0.78119  0.40820  1.0000
  H   H75       1.0  0.08299  0.76357  0.46566  1.0000
  C   C64       1.0  0.18917  0.90752  0.40817  1.0000
  H   H76       1.0  0.17873  0.91470  0.46563  1.0000
  C   C65       1.0  0.30749  0.67822  0.24871  1.0000
  C   C66       1.0  0.31948  0.62881  0.24871  1.0000
  C   C67       1.0  0.35597  0.65347  0.24845  1.0000
  C   C68       1.0  0.36888  0.69021  0.24875  1.0000
  C   C69       1.0  0.34422  0.70204  0.24845  1.0000
  H   H77       1.0  0.37328  0.64426  0.25070  1.0000
  H   H78       1.0  0.35344  0.72856  0.25072  1.0000
  C   C70       1.0  0.28072  0.68962  0.25482  1.0000
  H   H79       1.0  0.26513  0.67736  0.31477  1.0000
  C   C71       1.0  0.40706  0.71698  0.25478  1.0000
  H   H80       1.0  0.41040  0.73258  0.31471  1.0000
  C   C72       1.0  0.30808  0.59064  0.25479  1.0000
  H   H81       1.0  0.32033  0.58730  0.31474  1.0000
  C   C73       1.0  0.22491  0.75899  0.36720  1.0000
  C   C74       1.0  0.27870  0.75469  0.38151  1.0000
  C   C75       1.0  0.25474  0.76434  0.41605  1.0000
  H   H82       1.0  0.25898  0.77550  0.47796  1.0000
  C   C76       1.0  0.30924  0.76103  0.43779  1.0000
  H   H83       1.0  0.32647  0.75299  0.40598  1.0000
  H   H84       1.0  0.29977  0.74636  0.49999  1.0000
  H   H85       1.0  0.32504  0.78908  0.45320  1.0000
  N   N10       1.0  0.20193  0.76977  0.40300  1.0000
  H   H86       1.0  0.19273  0.75820  0.46404  1.0000
  C   C77       1.0  0.23870  0.96546  0.36719  1.0000
  C   C78       1.0  0.24300  0.52355  0.38150  1.0000
  C   C79       1.0  0.23335  0.98994  0.41604  1.0000
  H   H87       1.0  0.22219  0.98301  0.47796  1.0000
  C   C80       1.0  0.23667  0.54775  0.43778  1.0000
  H   H88       1.0  0.24471  0.57303  0.40596  1.0000
  H   H89       1.0  0.25134  0.55295  0.49997  1.0000
  H   H90       1.0  0.20862  0.53551  0.45320  1.0000
  N   N11       1.0  0.22792  0.93170  0.40301  1.0000
  H   H91       1.0  0.23949  0.93408  0.46404  1.0000
  C   C81       1.0  0.03223  0.77277  0.36720  1.0000
  C   C82       1.0  0.47414  0.71899  0.38150  1.0000
  C   C83       1.0  0.00775  0.74294  0.41604  1.0000
  H   H92       1.0  0.01468  0.73871  0.47796  1.0000
  C   C84       1.0  0.44994  0.68844  0.43776  1.0000
  H   H93       1.0  0.42467  0.67122  0.40595  1.0000
  H   H94       1.0  0.44474  0.69791  0.49996  1.0000
  H   H95       1.0  0.46219  0.67265  0.45318  1.0000
  N   N12       1.0  0.06599  0.79575  0.40302  1.0000
  H   H96       1.0  0.06361  0.80495  0.46405  1.0000
  C   C85       1.0  0.70157  0.35642  0.41439  1.0000
  H   H97       1.0  0.72810  0.37373  0.41222  1.0000
  H   H98       1.0  0.73211  0.32077  0.34821  1.0000
  H   H99       1.0  0.58682  0.26558  0.34827  1.0000
  H   H100      1.0  0.67692  0.41088  0.34824  1.0000
  C   C86       1.0  0.79566  0.14173  0.24845  1.0000
  H   H101      1.0  0.76914  0.12442  0.25072  1.0000
  H   H102      1.0  0.76308  0.17917  0.19739  1.0000
  H   H103      1.0  0.91424  0.23460  0.19733  1.0000
  H   H104      1.0  0.81853  0.08345  0.19736  1.0000
  C   C87       1.0  0.71850  0.24343  0.28148  1.0000
  C   C88       1.0  0.74246  0.23378  0.24695  1.0000
  C   C89       1.0  0.77229  0.23913  0.29580  1.0000
  H   H105      1.0  0.73823  0.22262  0.18503  1.0000
  C   C90       1.0  0.68796  0.23709  0.22521  1.0000
  H   H106      1.0  0.67073  0.24513  0.25702  1.0000
  H   H107      1.0  0.67217  0.20905  0.20979  1.0000
  H   H108      1.0  0.69743  0.25176  0.16301  1.0000
  N   N13       1.0  0.79527  0.22836  0.25998  1.0000
  H   H109      1.0  0.80447  0.23994  0.19895  1.0000
  C   C91       1.0  0.75426  0.47460  0.28147  1.0000
  C   C92       1.0  0.76391  0.00822  0.24694  1.0000
  C   C93       1.0  0.75856  0.03270  0.29578  1.0000
  H   H110      1.0  0.77507  0.01514  0.18502  1.0000
  C   C94       1.0  0.76059  0.45040  0.22520  1.0000
  H   H111      1.0  0.75255  0.42513  0.25701  1.0000
  H   H112      1.0  0.78863  0.46265  0.20978  1.0000
  H   H113      1.0  0.74592  0.44520  0.16301  1.0000
  N   N14       1.0  0.76933  0.06645  0.25996  1.0000
  H   H114      1.0  0.75776  0.06407  0.19893  1.0000
  C   C95       1.0  0.52309  0.27919  0.28148  1.0000
  C   C96       1.0  0.98948  0.25523  0.24694  1.0000
  C   C97       1.0  0.96500  0.22540  0.29578  1.0000
  H   H115      1.0  0.98255  0.25947  0.18502  1.0000
  C   C98       1.0  0.54729  0.30973  0.22522  1.0000
  H   H116      1.0  0.57256  0.32696  0.25704  1.0000
  H   H117      1.0  0.53505  0.32553  0.20980  1.0000
  H   H118      1.0  0.55249  0.30026  0.16302  1.0000
  N   N15       1.0  0.93124  0.20242  0.25995  1.0000
  H   H119      1.0  0.93363  0.19322  0.19893  1.0000
  C   C99       1.0  0.68973  0.31993  0.41414  1.0000
  C   C100      1.0  0.67776  0.36935  0.41419  1.0000
  C   C101      1.0  0.64127  0.34469  0.41442  1.0000
  C   C102      1.0  0.62835  0.30796  0.41423  1.0000
  C   C103      1.0  0.65300  0.29612  0.41448  1.0000
  H   H120      1.0  0.62397  0.35391  0.41228  1.0000
  H   H121      1.0  0.64378  0.26960  0.41226  1.0000
  C   C104      1.0  0.71650  0.30851  0.40815  1.0000
  H   H122      1.0  0.73412  0.31897  0.46560  1.0000
  C   C105      1.0  0.59017  0.28119  0.40820  1.0000
  H   H123      1.0  0.58299  0.26357  0.46566  1.0000
  C   C106      1.0  0.68917  0.40753  0.40817  1.0000
  H   H124      1.0  0.67873  0.41470  0.46563  1.0000
  C   C107      1.0  0.80749  0.17822  0.24871  1.0000
  C   C108      1.0  0.81948  0.12881  0.24871  1.0000
  C   C109      1.0  0.85597  0.15347  0.24845  1.0000
  C   C110      1.0  0.86888  0.19021  0.24875  1.0000
  C   C111      1.0  0.84422  0.20204  0.24845  1.0000
  H   H125      1.0  0.87328  0.14426  0.25070  1.0000
  H   H126      1.0  0.85344  0.22856  0.25072  1.0000
  C   C112      1.0  0.78072  0.18962  0.25482  1.0000
  H   H127      1.0  0.76513  0.17736  0.31477  1.0000
  C   C113      1.0  0.90706  0.21697  0.25478  1.0000
  H   H128      1.0  0.91040  0.23258  0.31471  1.0000
  C   C114      1.0  0.80807  0.09064  0.25479  1.0000
  H   H129      1.0  0.82034  0.08730  0.31474  1.0000
  C   C115      1.0  0.72491  0.25899  0.36720  1.0000
  C   C116      1.0  0.77870  0.25469  0.38151  1.0000
  C   C117      1.0  0.75474  0.26434  0.41605  1.0000
  H   H130      1.0  0.75897  0.27550  0.47796  1.0000
  C   C118      1.0  0.80924  0.26103  0.43779  1.0000
  H   H131      1.0  0.82647  0.25299  0.40598  1.0000
  H   H132      1.0  0.79977  0.24636  0.49999  1.0000
  H   H133      1.0  0.82503  0.28908  0.45320  1.0000
  N   N16       1.0  0.70193  0.26977  0.40300  1.0000
  H   H134      1.0  0.69273  0.25820  0.46404  1.0000
  C   C119      1.0  0.73870  0.46546  0.36719  1.0000
  C   C120      1.0  0.74300  0.02355  0.38150  1.0000
  C   C121      1.0  0.73335  0.48994  0.41604  1.0000
  H   H135      1.0  0.72219  0.48302  0.47796  1.0000
  C   C122      1.0  0.73667  0.04775  0.43778  1.0000
  H   H136      1.0  0.74471  0.07303  0.40596  1.0000
  H   H137      1.0  0.75134  0.05296  0.49997  1.0000
  H   H138      1.0  0.70862  0.03551  0.45320  1.0000
  N   N17       1.0  0.72792  0.43170  0.40301  1.0000
  H   H139      1.0  0.73949  0.43407  0.46404  1.0000
  C   C123      1.0  0.53223  0.27277  0.36720  1.0000
  C   C124      1.0  0.97414  0.21899  0.38150  1.0000
  C   C125      1.0  0.50775  0.24294  0.41604  1.0000
  H   H140      1.0  0.51468  0.23871  0.47796  1.0000
  C   C126      1.0  0.94994  0.18845  0.43776  1.0000
  H   H141      1.0  0.92467  0.17122  0.40595  1.0000
  H   H142      1.0  0.94474  0.19792  0.49996  1.0000
  H   H143      1.0  0.96219  0.17265  0.45318  1.0000
  N   N18       1.0  0.56599  0.29575  0.40302  1.0000
  H   H144      1.0  0.56361  0.30495  0.46405  1.0000
  C   C127      1.0  0.70157  0.85642  0.41439  1.0000
  H   H145      1.0  0.72809  0.87373  0.41222  1.0000
  H   H146      1.0  0.73211  0.82077  0.34821  1.0000
  H   H147      1.0  0.58682  0.76558  0.34827  1.0000
  H   H148      1.0  0.67692  0.91088  0.34824  1.0000
  C   C128      1.0  0.79566  0.64172  0.24845  1.0000
  H   H149      1.0  0.76914  0.62442  0.25072  1.0000
  H   H150      1.0  0.76308  0.67917  0.19739  1.0000
  H   H151      1.0  0.91424  0.73460  0.19733  1.0000
  H   H152      1.0  0.81853  0.58345  0.19736  1.0000
  C   C129      1.0  0.71850  0.74343  0.28148  1.0000
  C   C130      1.0  0.74246  0.73377  0.24695  1.0000
  C   C131      1.0  0.77229  0.73913  0.29580  1.0000
  H   H153      1.0  0.73822  0.72262  0.18503  1.0000
  C   C132      1.0  0.68796  0.73709  0.22521  1.0000
  H   H154      1.0  0.67073  0.74513  0.25702  1.0000
  H   H155      1.0  0.67216  0.70905  0.20979  1.0000
  H   H156      1.0  0.69743  0.75176  0.16301  1.0000
  N   N19       1.0  0.79527  0.72836  0.25998  1.0000
  H   H157      1.0  0.80447  0.73994  0.19895  1.0000
  C   C133      1.0  0.75426  0.97461  0.28147  1.0000
  C   C134      1.0  0.76391  0.50822  0.24694  1.0000
  C   C135      1.0  0.75856  0.53270  0.29578  1.0000
  H   H158      1.0  0.77507  0.51514  0.18502  1.0000
  C   C136      1.0  0.76059  0.95040  0.22520  1.0000
  H   H159      1.0  0.75255  0.92513  0.25701  1.0000
  H   H160      1.0  0.78863  0.96265  0.20978  1.0000
  H   H161      1.0  0.74592  0.94520  0.16301  1.0000
  N   N20       1.0  0.76934  0.56645  0.25996  1.0000
  H   H162      1.0  0.75776  0.56407  0.19893  1.0000
  C   C137      1.0  0.52309  0.77919  0.28148  1.0000
  C   C138      1.0  0.98948  0.75523  0.24694  1.0000
  C   C139      1.0  0.96500  0.72540  0.29578  1.0000
  H   H163      1.0  0.98256  0.75947  0.18502  1.0000
  C   C140      1.0  0.54729  0.80973  0.22522  1.0000
  H   H164      1.0  0.57256  0.82696  0.25704  1.0000
  H   H165      1.0  0.53505  0.82553  0.20980  1.0000
  H   H166      1.0  0.55249  0.80026  0.16302  1.0000
  N   N21       1.0  0.93125  0.70242  0.25995  1.0000
  H   H167      1.0  0.93362  0.69322  0.19893  1.0000
  C   C141      1.0  0.68973  0.81993  0.41414  1.0000
  C   C142      1.0  0.67776  0.86935  0.41419  1.0000
  C   C143      1.0  0.64127  0.84469  0.41442  1.0000
  C   C144      1.0  0.62835  0.80796  0.41423  1.0000
  C   C145      1.0  0.65300  0.79612  0.41448  1.0000
  H   H168      1.0  0.62396  0.85391  0.41228  1.0000
  H   H169      1.0  0.64378  0.76960  0.41226  1.0000
  C   C146      1.0  0.71650  0.80852  0.40815  1.0000
  H   H170      1.0  0.73412  0.81897  0.46560  1.0000
  C   C147      1.0  0.59017  0.78119  0.40820  1.0000
  H   H171      1.0  0.58299  0.76357  0.46566  1.0000
  C   C148      1.0  0.68917  0.90752  0.40817  1.0000
  H   H172      1.0  0.67873  0.91470  0.46563  1.0000
  C   C149      1.0  0.80749  0.67822  0.24871  1.0000
  C   C150      1.0  0.81948  0.62881  0.24871  1.0000
  C   C151      1.0  0.85597  0.65347  0.24845  1.0000
  C   C152      1.0  0.86888  0.69021  0.24875  1.0000
  C   C153      1.0  0.84422  0.70204  0.24845  1.0000
  H   H173      1.0  0.87328  0.64426  0.25070  1.0000
  H   H174      1.0  0.85344  0.72856  0.25072  1.0000
  C   C154      1.0  0.78072  0.68962  0.25482  1.0000
  H   H175      1.0  0.76513  0.67736  0.31477  1.0000
  C   C155      1.0  0.90706  0.71698  0.25478  1.0000
  H   H176      1.0  0.91041  0.73258  0.31471  1.0000
  C   C156      1.0  0.80808  0.59064  0.25479  1.0000
  H   H177      1.0  0.82033  0.58730  0.31474  1.0000
  C   C157      1.0  0.72491  0.75899  0.36720  1.0000
  C   C158      1.0  0.77870  0.75469  0.38151  1.0000
  C   C159      1.0  0.75474  0.76434  0.41605  1.0000
  H   H178      1.0  0.75898  0.77550  0.47796  1.0000
  C   C160      1.0  0.80924  0.76103  0.43779  1.0000
  H   H179      1.0  0.82647  0.75299  0.40598  1.0000
  H   H180      1.0  0.79977  0.74636  0.49999  1.0000
  H   H181      1.0  0.82504  0.78908  0.45320  1.0000
  N   N22       1.0  0.70193  0.76977  0.40300  1.0000
  H   H182      1.0  0.69273  0.75820  0.46404  1.0000
  C   C161      1.0  0.73870  0.96546  0.36719  1.0000
  C   C162      1.0  0.74300  0.52355  0.38150  1.0000
  C   C163      1.0  0.73335  0.98994  0.41604  1.0000
  H   H183      1.0  0.72219  0.98301  0.47796  1.0000
  C   C164      1.0  0.73667  0.54775  0.43778  1.0000
  H   H184      1.0  0.74471  0.57303  0.40596  1.0000
  H   H185      1.0  0.75134  0.55295  0.49997  1.0000
  H   H186      1.0  0.70862  0.53551  0.45320  1.0000
  N   N23       1.0  0.72792  0.93170  0.40301  1.0000
  H   H187      1.0  0.73949  0.93408  0.46404  1.0000
  C   C165      1.0  0.53223  0.77277  0.36720  1.0000
  C   C166      1.0  0.97414  0.71899  0.38150  1.0000
  C   C167      1.0  0.50775  0.74294  0.41604  1.0000
  H   H188      1.0  0.51468  0.73871  0.47796  1.0000
  C   C168      1.0  0.94994  0.68844  0.43776  1.0000
  H   H189      1.0  0.92467  0.67122  0.40595  1.0000
  H   H190      1.0  0.94474  0.69791  0.49996  1.0000
  H   H191      1.0  0.96219  0.67265  0.45318  1.0000
  N   N24       1.0  0.56599  0.79575  0.40302  1.0000
  H   H192      1.0  0.56361  0.80495  0.46405  1.0000
