data_image0
_chemical_formula_structural       C2HC2N2H2C4NC8NC20H15N4C3NC3NC5NC5NC20H18N4C3NC3NC5NC5NC20H18N4C2HC6H3CHC2HC6H3CHC2HC6H3CHC2HC6H3CHC2HC6H3CHC2HC6H3CHC8H8C8H8C8H8C2NC2NHCH3CHC2NC2NHCH3CHC2NC2NHCH3CHC2NC2NHCH3CHC2NC2NHCH3CHC2NC2NHCH3CH
_chemical_formula_sum              "C222 H138 N36"
_cell_length_a       58.2011
_cell_length_b       58.2011
_cell_length_c       14.9891
_cell_angle_alpha    90.0854
_cell_angle_beta     89.9146
_cell_angle_gamma    120

_space_group_name_H-M_alt    "P 1"
_space_group_IT_number       1

loop_
  _space_group_symop_operation_xyz
  'x, y, z'

loop_
  _atom_site_type_symbol
  _atom_site_label
  _atom_site_symmetry_multiplicity
  _atom_site_fract_x
  _atom_site_fract_y
  _atom_site_fract_z
  _atom_site_occupancy
  C   C1        1.0  0.00400  0.58970  0.32860  1.0000
  C   C2        1.0  0.00150  0.48944  0.32923  1.0000
  H   H1        1.0  0.00213  0.62605  0.32091  1.0000
  C   C3        1.0  0.01322  0.61692  0.32403  1.0000
  C   C4        1.0  0.00962  0.47058  0.32395  1.0000
  N   N1        1.0  0.02605  0.58742  0.33188  1.0000
  N   N2        1.0  0.02418  0.51327  0.33192  1.0000
  H   H2        1.0  0.02563  0.57077  0.33697  1.0000
  H   H3        1.0  0.02459  0.52991  0.33750  1.0000
  C   C5        1.0  0.04061  0.63011  0.32412  1.0000
  C   C6        1.0  0.04873  0.61125  0.32922  1.0000
  C   C7        1.0  0.07556  0.61710  0.33080  1.0000
  C   C8        1.0  0.08369  0.59780  0.33249  1.0000
  N   N3        1.0  0.06820  0.57110  0.33125  1.0000
  C   C9        1.0  0.08271  0.55883  0.33224  1.0000
  C   C10       1.0  0.10926  0.57900  0.33405  1.0000
  C   C11       1.0  0.10986  0.60298  0.33488  1.0000
  C   C12       1.0  0.07340  0.53115  0.33015  1.0000
  C   C13       1.0  0.04623  0.51099  0.32861  1.0000
  C   C14       1.0  0.03701  0.48376  0.32385  1.0000
  C   C15       1.0  0.97467  0.48359  0.33092  1.0000
  C   C16       1.0  0.96653  0.50288  0.33265  1.0000
  N   N4        1.0  0.98202  0.52958  0.33129  1.0000
  C   C17       1.0  0.96752  0.54185  0.33230  1.0000
  C   C18       1.0  0.94097  0.52168  0.33414  1.0000
  C   C19       1.0  0.94037  0.49770  0.33504  1.0000
  C   C20       1.0  0.97683  0.56954  0.33008  1.0000
  C   C21       1.0  0.95731  0.57743  0.32588  1.0000
  C   C22       1.0  0.91458  0.58786  0.31464  1.0000
  C   C23       1.0  0.92834  0.58762  0.23696  1.0000
  C   C24       1.0  0.94936  0.58231  0.24244  1.0000
  C   C25       1.0  0.95433  0.45642  0.32935  1.0000
  C   C26       1.0  0.91189  0.40308  0.32793  1.0000
  C   C27       1.0  0.91916  0.41845  0.24936  1.0000
  C   C28       1.0  0.94035  0.44477  0.24968  1.0000
  C   C29       1.0  0.09292  0.52325  0.32580  1.0000
  C   C30       1.0  0.10079  0.51821  0.24232  1.0000
  C   C31       1.0  0.12174  0.51279  0.23670  1.0000
  C   C32       1.0  0.13547  0.51254  0.31429  1.0000
  C   C33       1.0  0.09591  0.64426  0.32920  1.0000
  C   C34       1.0  0.10993  0.65585  0.24950  1.0000
  C   C35       1.0  0.13855  0.69750  0.32789  1.0000
  C   C36       1.0  0.13120  0.68212  0.24923  1.0000
  H   H4        1.0  0.14144  0.68990  0.19112  1.0000
  H   H5        1.0  0.10517  0.64502  0.19174  1.0000
  H   H6        1.0  0.05240  0.65026  0.32075  1.0000
  H   H7        1.0  0.12681  0.62108  0.33622  1.0000
  H   H8        1.0  0.12571  0.57697  0.33469  1.0000
  H   H9        1.0  0.09177  0.51911  0.18489  1.0000
  H   H10       1.0  0.12714  0.50957  0.17512  1.0000
  H   H11       1.0  0.04810  0.47463  0.32066  1.0000
  H   H12       1.0  0.99783  0.45042  0.32047  1.0000
  H   H13       1.0  0.92451  0.52371  0.33474  1.0000
  H   H14       1.0  0.92342  0.47960  0.33638  1.0000
  H   H15       1.0  0.94509  0.45558  0.19194  1.0000
  H   H16       1.0  0.90897  0.41062  0.19124  1.0000
  H   H17       1.0  0.95839  0.58139  0.18494  1.0000
  H   H18       1.0  0.92287  0.59071  0.17541  1.0000
  N   N5        1.0  0.89083  0.37891  0.32407  1.0000
  N   N6        1.0  0.15652  0.50922  0.31406  1.0000
  N   N7        1.0  0.15971  0.72160  0.32409  1.0000
  N   N8        1.0  0.89342  0.59100  0.31449  1.0000
  C   C37       1.0  0.44462  0.48459  0.32364  1.0000
  C   C38       1.0  0.45781  0.47040  0.32361  1.0000
  C   C39       1.0  0.48504  0.48841  0.32790  1.0000
  N   N9        1.0  0.48731  0.51274  0.33099  1.0000
  C   C40       1.0  0.46348  0.51159  0.32846  1.0000
  C   C41       1.0  0.45763  0.53257  0.32983  1.0000
  C   C42       1.0  0.47692  0.56000  0.33132  1.0000
  N   N10       1.0  0.50362  0.57121  0.33019  1.0000
  C   C43       1.0  0.51589  0.59799  0.33099  1.0000
  C   C44       1.0  0.49572  0.60437  0.33253  1.0000
  C   C45       1.0  0.47173  0.58098  0.33337  1.0000
  C   C46       1.0  0.54357  0.61636  0.32900  1.0000
  C   C47       1.0  0.56374  0.60936  0.32776  1.0000
  N   N11       1.0  0.56146  0.58503  0.33093  1.0000
  C   C48       1.0  0.58530  0.58618  0.32847  1.0000
  C   C49       1.0  0.60416  0.61317  0.32366  1.0000
  C   C50       1.0  0.59097  0.62736  0.32354  1.0000
  C   C51       1.0  0.59115  0.56520  0.32991  1.0000
  C   C52       1.0  0.57185  0.53777  0.33145  1.0000
  N   N12       1.0  0.54516  0.52656  0.33031  1.0000
  C   C53       1.0  0.53289  0.49978  0.33113  1.0000
  C   C54       1.0  0.55306  0.49341  0.33269  1.0000
  C   C55       1.0  0.57704  0.51680  0.33355  1.0000
  C   C56       1.0  0.50520  0.48141  0.32920  1.0000
  C   C57       1.0  0.49731  0.45400  0.32496  1.0000
  C   C58       1.0  0.48689  0.40083  0.31363  1.0000
  C   C59       1.0  0.48708  0.41476  0.23599  1.0000
  C   C60       1.0  0.49237  0.44109  0.24152  1.0000
  C   C61       1.0  0.61832  0.57203  0.32836  1.0000
  C   C62       1.0  0.67165  0.58290  0.32699  1.0000
  C   C63       1.0  0.65631  0.57483  0.24833  1.0000
  C   C64       1.0  0.62999  0.56972  0.24863  1.0000
  C   C65       1.0  0.55148  0.64378  0.32470  1.0000
  C   C66       1.0  0.55663  0.65666  0.24126  1.0000
  C   C67       1.0  0.56207  0.68304  0.23564  1.0000
  C   C68       1.0  0.56222  0.69705  0.31317  1.0000
  C   C69       1.0  0.43046  0.52574  0.32825  1.0000
  C   C70       1.0  0.41884  0.52803  0.24852  1.0000
  C   C71       1.0  0.37721  0.51510  0.32698  1.0000
  C   C72       1.0  0.39257  0.52305  0.24828  1.0000
  H   H19       1.0  0.38477  0.52541  0.19014  1.0000
  H   H20       1.0  0.42965  0.53404  0.19072  1.0000
  H   H21       1.0  0.42446  0.47623  0.32039  1.0000
  H   H22       1.0  0.44868  0.45017  0.32062  1.0000
  H   H23       1.0  0.50396  0.52898  0.33576  1.0000
  H   H24       1.0  0.54481  0.56879  0.33567  1.0000
  H   H25       1.0  0.45363  0.57984  0.33468  1.0000
  H   H26       1.0  0.49774  0.62285  0.33302  1.0000
  H   H27       1.0  0.55580  0.64672  0.18385  1.0000
  H   H28       1.0  0.56535  0.69162  0.17407  1.0000
  H   H29       1.0  0.60010  0.64759  0.32054  1.0000
  H   H30       1.0  0.62432  0.62154  0.32043  1.0000
  H   H31       1.0  0.55103  0.47492  0.33319  1.0000
  H   H32       1.0  0.59514  0.51794  0.33476  1.0000
  H   H33       1.0  0.61921  0.56367  0.19083  1.0000
  H   H34       1.0  0.66416  0.57249  0.19017  1.0000
  H   H35       1.0  0.49325  0.45099  0.18405  1.0000
  H   H36       1.0  0.48392  0.40614  0.17445  1.0000
  N   N13       1.0  0.69581  0.58600  0.32317  1.0000
  N   N14       1.0  0.56552  0.72140  0.31292  1.0000
  N   N15       1.0  0.35312  0.51219  0.32323  1.0000
  N   N16       1.0  0.48375  0.37654  0.31343  1.0000
  C   C73       1.0  0.59010  0.03410  0.32217  1.0000
  C   C74       1.0  0.60431  0.06149  0.32220  1.0000
  C   C75       1.0  0.58632  0.07072  0.32684  1.0000
  N   N17       1.0  0.56198  0.04867  0.33003  1.0000
  C   C76       1.0  0.56312  0.02598  0.32732  1.0000
  C   C77       1.0  0.54213  0.99916  0.32892  1.0000
  C   C78       1.0  0.51470  0.99103  0.33067  1.0000
  N   N18       1.0  0.50350  0.00653  0.32941  1.0000
  C   C79       1.0  0.47672  0.99203  0.33052  1.0000
  C   C80       1.0  0.47034  0.96548  0.33233  1.0000
  C   C81       1.0  0.49372  0.96487  0.33306  1.0000
  C   C82       1.0  0.45836  0.00135  0.32846  1.0000
  C   C83       1.0  0.46538  0.02851  0.32688  1.0000
  N   N19       1.0  0.48971  0.05056  0.33006  1.0000
  C   C84       1.0  0.48857  0.07325  0.32736  1.0000
  C   C85       1.0  0.46158  0.06513  0.32230  1.0000
  C   C86       1.0  0.44738  0.03774  0.32233  1.0000
  C   C87       1.0  0.50955  0.10008  0.32890  1.0000
  C   C88       1.0  0.53698  0.10820  0.33058  1.0000
  N   N20       1.0  0.54818  0.09271  0.32932  1.0000
  C   C89       1.0  0.57496  0.10721  0.33043  1.0000
  C   C90       1.0  0.58135  0.13376  0.33232  1.0000
  C   C91       1.0  0.55796  0.13436  0.33303  1.0000
  C   C92       1.0  0.59332  0.09788  0.32842  1.0000
  C   C93       1.0  0.62075  0.11740  0.32449  1.0000
  C   C94       1.0  0.67392  0.16014  0.31393  1.0000
  C   C95       1.0  0.66004  0.14649  0.23603  1.0000
  C   C96       1.0  0.63370  0.12545  0.24118  1.0000
  C   C97       1.0  0.50273  0.12042  0.32735  1.0000
  C   C98       1.0  0.49185  0.16288  0.32600  1.0000
  C   C99       1.0  0.50001  0.15561  0.24741  1.0000
  C   C100      1.0  0.50512  0.13440  0.24769  1.0000
  C   C101      1.0  0.43094  0.98183  0.32442  1.0000
  C   C102      1.0  0.41801  0.97387  0.24109  1.0000
  C   C103      1.0  0.39163  0.95294  0.23583  1.0000
  C   C104      1.0  0.37767  0.93928  0.31363  1.0000
  C   C105      1.0  0.54895  0.97880  0.32731  1.0000
  C   C106      1.0  0.54656  0.96477  0.24764  1.0000
  C   C107      1.0  0.55957  0.93617  0.32602  1.0000
  C   C108      1.0  0.55156  0.94349  0.24738  1.0000
  H   H37       1.0  0.54915  0.93326  0.18927  1.0000
  H   H38       1.0  0.54053  0.96952  0.18988  1.0000
  H   H39       1.0  0.59846  0.02230  0.31873  1.0000
  H   H40       1.0  0.62453  0.07258  0.31905  1.0000
  H   H41       1.0  0.54575  0.04909  0.33534  1.0000
  H   H42       1.0  0.50594  0.05014  0.33516  1.0000
  H   H43       1.0  0.49486  0.94791  0.33446  1.0000
  H   H44       1.0  0.45185  0.94903  0.33303  1.0000
  H   H45       1.0  0.42791  0.98285  0.18353  1.0000
  H   H46       1.0  0.38300  0.94748  0.17437  1.0000
  H   H47       1.0  0.42716  0.02665  0.31925  1.0000
  H   H48       1.0  0.45323  0.07692  0.31889  1.0000
  H   H49       1.0  0.59983  0.15021  0.33311  1.0000
  H   H50       1.0  0.55682  0.15132  0.33452  1.0000
  H   H51       1.0  0.51124  0.12968  0.18994  1.0000
  H   H52       1.0  0.50241  0.16580  0.18931  1.0000
  H   H53       1.0  0.62384  0.11650  0.18354  1.0000
  H   H54       1.0  0.66871  0.15201  0.17459  1.0000
  N   N21       1.0  0.48876  0.18394  0.32221  1.0000
  N   N22       1.0  0.35331  0.91823  0.31371  1.0000
  N   N23       1.0  0.56248  0.91500  0.32227  1.0000
  N   N24       1.0  0.69822  0.18129  0.31408  1.0000
  C   C109      1.0  0.27851  0.50125  0.24205  1.0000
  C   C110      1.0  0.30151  0.49987  0.26117  1.0000
  H   H55       1.0  0.31325  0.50037  0.20929  1.0000
  C   C111      1.0  0.23925  0.50201  0.29775  1.0000
  C   C112      1.0  0.19368  0.50640  0.26729  1.0000
  C   C113      1.0  0.20960  0.50685  0.19500  1.0000
  C   C114      1.0  0.23243  0.50470  0.20898  1.0000
  C   C115      1.0  0.24862  0.50544  0.13754  1.0000
  C   C116      1.0  0.27147  0.50368  0.15394  1.0000
  H   H56       1.0  0.24402  0.50742  0.07319  1.0000
  H   H57       1.0  0.28301  0.50443  0.10117  1.0000
  H   H58       1.0  0.20472  0.50906  0.13115  1.0000
  C   C117      1.0  0.17183  0.50955  0.25146  1.0000
  H   H59       1.0  0.16852  0.51313  0.18936  1.0000
  C   C118      1.0  0.57343  0.85129  0.24100  1.0000
  C   C119      1.0  0.57479  0.87566  0.26014  1.0000
  H   H60       1.0  0.57427  0.88686  0.20827  1.0000
  C   C120      1.0  0.57274  0.81133  0.29665  1.0000
  C   C121      1.0  0.56845  0.76139  0.26613  1.0000
  C   C122      1.0  0.56795  0.77679  0.19385  1.0000
  C   C123      1.0  0.57005  0.80176  0.20787  1.0000
  C   C124      1.0  0.56927  0.81714  0.13645  1.0000
  C   C125      1.0  0.57099  0.84174  0.15288  1.0000
  H   H61       1.0  0.56730  0.81051  0.07209  1.0000
  H   H62       1.0  0.57023  0.85249  0.10013  1.0000
  H   H63       1.0  0.56575  0.76966  0.12999  1.0000
  C   C126      1.0  0.56541  0.73643  0.25023  1.0000
  H   H64       1.0  0.56206  0.72959  0.18803  1.0000
  C   C127      1.0  0.22339  0.79617  0.24257  1.0000
  C   C128      1.0  0.19900  0.77319  0.26182  1.0000
  H   H65       1.0  0.18776  0.76145  0.21000  1.0000
  C   C129      1.0  0.26344  0.83539  0.29805  1.0000
  C   C130      1.0  0.31347  0.88088  0.26733  1.0000
  C   C131      1.0  0.29800  0.86497  0.19511  1.0000
  C   C132      1.0  0.27297  0.84218  0.20923  1.0000
  C   C133      1.0  0.25752  0.82600  0.13787  1.0000
  C   C134      1.0  0.23289  0.80319  0.15440  1.0000
  H   H66       1.0  0.26412  0.83058  0.07347  1.0000
  H   H67       1.0  0.22210  0.79165  0.10169  1.0000
  H   H68       1.0  0.30510  0.86983  0.13122  1.0000
  C   C135      1.0  0.33850  0.90266  0.25137  1.0000
  H   H69       1.0  0.34557  0.90573  0.18946  1.0000
  C   C136      1.0  0.77071  0.59752  0.24202  1.0000
  C   C137      1.0  0.74758  0.59871  0.26102  1.0000
  H   H70       1.0  0.73582  0.59805  0.20910  1.0000
  C   C138      1.0  0.81010  0.59714  0.29790  1.0000
  C   C139      1.0  0.85588  0.59304  0.26771  1.0000
  C   C140      1.0  0.83994  0.59239  0.19534  1.0000
  C   C141      1.0  0.81701  0.59441  0.20918  1.0000
  C   C142      1.0  0.80080  0.59347  0.13768  1.0000
  C   C143      1.0  0.77785  0.59506  0.15396  1.0000
  H   H71       1.0  0.80548  0.59146  0.07336  1.0000
  H   H72       1.0  0.76630  0.59417  0.10115  1.0000
  H   H73       1.0  0.84489  0.59016  0.13153  1.0000
  C   C144      1.0  0.87777  0.58995  0.25205  1.0000
  H   H74       1.0  0.88087  0.58584  0.19031  1.0000
  C   C145      1.0  0.47724  0.24725  0.24099  1.0000
  C   C146      1.0  0.47606  0.22296  0.26001  1.0000
  H   H75       1.0  0.47673  0.21182  0.20809  1.0000
  C   C147      1.0  0.47758  0.28705  0.29683  1.0000
  C   C148      1.0  0.48163  0.33688  0.26661  1.0000
  C   C149      1.0  0.48229  0.32154  0.19425  1.0000
  C   C150      1.0  0.48031  0.29662  0.20812  1.0000
  C   C151      1.0  0.48127  0.28131  0.13663  1.0000
  C   C152      1.0  0.47971  0.25678  0.15292  1.0000
  H   H76       1.0  0.48328  0.28793  0.07231  1.0000
  H   H77       1.0  0.48061  0.24609  0.10012  1.0000
  H   H78       1.0  0.48453  0.32867  0.13044  1.0000
  C   C153      1.0  0.48466  0.36183  0.25092  1.0000
  H   H79       1.0  0.48865  0.36894  0.18911  1.0000
  C   C154      1.0  0.82753  0.30407  0.24256  1.0000
  C   C155      1.0  0.85183  0.32717  0.26170  1.0000
  H   H80       1.0  0.86301  0.33894  0.20984  1.0000
  C   C156      1.0  0.78765  0.26470  0.29820  1.0000
  C   C157      1.0  0.73776  0.21901  0.26773  1.0000
  C   C158      1.0  0.75316  0.23494  0.19544  1.0000
  C   C159      1.0  0.77811  0.25783  0.20944  1.0000
  C   C160      1.0  0.79349  0.27405  0.13802  1.0000
  C   C161      1.0  0.81804  0.29697  0.15444  1.0000
  H   H81       1.0  0.78688  0.26940  0.07367  1.0000
  H   H82       1.0  0.82877  0.30853  0.10169  1.0000
  H   H83       1.0  0.74605  0.23002  0.13160  1.0000
  C   C162      1.0  0.71276  0.19716  0.25193  1.0000
  H   H84       1.0  0.70550  0.19429  0.19036  1.0000
  C   C163      1.0  0.94421  0.57847  0.40385  1.0000
  C   C164      1.0  0.92311  0.58370  0.39809  1.0000
  C   C165      1.0  0.94696  0.44113  0.40831  1.0000
  C   C166      1.0  0.92596  0.41470  0.40758  1.0000
  C   C167      1.0  0.12704  0.51691  0.39777  1.0000
  C   C168      1.0  0.10603  0.52226  0.40367  1.0000
  C   C169      1.0  0.10331  0.65957  0.40820  1.0000
  C   C170      1.0  0.12439  0.68597  0.40752  1.0000
  H   H85       1.0  0.12988  0.69639  0.46605  1.0000
  H   H86       1.0  0.09376  0.65144  0.46705  1.0000
  H   H87       1.0  0.10088  0.52618  0.46478  1.0000
  H   H88       1.0  0.13668  0.51699  0.45496  1.0000
  H   H89       1.0  0.95651  0.44929  0.46713  1.0000
  H   H90       1.0  0.92054  0.40426  0.46605  1.0000
  H   H91       1.0  0.91343  0.58358  0.45534  1.0000
  H   H92       1.0  0.94938  0.57462  0.46492  1.0000
  C   C171      1.0  0.49632  0.43991  0.40291  1.0000
  C   C172      1.0  0.49112  0.41360  0.39708  1.0000
  C   C173      1.0  0.63358  0.57994  0.40738  1.0000
  C   C174      1.0  0.66001  0.58535  0.40667  1.0000
  C   C175      1.0  0.55773  0.68427  0.39662  1.0000
  C   C176      1.0  0.55237  0.65791  0.40254  1.0000
  C   C177      1.0  0.41518  0.51796  0.40732  1.0000
  C   C178      1.0  0.38878  0.51264  0.40665  1.0000
  H   H93       1.0  0.37837  0.50779  0.46523  1.0000
  H   H94       1.0  0.42333  0.51664  0.46620  1.0000
  H   H95       1.0  0.54833  0.64885  0.46360  1.0000
  H   H96       1.0  0.55754  0.69384  0.45376  1.0000
  H   H97       1.0  0.62539  0.58128  0.46625  1.0000
  H   H98       1.0  0.67041  0.59033  0.46521  1.0000
  H   H99       1.0  0.49125  0.40408  0.45430  1.0000
  H   H100      1.0  0.50023  0.44900  0.46396  1.0000
  C   C179      1.0  0.63477  0.13040  0.40267  1.0000
  C   C180      1.0  0.66111  0.15150  0.39725  1.0000
  C   C181      1.0  0.49476  0.12779  0.40633  1.0000
  C   C182      1.0  0.48932  0.14879  0.40562  1.0000
  C   C183      1.0  0.39048  0.94781  0.39696  1.0000
  C   C184      1.0  0.41685  0.96881  0.40250  1.0000
  C   C185      1.0  0.55681  0.97141  0.40631  1.0000
  C   C186      1.0  0.56209  0.95031  0.40565  1.0000
  H   H101      1.0  0.56702  0.94485  0.46418  1.0000
  H   H102      1.0  0.55818  0.98097  0.46516  1.0000
  H   H103      1.0  0.42594  0.97401  0.46350  1.0000
  H   H104      1.0  0.38095  0.93820  0.45428  1.0000
  H   H105      1.0  0.49334  0.11825  0.46515  1.0000
  H   H106      1.0  0.48430  0.15423  0.46413  1.0000
  H   H107      1.0  0.67059  0.16110  0.45464  1.0000
  H   H108      1.0  0.62565  0.12515  0.46365  1.0000
  C   C187      1.0  0.30865  0.49797  0.35010  1.0000
  C   C188      1.0  0.29155  0.49699  0.41990  1.0000
  N   N25       1.0  0.26950  0.49824  0.39842  1.0000
  C   C189      1.0  0.26226  0.50033  0.31411  1.0000
  C   C190      1.0  0.20153  0.50344  0.35392  1.0000
  N   N26       1.0  0.22357  0.50147  0.36592  1.0000
  H   H109      1.0  0.19104  0.50307  0.40918  1.0000
  C   C191      1.0  0.29569  0.49544  0.51679  1.0000
  H   H110      1.0  0.31419  0.49590  0.53224  1.0000
  H   H111      1.0  0.27934  0.47709  0.54359  1.0000
  H   H112      1.0  0.29601  0.51220  0.55084  1.0000
  C   C192      1.0  0.33160  0.49691  0.36584  1.0000
  H   H113      1.0  0.33123  0.48402  0.41004  1.0000
  C   C193      1.0  0.57672  0.88478  0.34907  1.0000
  C   C194      1.0  0.57771  0.86872  0.41885  1.0000
  N   N27       1.0  0.57648  0.84541  0.39734  1.0000
  C   C195      1.0  0.57438  0.83602  0.31304  1.0000
  C   C196      1.0  0.57141  0.77226  0.35276  1.0000
  N   N28       1.0  0.57333  0.79627  0.36480  1.0000
  H   H114      1.0  0.57183  0.76221  0.40800  1.0000
  C   C197      1.0  0.57930  0.87449  0.51574  1.0000
  H   H115      1.0  0.57883  0.89254  0.53120  1.0000
  H   H116      1.0  0.59767  0.87654  0.54244  1.0000
  H   H117      1.0  0.56257  0.85808  0.54987  1.0000
  C   C198      1.0  0.57777  0.90880  0.36483  1.0000
  H   H118      1.0  0.59067  0.92136  0.40898  1.0000
  C   C199      1.0  0.18993  0.76607  0.35080  1.0000
  C   C200      1.0  0.20605  0.78317  0.42052  1.0000
  N   N29       1.0  0.22937  0.80519  0.39890  1.0000
  C   C201      1.0  0.23872  0.81242  0.31455  1.0000
  C   C202      1.0  0.30263  0.87307  0.35402  1.0000
  N   N30       1.0  0.27858  0.85106  0.36615  1.0000
  H   H119      1.0  0.31275  0.88354  0.40922  1.0000
  C   C203      1.0  0.20035  0.77905  0.51744  1.0000
  H   H120      1.0  0.18228  0.76057  0.53298  1.0000
  H   H121      1.0  0.19836  0.79541  0.54429  1.0000
  H   H122      1.0  0.21675  0.77870  0.55137  1.0000
  C   C204      1.0  0.16592  0.74312  0.36667  1.0000
  H   H123      1.0  0.15339  0.74350  0.41094  1.0000
  C   C205      1.0  0.74036  0.60064  0.34991  1.0000
  C   C206      1.0  0.75748  0.60183  0.41977  1.0000
  N   N31       1.0  0.77964  0.60075  0.39840  1.0000
  C   C207      1.0  0.78697  0.59864  0.31415  1.0000
  C   C208      1.0  0.84794  0.59604  0.35427  1.0000
  N   N32       1.0  0.82579  0.59786  0.36615  1.0000
  H   H124      1.0  0.85841  0.59651  0.40958  1.0000
  C   C209      1.0  0.75326  0.60345  0.51663  1.0000
  H   H125      1.0  0.73469  0.60287  0.53199  1.0000
  H   H126      1.0  0.76951  0.62189  0.54333  1.0000
  H   H127      1.0  0.75306  0.58680  0.55083  1.0000
  C   C210      1.0  0.71729  0.60151  0.36554  1.0000
  H   H128      1.0  0.71754  0.61443  0.40952  1.0000
  C   C211      1.0  0.47412  0.21387  0.34889  1.0000
  C   C212      1.0  0.47292  0.22985  0.41875  1.0000
  N   N33       1.0  0.47399  0.25307  0.39735  1.0000
  C   C213      1.0  0.47610  0.26245  0.31310  1.0000
  C   C214      1.0  0.47863  0.32601  0.35317  1.0000
  N   N34       1.0  0.47683  0.30206  0.36506  1.0000
  H   H129      1.0  0.47813  0.33604  0.40848  1.0000
  C   C215      1.0  0.47127  0.22408  0.51559  1.0000
  H   H130      1.0  0.47186  0.20610  0.53096  1.0000
  H   H131      1.0  0.45282  0.22190  0.54223  1.0000
  H   H132      1.0  0.48791  0.24055  0.54986  1.0000
  C   C216      1.0  0.47325  0.18995  0.36454  1.0000
  H   H133      1.0  0.46031  0.17730  0.40845  1.0000
  C   C217      1.0  0.86088  0.33437  0.35064  1.0000
  C   C218      1.0  0.84485  0.31723  0.42041  1.0000
  N   N35       1.0  0.82162  0.29509  0.39890  1.0000
  C   C219      1.0  0.81228  0.28779  0.31459  1.0000
  C   C220      1.0  0.74860  0.22689  0.35434  1.0000
  N   N36       1.0  0.77258  0.24900  0.36636  1.0000
  H   H134      1.0  0.73851  0.21642  0.40960  1.0000
  C   C221      1.0  0.85056  0.32143  0.51729  1.0000
  H   H135      1.0  0.86855  0.33999  0.53276  1.0000
  H   H136      1.0  0.85269  0.30515  0.54402  1.0000
  H   H137      1.0  0.83409  0.32165  0.55141  1.0000
  C   C222      1.0  0.88480  0.35743  0.36641  1.0000
  H   H138      1.0  0.89741  0.35716  0.41044  1.0000
