data_image0
_chemical_formula_structural       C8H12C3H2NHC3H2NHC3NC3NC5NC5NC20H18CHCHCHCHCN3HCN3H
_chemical_formula_sum              "C56 H42 N12"
_cell_length_a       25.2494
_cell_length_b       25.251
_cell_length_c       15.0148
_cell_angle_alpha    90
_cell_angle_beta     90
_cell_angle_gamma    90.0377

_space_group_name_H-M_alt    "P 1"
_space_group_IT_number       1

loop_
  _space_group_symop_operation_xyz
  'x, y, z'

loop_
  _atom_site_type_symbol
  _atom_site_label
  _atom_site_symmetry_multiplicity
  _atom_site_fract_x
  _atom_site_fract_y
  _atom_site_fract_z
  _atom_site_occupancy
  C   C1        1.0  0.71809  0.96536  0.27646  1.0000
  C   C2        1.0  0.77329  0.97198  0.27057  1.0000
  C   C3        1.0  0.96513  0.27838  0.27918  1.0000
  C   C4        1.0  0.97128  0.22315  0.27284  1.0000
  C   C5        1.0  0.21397  0.03771  0.24435  1.0000
  C   C6        1.0  0.26893  0.04534  0.23684  1.0000
  C   C7        1.0  0.03403  0.78241  0.24028  1.0000
  C   C8        1.0  0.04111  0.72742  0.23212  1.0000
  H   H1        1.0  0.04893  0.71195  0.17055  1.0000
  H   H2        1.0  0.03709  0.80569  0.18468  1.0000
  H   H3        1.0  0.19072  0.04212  0.18898  1.0000
  H   H4        1.0  0.28440  0.05496  0.17598  1.0000
  H   H5        1.0  0.97514  0.20609  0.21134  1.0000
  H   H6        1.0  0.96469  0.30043  0.22200  1.0000
  H   H7        1.0  0.79048  0.97624  0.20925  1.0000
  H   H8        1.0  0.69616  0.96498  0.21914  1.0000
  H   H9        1.0  0.92166  0.37391  0.32595  1.0000
  H   H10       1.0  0.62222  0.92222  0.32123  1.0000
  H   H11       1.0  0.05748  0.62518  0.23241  1.0000
  H   H12       1.0  0.37124  0.06151  0.23824  1.0000
  C   C9        1.0  0.00855  0.46673  0.24675  1.0000
  C   C10       1.0  0.00574  0.52214  0.23992  1.0000
  C   C11       1.0  0.99608  0.55240  0.31730  1.0000
  H   H13       1.0  0.01064  0.54010  0.17945  1.0000
  H   H14       1.0  0.01570  0.44423  0.19142  1.0000
  N   N1        1.0  0.99257  0.60810  0.31766  1.0000
  H   H15       1.0  0.96417  0.61937  0.27244  1.0000
  C   C12       1.0  0.52938  0.01116  0.24709  1.0000
  C   C13       1.0  0.47391  0.00885  0.24075  1.0000
  C   C14       1.0  0.44389  0.99776  0.31786  1.0000
  H   H16       1.0  0.45575  0.01509  0.18082  1.0000
  H   H17       1.0  0.55171  0.01934  0.19194  1.0000
  N   N2        1.0  0.38817  0.99442  0.31861  1.0000
  H   H18       1.0  0.37660  0.96714  0.27166  1.0000
  C   C15       1.0  0.91777  0.85000  0.33255  1.0000
  C   C16       1.0  0.87452  0.88329  0.33627  1.0000
  C   C17       1.0  0.89295  0.93543  0.34035  1.0000
  N   N3        1.0  0.94649  0.93177  0.33980  1.0000
  C   C18       1.0  0.96363  0.88099  0.33504  1.0000
  C   C19       1.0  0.01628  0.86102  0.33190  1.0000
  C   C20       1.0  0.06280  0.89263  0.33212  1.0000
  N   N4        1.0  0.06616  0.94599  0.33514  1.0000
  C   C21       1.0  0.11690  0.96289  0.33249  1.0000
  C   C22       1.0  0.14818  0.91737  0.32782  1.0000
  C   C23       1.0  0.11486  0.87406  0.32829  1.0000
  C   C24       1.0  0.13550  0.01594  0.33366  1.0000
  C   C25       1.0  0.10265  0.06161  0.33800  1.0000
  N   N5        1.0  0.04910  0.06522  0.33800  1.0000
  C   C26       1.0  0.03191  0.11596  0.34310  1.0000
  C   C27       1.0  0.07771  0.14700  0.34684  1.0000
  C   C28       1.0  0.12100  0.11373  0.34374  1.0000
  C   C29       1.0  0.97927  0.13595  0.34476  1.0000
  C   C30       1.0  0.93273  0.10445  0.34391  1.0000
  N   N6        1.0  0.92946  0.05108  0.34239  1.0000
  C   C31       1.0  0.87871  0.03422  0.34393  1.0000
  C   C32       1.0  0.84735  0.07976  0.34624  1.0000
  C   C33       1.0  0.88067  0.12308  0.34598  1.0000
  C   C34       1.0  0.86017  0.98116  0.34359  1.0000
  C   C35       1.0  0.80447  0.97336  0.34859  1.0000
  C   C36       1.0  0.77968  0.96765  0.43234  1.0000
  C   C37       1.0  0.72453  0.96074  0.43797  1.0000
  C   C38       1.0  0.69303  0.95966  0.36015  1.0000
  C   C39       1.0  0.97250  0.19175  0.35061  1.0000
  C   C40       1.0  0.96721  0.21635  0.43458  1.0000
  C   C41       1.0  0.96081  0.27154  0.44066  1.0000
  C   C42       1.0  0.95980  0.30325  0.36308  1.0000
  C   C43       1.0  0.19119  0.02392  0.32706  1.0000
  C   C44       1.0  0.30237  0.03898  0.31159  1.0000
  C   C45       1.0  0.27940  0.02511  0.39426  1.0000
  C   C46       1.0  0.22434  0.01785  0.40213  1.0000
  C   C47       1.0  0.02304  0.80524  0.32413  1.0000
  C   C48       1.0  0.01888  0.77207  0.39955  1.0000
  C   C49       1.0  0.02546  0.71699  0.39103  1.0000
  C   C50       1.0  0.03683  0.69399  0.30731  1.0000
  H   H19       1.0  0.02208  0.69368  0.44649  1.0000
  H   H20       1.0  0.01086  0.78778  0.46094  1.0000
  H   H21       1.0  0.91534  0.80968  0.32821  1.0000
  H   H22       1.0  0.83601  0.87081  0.33479  1.0000
  H   H23       1.0  0.96971  0.96183  0.34307  1.0000
  H   H24       1.0  0.02591  0.03524  0.33250  1.0000
  H   H25       1.0  0.12721  0.83557  0.32526  1.0000
  H   H26       1.0  0.18855  0.91530  0.32458  1.0000
  H   H27       1.0  0.20867  0.00778  0.46269  1.0000
  H   H28       1.0  0.30271  0.02015  0.44937  1.0000
  H   H29       1.0  0.15948  0.12625  0.34610  1.0000
  H   H30       1.0  0.08003  0.18731  0.35147  1.0000
  H   H31       1.0  0.80693  0.08178  0.34794  1.0000
  H   H32       1.0  0.86836  0.16161  0.34782  1.0000
  H   H33       1.0  0.96819  0.19430  0.49177  1.0000
  H   H34       1.0  0.95751  0.28845  0.50232  1.0000
  H   H35       1.0  0.70747  0.95736  0.49950  1.0000
  H   H36       1.0  0.80155  0.96888  0.48973  1.0000
  C   C51       1.0  0.95462  0.36175  0.36865  1.0000
  H   H37       1.0  0.94517  0.37432  0.43663  1.0000
  C   C52       1.0  0.63452  0.95444  0.36542  1.0000
  H   H38       1.0  0.62194  0.94388  0.43294  1.0000
  C   C53       1.0  0.04332  0.63573  0.29899  1.0000
  H   H39       1.0  0.07354  0.62297  0.34661  1.0000
  C   C54       1.0  0.36066  0.04564  0.30372  1.0000
  H   H40       1.0  0.37351  0.07455  0.35354  1.0000
  C   C55       1.0  0.00126  0.44283  0.33052  1.0000
  N   N7        1.0  0.98937  0.52631  0.39555  1.0000
  N   N8        1.0  0.99192  0.47467  0.40194  1.0000
  N   N9        1.0  0.00450  0.38741  0.33901  1.0000
  H   H41       1.0  0.03441  0.37889  0.38315  1.0000
  C   C56       1.0  0.55356  0.00201  0.33009  1.0000
  N   N10       1.0  0.47025  0.98928  0.39538  1.0000
  N   N11       1.0  0.52193  0.99143  0.40130  1.0000
  N   N12       1.0  0.60903  0.00486  0.33816  1.0000
  H   H42       1.0  0.61784  0.03401  0.38357  1.0000
