data_image0
_chemical_formula_structural       C2H2C5HCH3C4HCH3C4HCH3C2H2C2H2C2H2C21H13C24H15C24H15C24H15C2H2C2H2C2H2C4HCH3C4HCH3C4HCH3
_chemical_formula_sum              "C138 H96"
_cell_length_a       45.7921
_cell_length_b       45.792
_cell_length_c       14.9608
_cell_angle_alpha    90
_cell_angle_beta     90
_cell_angle_gamma    120

_space_group_name_H-M_alt    "P 1"
_space_group_IT_number       1

loop_
  _space_group_symop_operation_xyz
  'x, y, z'

loop_
  _atom_site_type_symbol
  _atom_site_label
  _atom_site_symmetry_multiplicity
  _atom_site_fract_x
  _atom_site_fract_y
  _atom_site_fract_z
  _atom_site_occupancy
  C   C1        1.0  0.01218  0.03286  0.34441  1.0000
  C   C2        1.0  0.01203  0.97993  0.33859  1.0000
  H   H1        1.0  0.02504  0.05852  0.35161  1.0000
  H   H2        1.0  0.02486  0.96697  0.33812  1.0000
  C   C3        1.0  0.03062  0.01560  0.34300  1.0000
  C   C4        1.0  0.24734  0.12320  0.34234  1.0000
  C   C5        1.0  0.22962  0.10950  0.26164  1.0000
  C   C6        1.0  0.19391  0.09108  0.25800  1.0000
  C   C7        1.0  0.17520  0.08663  0.33803  1.0000
  H   H3        1.0  0.24312  0.11253  0.20441  1.0000
  C   C8        1.0  0.17716  0.07581  0.17136  1.0000
  H   H4        1.0  0.19510  0.07887  0.11903  1.0000
  H   H5        1.0  0.16298  0.08758  0.14765  1.0000
  H   H6        1.0  0.15994  0.04883  0.17998  1.0000
  C   C9        1.0  0.86784  0.12397  0.33443  1.0000
  C   C10       1.0  0.87249  0.11068  0.25362  1.0000
  C   C11       1.0  0.89024  0.09272  0.24976  1.0000
  C   C12       1.0  0.90434  0.08815  0.32985  1.0000
  H   H7        1.0  0.86299  0.11449  0.19567  1.0000
  C   C13       1.0  0.89235  0.07799  0.16281  1.0000
  H   H8        1.0  0.87769  0.08120  0.11012  1.0000
  H   H9        1.0  0.88271  0.05099  0.17050  1.0000
  H   H10       1.0  0.91845  0.09006  0.14019  1.0000
  C   C14       1.0  0.86732  0.74483  0.32822  1.0000
  C   C15       1.0  0.87133  0.76231  0.24707  1.0000
  C   C16       1.0  0.88875  0.79802  0.24257  1.0000
  C   C17       1.0  0.90318  0.81699  0.32215  1.0000
  H   H11       1.0  0.86069  0.74863  0.19020  1.0000
  C   C18       1.0  0.89015  0.81452  0.15559  1.0000
  H   H12       1.0  0.87527  0.79644  0.10355  1.0000
  H   H13       1.0  0.91609  0.82868  0.13179  1.0000
  H   H14       1.0  0.88034  0.83173  0.16376  1.0000
  C   C19       1.0  0.54632  0.13607  0.27935  1.0000
  C   C20       1.0  0.57652  0.13517  0.27757  1.0000
  H   H15       1.0  0.53095  0.12761  0.22440  1.0000
  H   H16       1.0  0.58206  0.12592  0.22179  1.0000
  C   C21       1.0  0.85536  0.41147  0.27336  1.0000
  C   C22       1.0  0.85626  0.44257  0.27154  1.0000
  H   H17       1.0  0.86362  0.40446  0.21818  1.0000
  H   H18       1.0  0.86542  0.45730  0.21564  1.0000
  C   C23       1.0  0.58066  0.44517  0.27650  1.0000
  C   C24       1.0  0.54955  0.41498  0.27488  1.0000
  H   H19       1.0  0.58759  0.46045  0.22135  1.0000
  H   H20       1.0  0.53478  0.40936  0.21904  1.0000
  C   C25       1.0  0.97655  0.01587  0.33887  1.0000
  C   C26       1.0  0.97635  0.96157  0.33431  1.0000
  C   C27       1.0  0.95929  0.98023  0.33347  1.0000
  C   C28       1.0  0.06685  0.03372  0.34391  1.0000
  C   C29       1.0  0.08543  0.06389  0.29419  1.0000
  C   C30       1.0  0.12091  0.08145  0.29317  1.0000
  C   C31       1.0  0.13923  0.06913  0.34035  1.0000
  C   C32       1.0  0.12099  0.03938  0.39134  1.0000
  C   C33       1.0  0.08547  0.02202  0.39297  1.0000
  C   C34       1.0  0.95864  0.03416  0.33750  1.0000
  C   C35       1.0  0.97100  0.06465  0.28884  1.0000
  C   C36       1.0  0.95341  0.08254  0.28694  1.0000
  C   C37       1.0  0.92244  0.07030  0.33250  1.0000
  C   C38       1.0  0.91012  0.04017  0.38221  1.0000
  C   C39       1.0  0.92790  0.02244  0.38457  1.0000
  C   C40       1.0  0.95802  0.92537  0.33057  1.0000
  C   C41       1.0  0.92765  0.90634  0.37921  1.0000
  C   C42       1.0  0.90961  0.87086  0.37608  1.0000
  C   C43       1.0  0.92129  0.85298  0.32414  1.0000
  C   C44       1.0  0.95187  0.87170  0.27685  1.0000
  C   C45       1.0  0.96971  0.90720  0.27942  1.0000
  H   H21       1.0  0.96346  0.10466  0.25186  1.0000
  H   H22       1.0  0.99283  0.07399  0.25271  1.0000
  H   H23       1.0  0.88790  0.03071  0.41662  1.0000
  H   H24       1.0  0.91825  0.00096  0.42225  1.0000
  H   H25       1.0  0.91853  0.91813  0.41899  1.0000
  H   H26       1.0  0.88775  0.85813  0.41202  1.0000
  H   H27       1.0  0.99128  0.91966  0.24232  1.0000
  H   H28       1.0  0.96157  0.85962  0.24042  1.0000
  H   H29       1.0  0.07334  0.00077  0.43143  1.0000
  H   H30       1.0  0.13345  0.02989  0.42702  1.0000
  H   H31       1.0  0.13327  0.10335  0.25725  1.0000
  H   H32       1.0  0.07330  0.07321  0.25647  1.0000
  H   H33       1.0  0.93365  0.96756  0.32584  1.0000
  C   C46       1.0  0.44488  0.25221  0.33468  1.0000
  C   C47       1.0  0.40938  0.23376  0.34068  1.0000
  C   C48       1.0  0.39160  0.19802  0.34334  1.0000
  C   C49       1.0  0.41032  0.18099  0.34139  1.0000
  C   C50       1.0  0.44590  0.19880  0.33478  1.0000
  C   C51       1.0  0.46263  0.23441  0.33259  1.0000
  C   C52       1.0  0.35560  0.17960  0.34447  1.0000
  C   C53       1.0  0.33684  0.18698  0.28249  1.0000
  C   C54       1.0  0.30138  0.16840  0.28175  1.0000
  C   C55       1.0  0.28334  0.14205  0.34375  1.0000
  C   C56       1.0  0.30207  0.13487  0.40636  1.0000
  C   C57       1.0  0.33759  0.15311  0.40616  1.0000
  C   C58       1.0  0.46338  0.28798  0.33078  1.0000
  C   C59       1.0  0.46480  0.30757  0.40537  1.0000
  C   C60       1.0  0.48882  0.34223  0.40888  1.0000
  C   C61       1.0  0.51169  0.35834  0.33756  1.0000
  C   C62       1.0  0.50892  0.33887  0.26118  1.0000
  C   C63       1.0  0.48528  0.30422  0.25804  1.0000
  C   C64       1.0  0.46531  0.18227  0.33087  1.0000
  C   C65       1.0  0.49205  0.19302  0.26865  1.0000
  C   C66       1.0  0.51510  0.18135  0.27373  1.0000
  C   C67       1.0  0.51188  0.15806  0.34042  1.0000
  C   C68       1.0  0.48393  0.14548  0.39892  1.0000
  C   C69       1.0  0.46097  0.15748  0.39432  1.0000
  H   H34       1.0  0.49053  0.35532  0.46595  1.0000
  H   H35       1.0  0.45027  0.29629  0.46056  1.0000
  H   H36       1.0  0.52584  0.34910  0.20980  1.0000
  H   H37       1.0  0.48554  0.29054  0.20421  1.0000
  H   H38       1.0  0.49607  0.21087  0.22157  1.0000
  H   H39       1.0  0.53530  0.19142  0.23110  1.0000
  H   H40       1.0  0.44241  0.14960  0.44161  1.0000
  H   H41       1.0  0.48103  0.12875  0.44817  1.0000
  H   H42       1.0  0.35021  0.14713  0.45244  1.0000
  H   H43       1.0  0.28999  0.11575  0.45163  1.0000
  H   H44       1.0  0.28880  0.17462  0.23590  1.0000
  H   H45       1.0  0.34889  0.20558  0.23583  1.0000
  H   H46       1.0  0.39638  0.24658  0.34232  1.0000
  H   H47       1.0  0.48847  0.24783  0.33093  1.0000
  H   H48       1.0  0.39781  0.15517  0.34085  1.0000
  C   C70       1.0  0.73957  0.19422  0.33456  1.0000
  C   C71       1.0  0.75799  0.17714  0.34028  1.0000
  C   C72       1.0  0.79378  0.19486  0.33933  1.0000
  C   C73       1.0  0.81079  0.23063  0.33513  1.0000
  C   C74       1.0  0.79302  0.24848  0.33005  1.0000
  C   C75       1.0  0.75742  0.22973  0.33049  1.0000
  C   C76       1.0  0.81212  0.17704  0.33944  1.0000
  C   C77       1.0  0.80133  0.14764  0.28705  1.0000
  C   C78       1.0  0.81943  0.13027  0.28588  1.0000
  C   C79       1.0  0.84927  0.14157  0.33667  1.0000
  C   C80       1.0  0.86004  0.17093  0.38923  1.0000
  C   C81       1.0  0.84189  0.18830  0.39053  1.0000
  C   C82       1.0  0.70379  0.17697  0.33185  1.0000
  C   C83       1.0  0.68447  0.15883  0.40679  1.0000
  C   C84       1.0  0.64975  0.14794  0.41077  1.0000
  C   C85       1.0  0.63334  0.15432  0.33951  1.0000
  C   C86       1.0  0.65258  0.17100  0.26280  1.0000
  C   C87       1.0  0.68727  0.18226  0.25914  1.0000
  C   C88       1.0  0.80959  0.28441  0.32534  1.0000
  C   C89       1.0  0.79847  0.30023  0.26368  1.0000
  C   C90       1.0  0.81010  0.33496  0.26860  1.0000
  C   C91       1.0  0.83357  0.35514  0.33478  1.0000
  C   C92       1.0  0.84643  0.33990  0.39283  1.0000
  C   C93       1.0  0.83455  0.30497  0.38829  1.0000
  H   H49       1.0  0.63682  0.13656  0.46800  1.0000
  H   H50       1.0  0.69595  0.15576  0.46179  1.0000
  H   H51       1.0  0.64213  0.17745  0.21145  1.0000
  H   H52       1.0  0.70075  0.19612  0.20499  1.0000
  H   H53       1.0  0.78039  0.28628  0.21722  1.0000
  H   H54       1.0  0.79974  0.34497  0.22653  1.0000
  H   H55       1.0  0.84267  0.29438  0.43521  1.0000
  H   H56       1.0  0.86334  0.35383  0.44167  1.0000
  H   H57       1.0  0.85056  0.20921  0.43020  1.0000
  H   H58       1.0  0.88170  0.18044  0.42612  1.0000
  H   H59       1.0  0.81022  0.10890  0.24786  1.0000
  H   H60       1.0  0.78036  0.13879  0.24754  1.0000
  H   H61       1.0  0.74498  0.15136  0.34403  1.0000
  H   H62       1.0  0.74406  0.24221  0.32937  1.0000
  H   H63       1.0  0.83657  0.24396  0.33189  1.0000
  C   C94       1.0  0.79822  0.54728  0.33024  1.0000
  C   C95       1.0  0.81522  0.58281  0.33416  1.0000
  C   C96       1.0  0.79720  0.60054  0.33593  1.0000
  C   C97       1.0  0.76144  0.58174  0.33526  1.0000
  C   C98       1.0  0.74372  0.54610  0.33059  1.0000
  C   C99       1.0  0.76266  0.52944  0.32926  1.0000
  C   C100      1.0  0.81476  0.63654  0.33488  1.0000
  C   C101      1.0  0.84062  0.65479  0.27174  1.0000
  C   C102      1.0  0.85767  0.69026  0.26933  1.0000
  C   C103      1.0  0.84984  0.70882  0.33081  1.0000
  C   C104      1.0  0.82416  0.69059  0.39442  1.0000
  C   C105      1.0  0.80670  0.65507  0.39587  1.0000
  C   C106      1.0  0.81554  0.52884  0.32669  1.0000
  C   C107      1.0  0.83358  0.52740  0.40154  1.0000
  C   C108      1.0  0.84425  0.50340  0.40526  1.0000
  C   C109      1.0  0.83758  0.48054  0.33399  1.0000
  C   C110      1.0  0.82092  0.48328  0.25745  1.0000
  C   C111      1.0  0.80990  0.50690  0.25406  1.0000
  C   C112      1.0  0.70778  0.52655  0.32722  1.0000
  C   C113      1.0  0.69181  0.49958  0.26569  1.0000
  C   C114      1.0  0.65710  0.47646  0.27112  1.0000
  C   C115      1.0  0.63704  0.47977  0.33764  1.0000
  C   C116      1.0  0.65243  0.50786  0.39572  1.0000
  C   C117      1.0  0.68735  0.53096  0.39059  1.0000
  H   H64       1.0  0.85565  0.50176  0.46235  1.0000
  H   H65       1.0  0.83689  0.54204  0.45651  1.0000
  H   H66       1.0  0.81416  0.46628  0.20625  1.0000
  H   H67       1.0  0.79592  0.50656  0.20023  1.0000
  H   H68       1.0  0.70561  0.49553  0.21859  1.0000
  H   H69       1.0  0.64698  0.45616  0.22881  1.0000
  H   H70       1.0  0.69804  0.54970  0.43741  1.0000
  H   H71       1.0  0.63860  0.51089  0.44474  1.0000
  H   H72       1.0  0.78832  0.64283  0.44295  1.0000
  H   H73       1.0  0.81745  0.70305  0.43936  1.0000
  H   H74       1.0  0.87630  0.70245  0.22283  1.0000
  H   H75       1.0  0.84690  0.64236  0.22556  1.0000
  H   H76       1.0  0.84105  0.59586  0.33484  1.0000
  H   H77       1.0  0.75030  0.50359  0.32883  1.0000
  H   H78       1.0  0.74807  0.59419  0.33404  1.0000
  C   C118      1.0  0.19292  0.09990  0.41901  1.0000
  C   C119      1.0  0.22836  0.11776  0.42121  1.0000
  H   H79       1.0  0.18012  0.09712  0.47740  1.0000
  H   H80       1.0  0.24019  0.12754  0.48084  1.0000
  C   C120      1.0  0.89967  0.10123  0.41082  1.0000
  C   C121      1.0  0.88182  0.11881  0.41301  1.0000
  H   H81       1.0  0.90934  0.09812  0.46943  1.0000
  H   H82       1.0  0.87858  0.12726  0.47344  1.0000
  C   C122      1.0  0.89888  0.79949  0.40347  1.0000
  C   C123      1.0  0.88117  0.76407  0.40654  1.0000
  H   H83       1.0  0.90900  0.81246  0.46160  1.0000
  H   H84       1.0  0.87917  0.75244  0.46648  1.0000
  C   C124      1.0  0.59995  0.14892  0.34836  1.0000
  C   C125      1.0  0.59137  0.16214  0.42288  1.0000
  C   C126      1.0  0.56126  0.16373  0.42561  1.0000
  C   C127      1.0  0.53854  0.15085  0.35181  1.0000
  H   H85       1.0  0.60872  0.17340  0.47294  1.0000
  C   C128      1.0  0.55574  0.18118  0.50235  1.0000
  H   H86       1.0  0.57648  0.19127  0.55033  1.0000
  H   H87       1.0  0.53293  0.16354  0.53827  1.0000
  H   H88       1.0  0.55305  0.20221  0.47827  1.0000
  C   C129      1.0  0.84278  0.45241  0.34265  1.0000
  C   C130      1.0  0.82970  0.43068  0.41732  1.0000
  C   C131      1.0  0.82812  0.39898  0.42014  1.0000
  C   C132      1.0  0.84079  0.38902  0.34615  1.0000
  H   H89       1.0  0.81870  0.43691  0.46778  1.0000
  C   C133      1.0  0.81092  0.37613  0.49726  1.0000
  H   H90       1.0  0.80099  0.38686  0.54549  1.0000
  H   H91       1.0  0.82868  0.37101  0.53275  1.0000
  H   H92       1.0  0.78981  0.35238  0.47365  1.0000
  C   C134      1.0  0.53980  0.39169  0.34604  1.0000
  C   C135      1.0  0.56157  0.40040  0.42065  1.0000
  C   C136      1.0  0.59326  0.43053  0.42329  1.0000
  C   C137      1.0  0.60316  0.45312  0.34920  1.0000
  H   H93       1.0  0.55540  0.38316  0.47107  1.0000
  C   C138      1.0  0.61617  0.43621  0.50028  1.0000
  H   H94       1.0  0.60549  0.41556  0.54855  1.0000
  H   H95       1.0  0.62131  0.45909  0.53577  1.0000
  H   H96       1.0  0.63991  0.43885  0.47653  1.0000
