data_image0
_chemical_formula_structural       C15H12C3OH2C3OH2C2NC2NC5NC3NC17H14C3HOHC3HOHC15H12C3OH2C3OH2C2NC2NC5NC3NC17H14C3HOHC3HOHC15H12C3OH2C3OH2C2NC2NC5NC3NC17H14C3HOHC3HOHC15H12C3OH2C3OH2C2NC2NC5NC3NC17H14C3HOHC3HOH
_chemical_formula_sum              "C224 H136 O16 N16"
_cell_length_a       42.9772
_cell_length_b       42.9772
_cell_length_c       14.9972
_cell_angle_alpha    90
_cell_angle_beta     90
_cell_angle_gamma    90

_space_group_name_H-M_alt    "P 1"
_space_group_IT_number       1

loop_
  _space_group_symop_operation_xyz
  'x, y, z'

loop_
  _atom_site_type_symbol
  _atom_site_label
  _atom_site_symmetry_multiplicity
  _atom_site_fract_x
  _atom_site_fract_y
  _atom_site_fract_z
  _atom_site_occupancy
  C   C1        1.0  0.43364  0.47095  0.33416  1.0000
  C   C2        1.0  0.02943  0.43290  0.33460  1.0000
  C   C3        1.0  0.49937  0.08166  0.33338  1.0000
  C   C4        1.0  0.46993  0.06646  0.33386  1.0000
  C   C5        1.0  0.41830  0.05852  0.33152  1.0000
  C   C6        1.0  0.44094  0.08113  0.33514  1.0000
  C   C7        1.0  0.33466  0.48598  0.26319  1.0000
  C   C8        1.0  0.36738  0.48682  0.26190  1.0000
  C   C9        1.0  0.49968  0.11508  0.33282  1.0000
  C   C10       1.0  0.48591  0.16473  0.26256  1.0000
  C   C11       1.0  0.48668  0.13202  0.26119  1.0000
  C   C12       1.0  0.13209  0.01277  0.26358  1.0000
  C   C13       1.0  0.16477  0.01433  0.26634  1.0000
  C   C14       1.0  0.01291  0.36721  0.26290  1.0000
  C   C15       1.0  0.01429  0.33452  0.26558  1.0000
  H   H1        1.0  0.02585  0.32365  0.21487  1.0000
  H   H2        1.0  0.02274  0.37858  0.20993  1.0000
  H   H3        1.0  0.43700  0.39593  0.33036  1.0000
  H   H4        1.0  0.12068  0.02254  0.21059  1.0000
  H   H5        1.0  0.17560  0.02593  0.21565  1.0000
  H   H6        1.0  0.06238  0.10339  0.32992  1.0000
  H   H7        1.0  0.39502  0.06319  0.32965  1.0000
  H   H8        1.0  0.43632  0.10443  0.33668  1.0000
  H   H9        1.0  0.47644  0.12057  0.20899  1.0000
  H   H10       1.0  0.47390  0.17551  0.21269  1.0000
  H   H11       1.0  0.37887  0.47672  0.20956  1.0000
  H   H12       1.0  0.32391  0.47399  0.21320  1.0000
  C   C16       1.0  0.00038  0.26667  0.25472  1.0000
  C   C17       1.0  0.00112  0.23385  0.25127  1.0000
  C   C18       1.0  0.00069  0.21585  0.33081  1.0000
  O   O1        1.0  0.00567  0.22056  0.16967  1.0000
  H   H13       1.0  0.99987  0.27822  0.19518  1.0000
  H   H14       1.0  0.98707  0.22485  0.13336  1.0000
  C   C19       1.0  0.23268  0.00054  0.25534  1.0000
  C   C20       1.0  0.26549  0.00119  0.25190  1.0000
  C   C21       1.0  0.28350  0.00065  0.33144  1.0000
  O   O2        1.0  0.27880  0.00585  0.17036  1.0000
  H   H15       1.0  0.22112  0.00012  0.19580  1.0000
  H   H16       1.0  0.27451  0.98729  0.13388  1.0000
  C   C22       1.0  0.44177  0.41920  0.33227  1.0000
  C   C23       1.0  0.41914  0.44184  0.33552  1.0000
  N   N1        1.0  0.46461  0.46465  0.33388  1.0000
  C   C24       1.0  0.47089  0.43366  0.33360  1.0000
  C   C25       1.0  0.50000  0.41769  0.33405  1.0000
  N   N2        1.0  0.03552  0.46381  0.33413  1.0000
  C   C26       1.0  0.06643  0.46987  0.33390  1.0000
  C   C27       1.0  0.08108  0.44086  0.33270  1.0000
  C   C28       1.0  0.05845  0.41825  0.33622  1.0000
  C   C29       1.0  0.08166  0.49929  0.33433  1.0000
  C   C30       1.0  0.06569  0.02840  0.33445  1.0000
  N   N3        1.0  0.03472  0.03469  0.33380  1.0000
  C   C31       1.0  0.02846  0.06567  0.33318  1.0000
  C   C32       1.0  0.05758  0.08013  0.33182  1.0000
  C   C33       1.0  0.08019  0.05750  0.33580  1.0000
  N   N4        1.0  0.46384  0.03555  0.33365  1.0000
  C   C34       1.0  0.43293  0.02950  0.33318  1.0000
  C   C35       1.0  0.41770  0.50008  0.33368  1.0000
  C   C36       1.0  0.38427  0.49991  0.33349  1.0000
  C   C37       1.0  0.36719  0.01302  0.40468  1.0000
  C   C38       1.0  0.33451  0.01441  0.40193  1.0000
  C   C39       1.0  0.31716  0.50059  0.33167  1.0000
  C   C40       1.0  0.01289  0.13211  0.40398  1.0000
  C   C41       1.0  0.01441  0.16479  0.40118  1.0000
  C   C42       1.0  0.50060  0.18219  0.33101  1.0000
  C   C43       1.0  0.11509  0.49957  0.33479  1.0000
  C   C44       1.0  0.18219  0.50053  0.33650  1.0000
  C   C45       1.0  0.16475  0.48581  0.40494  1.0000
  C   C46       1.0  0.13204  0.48656  0.40635  1.0000
  C   C47       1.0  0.49981  0.38427  0.33414  1.0000
  C   C48       1.0  0.48673  0.36736  0.40572  1.0000
  C   C49       1.0  0.48587  0.33465  0.40433  1.0000
  C   C50       1.0  0.50049  0.31716  0.33582  1.0000
  H   H17       1.0  0.47389  0.32388  0.45431  1.0000
  H   H18       1.0  0.47661  0.37884  0.45806  1.0000
  H   H19       1.0  0.39587  0.43710  0.33745  1.0000
  H   H20       1.0  0.48042  0.48043  0.33387  1.0000
  H   H21       1.0  0.01892  0.01890  0.33380  1.0000
  H   H22       1.0  0.06309  0.39496  0.33807  1.0000
  H   H23       1.0  0.10437  0.43622  0.33101  1.0000
  H   H24       1.0  0.12061  0.47634  0.45861  1.0000
  H   H25       1.0  0.17555  0.47381  0.45480  1.0000
  H   H26       1.0  0.10344  0.06228  0.33808  1.0000
  H   H27       1.0  0.02262  0.12071  0.45705  1.0000
  H   H28       1.0  0.02600  0.17564  0.45189  1.0000
  H   H29       1.0  0.32362  0.02597  0.45261  1.0000
  H   H30       1.0  0.37855  0.02287  0.45767  1.0000
  C   C51       1.0  0.00054  0.23268  0.41214  1.0000
  C   C52       1.0  0.00115  0.26550  0.41558  1.0000
  C   C53       1.0  0.00059  0.28350  0.33605  1.0000
  H   H31       1.0  0.00015  0.22112  0.47169  1.0000
  O   O3        1.0  0.00580  0.27880  0.49712  1.0000
  H   H32       1.0  0.98725  0.27449  0.53361  1.0000
  C   C54       1.0  0.26667  0.00043  0.41276  1.0000
  C   C55       1.0  0.23385  0.00111  0.41621  1.0000
  C   C56       1.0  0.21585  0.00066  0.33668  1.0000
  H   H33       1.0  0.27822  0.99993  0.47230  1.0000
  O   O4        1.0  0.22056  0.00564  0.49782  1.0000
  H   H34       1.0  0.22487  0.98705  0.53412  1.0000
  C   C57       1.0  0.43364  0.97095  0.33416  1.0000
  C   C58       1.0  0.02943  0.93290  0.33460  1.0000
  C   C59       1.0  0.49937  0.58166  0.33338  1.0000
  C   C60       1.0  0.46993  0.56646  0.33386  1.0000
  C   C61       1.0  0.41830  0.55852  0.33152  1.0000
  C   C62       1.0  0.44094  0.58113  0.33514  1.0000
  C   C63       1.0  0.33466  0.98598  0.26319  1.0000
  C   C64       1.0  0.36738  0.98682  0.26190  1.0000
  C   C65       1.0  0.49968  0.61508  0.33282  1.0000
  C   C66       1.0  0.48591  0.66473  0.26256  1.0000
  C   C67       1.0  0.48668  0.63202  0.26119  1.0000
  C   C68       1.0  0.13209  0.51277  0.26358  1.0000
  C   C69       1.0  0.16477  0.51433  0.26634  1.0000
  C   C70       1.0  0.01291  0.86721  0.26290  1.0000
  C   C71       1.0  0.01429  0.83453  0.26558  1.0000
  H   H35       1.0  0.02585  0.82365  0.21487  1.0000
  H   H36       1.0  0.02274  0.87858  0.20993  1.0000
  H   H37       1.0  0.43700  0.89593  0.33036  1.0000
  H   H38       1.0  0.12068  0.52255  0.21059  1.0000
  H   H39       1.0  0.17560  0.52593  0.21565  1.0000
  H   H40       1.0  0.06238  0.60338  0.32992  1.0000
  H   H41       1.0  0.39502  0.56319  0.32965  1.0000
  H   H42       1.0  0.43632  0.60443  0.33668  1.0000
  H   H43       1.0  0.47644  0.62057  0.20899  1.0000
  H   H44       1.0  0.47390  0.67551  0.21269  1.0000
  H   H45       1.0  0.37887  0.97672  0.20956  1.0000
  H   H46       1.0  0.32391  0.97399  0.21320  1.0000
  C   C72       1.0  0.00038  0.76667  0.25472  1.0000
  C   C73       1.0  0.00112  0.73386  0.25127  1.0000
  C   C74       1.0  0.00069  0.71584  0.33081  1.0000
  O   O5        1.0  0.00567  0.72056  0.16967  1.0000
  H   H47       1.0  0.99987  0.77822  0.19518  1.0000
  H   H48       1.0  0.98707  0.72485  0.13336  1.0000
  C   C75       1.0  0.23268  0.50054  0.25534  1.0000
  C   C76       1.0  0.26549  0.50119  0.25190  1.0000
  C   C77       1.0  0.28350  0.50065  0.33144  1.0000
  O   O6        1.0  0.27880  0.50585  0.17036  1.0000
  H   H49       1.0  0.22112  0.50012  0.19580  1.0000
  H   H50       1.0  0.27451  0.48729  0.13388  1.0000
  C   C78       1.0  0.44177  0.91919  0.33227  1.0000
  C   C79       1.0  0.41914  0.94184  0.33552  1.0000
  N   N5        1.0  0.46461  0.96465  0.33388  1.0000
  C   C80       1.0  0.47089  0.93366  0.33360  1.0000
  C   C81       1.0  0.50000  0.91769  0.33405  1.0000
  N   N6        1.0  0.03552  0.96381  0.33413  1.0000
  C   C82       1.0  0.06643  0.96987  0.33390  1.0000
  C   C83       1.0  0.08108  0.94086  0.33270  1.0000
  C   C84       1.0  0.05845  0.91825  0.33622  1.0000
  C   C85       1.0  0.08166  0.99929  0.33433  1.0000
  C   C86       1.0  0.06569  0.52839  0.33445  1.0000
  N   N7        1.0  0.03472  0.53469  0.33380  1.0000
  C   C87       1.0  0.02846  0.56567  0.33318  1.0000
  C   C88       1.0  0.05758  0.58013  0.33182  1.0000
  C   C89       1.0  0.08019  0.55750  0.33580  1.0000
  N   N8        1.0  0.46384  0.53555  0.33365  1.0000
  C   C90       1.0  0.43293  0.52950  0.33318  1.0000
  C   C91       1.0  0.41770  0.00007  0.33368  1.0000
  C   C92       1.0  0.38427  0.99991  0.33349  1.0000
  C   C93       1.0  0.36719  0.51302  0.40468  1.0000
  C   C94       1.0  0.33451  0.51441  0.40193  1.0000
  C   C95       1.0  0.31716  0.00059  0.33167  1.0000
  C   C96       1.0  0.01289  0.63210  0.40398  1.0000
  C   C97       1.0  0.01441  0.66479  0.40118  1.0000
  C   C98       1.0  0.50060  0.68219  0.33101  1.0000
  C   C99       1.0  0.11509  0.99957  0.33479  1.0000
  C   C100      1.0  0.18219  0.00053  0.33650  1.0000
  C   C101      1.0  0.16475  0.98581  0.40494  1.0000
  C   C102      1.0  0.13204  0.98656  0.40635  1.0000
  C   C103      1.0  0.49981  0.88426  0.33414  1.0000
  C   C104      1.0  0.48673  0.86737  0.40572  1.0000
  C   C105      1.0  0.48587  0.83465  0.40433  1.0000
  C   C106      1.0  0.50049  0.81716  0.33582  1.0000
  H   H51       1.0  0.47389  0.82388  0.45431  1.0000
  H   H52       1.0  0.47661  0.87884  0.45806  1.0000
  H   H53       1.0  0.39587  0.93710  0.33745  1.0000
  H   H54       1.0  0.48042  0.98043  0.33387  1.0000
  H   H55       1.0  0.01892  0.51890  0.33380  1.0000
  H   H56       1.0  0.06309  0.89496  0.33807  1.0000
  H   H57       1.0  0.10437  0.93622  0.33101  1.0000
  H   H58       1.0  0.12061  0.97634  0.45861  1.0000
  H   H59       1.0  0.17555  0.97381  0.45480  1.0000
  H   H60       1.0  0.10344  0.56228  0.33808  1.0000
  H   H61       1.0  0.02262  0.62071  0.45705  1.0000
  H   H62       1.0  0.02600  0.67564  0.45189  1.0000
  H   H63       1.0  0.32362  0.52597  0.45261  1.0000
  H   H64       1.0  0.37855  0.52287  0.45767  1.0000
  C   C107      1.0  0.00054  0.73268  0.41214  1.0000
  C   C108      1.0  0.00115  0.76550  0.41558  1.0000
  C   C109      1.0  0.00059  0.78350  0.33605  1.0000
  H   H65       1.0  0.00015  0.72113  0.47169  1.0000
  O   O7        1.0  0.00580  0.77880  0.49712  1.0000
  H   H66       1.0  0.98725  0.77449  0.53361  1.0000
  C   C110      1.0  0.26667  0.50043  0.41276  1.0000
  C   C111      1.0  0.23385  0.50111  0.41621  1.0000
  C   C112      1.0  0.21585  0.50066  0.33668  1.0000
  H   H67       1.0  0.27822  0.49993  0.47230  1.0000
  O   O8        1.0  0.22056  0.50565  0.49782  1.0000
  H   H68       1.0  0.22487  0.48705  0.53412  1.0000
  C   C113      1.0  0.93364  0.47095  0.33416  1.0000
  C   C114      1.0  0.52943  0.43290  0.33460  1.0000
  C   C115      1.0  0.99937  0.08166  0.33338  1.0000
  C   C116      1.0  0.96993  0.06646  0.33386  1.0000
  C   C117      1.0  0.91830  0.05852  0.33152  1.0000
  C   C118      1.0  0.94094  0.08113  0.33514  1.0000
  C   C119      1.0  0.83466  0.48598  0.26319  1.0000
  C   C120      1.0  0.86738  0.48682  0.26190  1.0000
  C   C121      1.0  0.99968  0.11508  0.33282  1.0000
  C   C122      1.0  0.98591  0.16473  0.26256  1.0000
  C   C123      1.0  0.98668  0.13202  0.26119  1.0000
  C   C124      1.0  0.63209  0.01277  0.26358  1.0000
  C   C125      1.0  0.66477  0.01433  0.26634  1.0000
  C   C126      1.0  0.51291  0.36721  0.26290  1.0000
  C   C127      1.0  0.51429  0.33452  0.26558  1.0000
  H   H69       1.0  0.52585  0.32365  0.21487  1.0000
  H   H70       1.0  0.52274  0.37858  0.20993  1.0000
  H   H71       1.0  0.93701  0.39593  0.33036  1.0000
  H   H72       1.0  0.62068  0.02254  0.21059  1.0000
  H   H73       1.0  0.67560  0.02593  0.21565  1.0000
  H   H74       1.0  0.56238  0.10339  0.32992  1.0000
  H   H75       1.0  0.89502  0.06319  0.32965  1.0000
  H   H76       1.0  0.93632  0.10443  0.33668  1.0000
  H   H77       1.0  0.97644  0.12057  0.20899  1.0000
  H   H78       1.0  0.97390  0.17551  0.21269  1.0000
  H   H79       1.0  0.87887  0.47672  0.20956  1.0000
  H   H80       1.0  0.82391  0.47399  0.21320  1.0000
  C   C128      1.0  0.50038  0.26667  0.25472  1.0000
  C   C129      1.0  0.50111  0.23385  0.25127  1.0000
  C   C130      1.0  0.50069  0.21585  0.33081  1.0000
  O   O9        1.0  0.50567  0.22056  0.16967  1.0000
  H   H81       1.0  0.49987  0.27822  0.19518  1.0000
  H   H82       1.0  0.48707  0.22485  0.13336  1.0000
  C   C131      1.0  0.73268  0.00054  0.25534  1.0000
  C   C132      1.0  0.76550  0.00119  0.25190  1.0000
  C   C133      1.0  0.78350  0.00065  0.33144  1.0000
  O   O10       1.0  0.77880  0.00585  0.17036  1.0000
  H   H83       1.0  0.72112  0.00012  0.19580  1.0000
  H   H84       1.0  0.77451  0.98729  0.13388  1.0000
  C   C134      1.0  0.94177  0.41920  0.33227  1.0000
  C   C135      1.0  0.91914  0.44184  0.33552  1.0000
  N   N9        1.0  0.96462  0.46465  0.33388  1.0000
  C   C136      1.0  0.97089  0.43366  0.33360  1.0000
  C   C137      1.0  1.00000  0.41769  0.33405  1.0000
  N   N10       1.0  0.53552  0.46381  0.33413  1.0000
  C   C138      1.0  0.56644  0.46987  0.33390  1.0000
  C   C139      1.0  0.58108  0.44086  0.33270  1.0000
  C   C140      1.0  0.55844  0.41825  0.33622  1.0000
  C   C141      1.0  0.58166  0.49929  0.33433  1.0000
  C   C142      1.0  0.56569  0.02840  0.33445  1.0000
  N   N11       1.0  0.53472  0.03469  0.33380  1.0000
  C   C143      1.0  0.52846  0.06567  0.33318  1.0000
  C   C144      1.0  0.55758  0.08013  0.33182  1.0000
  C   C145      1.0  0.58019  0.05750  0.33580  1.0000
  N   N12       1.0  0.96384  0.03555  0.33365  1.0000
  C   C146      1.0  0.93293  0.02950  0.33318  1.0000
  C   C147      1.0  0.91769  0.50008  0.33368  1.0000
  C   C148      1.0  0.88426  0.49991  0.33349  1.0000
  C   C149      1.0  0.86719  0.01302  0.40468  1.0000
  C   C150      1.0  0.83451  0.01441  0.40193  1.0000
  C   C151      1.0  0.81716  0.50059  0.33167  1.0000
  C   C152      1.0  0.51288  0.13211  0.40398  1.0000
  C   C153      1.0  0.51441  0.16479  0.40118  1.0000
  C   C154      1.0  0.00060  0.18219  0.33101  1.0000
  C   C155      1.0  0.61508  0.49957  0.33479  1.0000
  C   C156      1.0  0.68219  0.50053  0.33650  1.0000
  C   C157      1.0  0.66475  0.48581  0.40494  1.0000
  C   C158      1.0  0.63204  0.48656  0.40635  1.0000
  C   C159      1.0  0.99981  0.38427  0.33414  1.0000
  C   C160      1.0  0.98673  0.36736  0.40572  1.0000
  C   C161      1.0  0.98587  0.33465  0.40433  1.0000
  C   C162      1.0  0.00049  0.31716  0.33582  1.0000
  H   H85       1.0  0.97389  0.32388  0.45431  1.0000
  H   H86       1.0  0.97661  0.37884  0.45806  1.0000
  H   H87       1.0  0.89587  0.43710  0.33745  1.0000
  H   H88       1.0  0.98041  0.48043  0.33387  1.0000
  H   H89       1.0  0.51892  0.01890  0.33380  1.0000
  H   H90       1.0  0.56309  0.39496  0.33807  1.0000
  H   H91       1.0  0.60437  0.43622  0.33101  1.0000
  H   H92       1.0  0.62061  0.47634  0.45861  1.0000
  H   H93       1.0  0.67555  0.47381  0.45480  1.0000
  H   H94       1.0  0.60344  0.06228  0.33808  1.0000
  H   H95       1.0  0.52262  0.12071  0.45705  1.0000
  H   H96       1.0  0.52600  0.17564  0.45189  1.0000
  H   H97       1.0  0.82362  0.02597  0.45261  1.0000
  H   H98       1.0  0.87855  0.02287  0.45767  1.0000
  C   C163      1.0  0.50054  0.23268  0.41214  1.0000
  C   C164      1.0  0.50115  0.26550  0.41558  1.0000
  C   C165      1.0  0.50058  0.28350  0.33605  1.0000
  H   H99       1.0  0.50015  0.22112  0.47169  1.0000
  O   O11       1.0  0.50580  0.27880  0.49712  1.0000
  H   H100      1.0  0.48724  0.27449  0.53361  1.0000
  C   C166      1.0  0.76667  0.00043  0.41276  1.0000
  C   C167      1.0  0.73386  0.00111  0.41621  1.0000
  C   C168      1.0  0.71585  0.00066  0.33668  1.0000
  H   H101      1.0  0.77822  0.99993  0.47230  1.0000
  O   O12       1.0  0.72056  0.00564  0.49782  1.0000
  H   H102      1.0  0.72488  0.98705  0.53412  1.0000
  C   C169      1.0  0.93364  0.97095  0.33416  1.0000
  C   C170      1.0  0.52943  0.93290  0.33460  1.0000
  C   C171      1.0  0.99937  0.58166  0.33338  1.0000
  C   C172      1.0  0.96993  0.56646  0.33386  1.0000
  C   C173      1.0  0.91830  0.55852  0.33152  1.0000
  C   C174      1.0  0.94094  0.58113  0.33514  1.0000
  C   C175      1.0  0.83466  0.98598  0.26319  1.0000
  C   C176      1.0  0.86738  0.98682  0.26190  1.0000
  C   C177      1.0  0.99968  0.61508  0.33282  1.0000
  C   C178      1.0  0.98591  0.66473  0.26256  1.0000
  C   C179      1.0  0.98668  0.63202  0.26119  1.0000
  C   C180      1.0  0.63209  0.51277  0.26358  1.0000
  C   C181      1.0  0.66477  0.51433  0.26634  1.0000
  C   C182      1.0  0.51291  0.86721  0.26290  1.0000
  C   C183      1.0  0.51429  0.83453  0.26558  1.0000
  H   H103      1.0  0.52585  0.82365  0.21487  1.0000
  H   H104      1.0  0.52274  0.87858  0.20993  1.0000
  H   H105      1.0  0.93701  0.89593  0.33036  1.0000
  H   H106      1.0  0.62068  0.52255  0.21059  1.0000
  H   H107      1.0  0.67560  0.52593  0.21565  1.0000
  H   H108      1.0  0.56238  0.60338  0.32992  1.0000
  H   H109      1.0  0.89502  0.56319  0.32965  1.0000
  H   H110      1.0  0.93632  0.60443  0.33668  1.0000
  H   H111      1.0  0.97644  0.62057  0.20899  1.0000
  H   H112      1.0  0.97390  0.67551  0.21269  1.0000
  H   H113      1.0  0.87887  0.97672  0.20956  1.0000
  H   H114      1.0  0.82391  0.97399  0.21320  1.0000
  C   C184      1.0  0.50038  0.76667  0.25472  1.0000
  C   C185      1.0  0.50111  0.73386  0.25127  1.0000
  C   C186      1.0  0.50069  0.71584  0.33081  1.0000
  O   O13       1.0  0.50567  0.72056  0.16967  1.0000
  H   H115      1.0  0.49987  0.77822  0.19518  1.0000
  H   H116      1.0  0.48707  0.72485  0.13336  1.0000
  C   C187      1.0  0.73268  0.50054  0.25534  1.0000
  C   C188      1.0  0.76550  0.50119  0.25190  1.0000
  C   C189      1.0  0.78350  0.50065  0.33144  1.0000
  O   O14       1.0  0.77880  0.50585  0.17036  1.0000
  H   H117      1.0  0.72112  0.50012  0.19580  1.0000
  H   H118      1.0  0.77451  0.48729  0.13388  1.0000
  C   C190      1.0  0.94177  0.91919  0.33227  1.0000
  C   C191      1.0  0.91914  0.94184  0.33552  1.0000
  N   N13       1.0  0.96462  0.96465  0.33388  1.0000
  C   C192      1.0  0.97089  0.93366  0.33360  1.0000
  C   C193      1.0  1.00000  0.91769  0.33405  1.0000
  N   N14       1.0  0.53552  0.96381  0.33413  1.0000
  C   C194      1.0  0.56644  0.96987  0.33390  1.0000
  C   C195      1.0  0.58108  0.94086  0.33270  1.0000
  C   C196      1.0  0.55844  0.91825  0.33622  1.0000
  C   C197      1.0  0.58166  0.99929  0.33433  1.0000
  C   C198      1.0  0.56569  0.52839  0.33445  1.0000
  N   N15       1.0  0.53472  0.53469  0.33380  1.0000
  C   C199      1.0  0.52846  0.56567  0.33318  1.0000
  C   C200      1.0  0.55758  0.58013  0.33182  1.0000
  C   C201      1.0  0.58019  0.55750  0.33580  1.0000
  N   N16       1.0  0.96384  0.53555  0.33365  1.0000
  C   C202      1.0  0.93293  0.52950  0.33318  1.0000
  C   C203      1.0  0.91769  0.00007  0.33368  1.0000
  C   C204      1.0  0.88426  0.99991  0.33349  1.0000
  C   C205      1.0  0.86719  0.51302  0.40468  1.0000
  C   C206      1.0  0.83451  0.51441  0.40193  1.0000
  C   C207      1.0  0.81716  0.00059  0.33167  1.0000
  C   C208      1.0  0.51288  0.63210  0.40398  1.0000
  C   C209      1.0  0.51441  0.66479  0.40118  1.0000
  C   C210      1.0  0.00060  0.68219  0.33101  1.0000
  C   C211      1.0  0.61508  0.99957  0.33479  1.0000
  C   C212      1.0  0.68219  0.00053  0.33650  1.0000
  C   C213      1.0  0.66475  0.98581  0.40494  1.0000
  C   C214      1.0  0.63204  0.98656  0.40635  1.0000
  C   C215      1.0  0.99981  0.88426  0.33414  1.0000
  C   C216      1.0  0.98673  0.86737  0.40572  1.0000
  C   C217      1.0  0.98587  0.83465  0.40433  1.0000
  C   C218      1.0  0.00049  0.81716  0.33582  1.0000
  H   H119      1.0  0.97389  0.82388  0.45431  1.0000
  H   H120      1.0  0.97661  0.87884  0.45806  1.0000
  H   H121      1.0  0.89587  0.93710  0.33745  1.0000
  H   H122      1.0  0.98041  0.98043  0.33387  1.0000
  H   H123      1.0  0.51892  0.51890  0.33380  1.0000
  H   H124      1.0  0.56309  0.89496  0.33807  1.0000
  H   H125      1.0  0.60437  0.93622  0.33101  1.0000
  H   H126      1.0  0.62061  0.97634  0.45861  1.0000
  H   H127      1.0  0.67555  0.97381  0.45480  1.0000
  H   H128      1.0  0.60344  0.56228  0.33808  1.0000
  H   H129      1.0  0.52262  0.62071  0.45705  1.0000
  H   H130      1.0  0.52600  0.67564  0.45189  1.0000
  H   H131      1.0  0.82362  0.52597  0.45261  1.0000
  H   H132      1.0  0.87855  0.52287  0.45767  1.0000
  C   C219      1.0  0.50054  0.73268  0.41214  1.0000
  C   C220      1.0  0.50115  0.76550  0.41558  1.0000
  C   C221      1.0  0.50058  0.78350  0.33605  1.0000
  H   H133      1.0  0.50015  0.72113  0.47169  1.0000
  O   O15       1.0  0.50580  0.77880  0.49712  1.0000
  H   H134      1.0  0.48724  0.77449  0.53361  1.0000
  C   C222      1.0  0.76667  0.50043  0.41276  1.0000
  C   C223      1.0  0.73386  0.50111  0.41621  1.0000
  C   C224      1.0  0.71585  0.50066  0.33668  1.0000
  H   H135      1.0  0.77822  0.49993  0.47230  1.0000
  O   O16       1.0  0.72056  0.50565  0.49782  1.0000
  H   H136      1.0  0.72488  0.48705  0.53412  1.0000
