data_image0
_chemical_formula_structural       C2HC3H2C2O2C3NH2NH2NHC3NH2NH2NHC4H2C3HC2O2C3NH2NH2NHC3NH2NH2NHC2HC3H2C2O2C3NH2NH2NHC3NH2NH2NHC4H2C3HC2O2C3NH2NH2NHC3NH2NH2NHC2HC3H2C2O2C3NH2NH2NHC3NH2NH2NHC4H2C3HC2O2C3NH2NH2NHC3NH2NH2NHC2HC3H2C2O2C3NH2NH2NHC3NH2NH2NHC4H2C3HC2O2C3NH2NH2NHC3NH2NH2NH
_chemical_formula_sum              "C112 H104 O16 N48"
_cell_length_a       30.5726
_cell_length_b       30.5726
_cell_length_c       14.9825
_cell_angle_alpha    90
_cell_angle_beta     90
_cell_angle_gamma    90

_space_group_name_H-M_alt    "P 1"
_space_group_IT_number       1

loop_
  _space_group_symop_operation_xyz
  'x, y, z'

loop_
  _atom_site_type_symbol
  _atom_site_label
  _atom_site_symmetry_multiplicity
  _atom_site_fract_x
  _atom_site_fract_y
  _atom_site_fract_z
  _atom_site_occupancy
  C   C1        1.0  0.09344  0.46275  0.37959  1.0000
  C   C2        1.0  0.06107  0.49260  0.34965  1.0000
  H   H1        1.0  0.07168  0.02204  0.32698  1.0000
  C   C3        1.0  0.43924  0.00413  0.29851  1.0000
  C   C4        1.0  0.40815  0.03476  0.26691  1.0000
  C   C5        1.0  0.42214  0.07844  0.25702  1.0000
  H   H2        1.0  0.42983  0.47222  0.29723  1.0000
  H   H3        1.0  0.39966  0.10103  0.23644  1.0000
  C   C6        1.0  0.36341  0.02465  0.25070  1.0000
  C   C7        1.0  0.13940  0.47079  0.37759  1.0000
  O   O1        1.0  0.16598  0.43995  0.41454  1.0000
  O   O2        1.0  0.33959  0.05383  0.20223  1.0000
  C   C8        1.0  0.99507  0.29648  0.36340  1.0000
  C   C9        1.0  0.00611  0.27864  0.27811  1.0000
  C   C10       1.0  0.00906  0.23222  0.26796  1.0000
  N   N1        1.0  0.01735  0.30616  0.20946  1.0000
  H   H4        1.0  0.01983  0.33750  0.21743  1.0000
  H   H5        1.0  0.03059  0.29568  0.15493  1.0000
  N   N2        1.0  0.01725  0.21377  0.18627  1.0000
  H   H6        1.0  0.02413  0.18297  0.17927  1.0000
  H   H7        1.0  0.01373  0.22958  0.13079  1.0000
  N   N3        1.0  0.99184  0.34097  0.37415  1.0000
  H   H8        1.0  0.97673  0.35699  0.32736  1.0000
  C   C11       1.0  0.20450  0.00605  0.32456  1.0000
  C   C12       1.0  0.22304  0.00044  0.23770  1.0000
  C   C13       1.0  0.26869  0.99105  0.23007  1.0000
  N   N4        1.0  0.19734  0.00176  0.16283  1.0000
  H   H9        1.0  0.16614  0.00677  0.16480  1.0000
  H   H10       1.0  0.20986  0.00424  0.10363  1.0000
  N   N5        1.0  0.28603  0.97466  0.15255  1.0000
  H   H11       1.0  0.31608  0.96446  0.14943  1.0000
  H   H12       1.0  0.26774  0.96477  0.10383  1.0000
  N   N6        1.0  0.15989  0.00491  0.33548  1.0000
  H   H13       1.0  0.14227  0.02226  0.29521  1.0000
  C   C14       1.0  0.01531  0.48312  0.34730  1.0000
  C   C15       1.0  0.00403  0.43918  0.37000  1.0000
  C   C16       1.0  0.03463  0.40794  0.40113  1.0000
  C   C17       1.0  0.07838  0.42179  0.41056  1.0000
  H   H14       1.0  0.47210  0.42986  0.37133  1.0000
  H   H15       1.0  0.10096  0.39921  0.43077  1.0000
  C   C18       1.0  0.48320  0.01532  0.32113  1.0000
  C   C19       1.0  0.46305  0.09346  0.28834  1.0000
  C   C20       1.0  0.49278  0.06106  0.31872  1.0000
  H   H16       1.0  0.02221  0.07165  0.34147  1.0000
  C   C21       1.0  0.47114  0.13942  0.29037  1.0000
  C   C22       1.0  0.02439  0.36325  0.41766  1.0000
  O   O3        1.0  0.44041  0.16602  0.25311  1.0000
  O   O4        1.0  0.05359  0.33948  0.46623  1.0000
  C   C23       1.0  0.00608  0.20454  0.34475  1.0000
  C   C24       1.0  0.00024  0.22300  0.43164  1.0000
  C   C25       1.0  0.99069  0.26862  0.43935  1.0000
  N   N7        1.0  0.97419  0.28586  0.51688  1.0000
  H   H17       1.0  0.96429  0.26754  0.56554  1.0000
  H   H18       1.0  0.96404  0.31592  0.52011  1.0000
  N   N8        1.0  0.00150  0.19724  0.50644  1.0000
  H   H19       1.0  0.00670  0.16607  0.50440  1.0000
  H   H20       1.0  0.00381  0.20971  0.56570  1.0000
  N   N9        1.0  0.00487  0.15994  0.33369  1.0000
  H   H21       1.0  0.02210  0.14223  0.37400  1.0000
  C   C26       1.0  0.29647  0.99538  0.30615  1.0000
  C   C27       1.0  0.27851  0.00603  0.39153  1.0000
  C   C28       1.0  0.23209  0.00880  0.40152  1.0000
  N   N10       1.0  0.21355  0.01663  0.48330  1.0000
  H   H22       1.0  0.22930  0.01273  0.53874  1.0000
  H   H23       1.0  0.18269  0.02323  0.49033  1.0000
  N   N11       1.0  0.30590  0.01721  0.46043  1.0000
  H   H24       1.0  0.33727  0.01971  0.45291  1.0000
  H   H25       1.0  0.29537  0.03007  0.51531  1.0000
  N   N12       1.0  0.34098  0.99268  0.29555  1.0000
  H   H26       1.0  0.35710  0.97739  0.34208  1.0000
  C   C29       1.0  0.09344  0.96274  0.37959  1.0000
  C   C30       1.0  0.06107  0.99260  0.34965  1.0000
  H   H27       1.0  0.07168  0.52204  0.32698  1.0000
  C   C31       1.0  0.43924  0.50413  0.29851  1.0000
  C   C32       1.0  0.40815  0.53476  0.26691  1.0000
  C   C33       1.0  0.42214  0.57844  0.25702  1.0000
  H   H28       1.0  0.42983  0.97222  0.29723  1.0000
  H   H29       1.0  0.39966  0.60103  0.23644  1.0000
  C   C34       1.0  0.36341  0.52465  0.25070  1.0000
  C   C35       1.0  0.13940  0.97079  0.37759  1.0000
  O   O5        1.0  0.16598  0.93995  0.41454  1.0000
  O   O6        1.0  0.33959  0.55383  0.20223  1.0000
  C   C36       1.0  0.99507  0.79648  0.36340  1.0000
  C   C37       1.0  0.00611  0.77864  0.27811  1.0000
  C   C38       1.0  0.00906  0.73222  0.26796  1.0000
  N   N13       1.0  0.01735  0.80616  0.20946  1.0000
  H   H30       1.0  0.01983  0.83750  0.21743  1.0000
  H   H31       1.0  0.03059  0.79568  0.15493  1.0000
  N   N14       1.0  0.01725  0.71377  0.18627  1.0000
  H   H32       1.0  0.02413  0.68297  0.17927  1.0000
  H   H33       1.0  0.01373  0.72958  0.13079  1.0000
  N   N15       1.0  0.99184  0.84097  0.37415  1.0000
  H   H34       1.0  0.97673  0.85699  0.32736  1.0000
  C   C39       1.0  0.20450  0.50605  0.32456  1.0000
  C   C40       1.0  0.22304  0.50044  0.23770  1.0000
  C   C41       1.0  0.26869  0.49105  0.23007  1.0000
  N   N16       1.0  0.19734  0.50176  0.16283  1.0000
  H   H35       1.0  0.16614  0.50677  0.16480  1.0000
  H   H36       1.0  0.20986  0.50424  0.10363  1.0000
  N   N17       1.0  0.28603  0.47466  0.15255  1.0000
  H   H37       1.0  0.31608  0.46446  0.14943  1.0000
  H   H38       1.0  0.26774  0.46477  0.10383  1.0000
  N   N18       1.0  0.15989  0.50491  0.33548  1.0000
  H   H39       1.0  0.14227  0.52226  0.29521  1.0000
  C   C42       1.0  0.01531  0.98312  0.34730  1.0000
  C   C43       1.0  0.00403  0.93918  0.37000  1.0000
  C   C44       1.0  0.03463  0.90794  0.40113  1.0000
  C   C45       1.0  0.07838  0.92179  0.41056  1.0000
  H   H40       1.0  0.47210  0.92986  0.37133  1.0000
  H   H41       1.0  0.10096  0.89921  0.43077  1.0000
  C   C46       1.0  0.48320  0.51532  0.32113  1.0000
  C   C47       1.0  0.46305  0.59346  0.28834  1.0000
  C   C48       1.0  0.49278  0.56106  0.31872  1.0000
  H   H42       1.0  0.02221  0.57164  0.34147  1.0000
  C   C49       1.0  0.47114  0.63942  0.29037  1.0000
  C   C50       1.0  0.02439  0.86325  0.41766  1.0000
  O   O7        1.0  0.44041  0.66602  0.25311  1.0000
  O   O8        1.0  0.05359  0.83948  0.46623  1.0000
  C   C51       1.0  0.00608  0.70454  0.34475  1.0000
  C   C52       1.0  0.00024  0.72300  0.43164  1.0000
  C   C53       1.0  0.99069  0.76862  0.43935  1.0000
  N   N19       1.0  0.97419  0.78585  0.51688  1.0000
  H   H43       1.0  0.96429  0.76754  0.56554  1.0000
  H   H44       1.0  0.96404  0.81592  0.52011  1.0000
  N   N20       1.0  0.00150  0.69724  0.50644  1.0000
  H   H45       1.0  0.00670  0.66607  0.50440  1.0000
  H   H46       1.0  0.00381  0.70971  0.56570  1.0000
  N   N21       1.0  0.00487  0.65994  0.33369  1.0000
  H   H47       1.0  0.02210  0.64223  0.37400  1.0000
  C   C54       1.0  0.29647  0.49538  0.30615  1.0000
  C   C55       1.0  0.27851  0.50602  0.39153  1.0000
  C   C56       1.0  0.23209  0.50880  0.40152  1.0000
  N   N22       1.0  0.21355  0.51663  0.48330  1.0000
  H   H48       1.0  0.22930  0.51273  0.53874  1.0000
  H   H49       1.0  0.18269  0.52323  0.49033  1.0000
  N   N23       1.0  0.30590  0.51721  0.46043  1.0000
  H   H50       1.0  0.33727  0.51970  0.45291  1.0000
  H   H51       1.0  0.29537  0.53007  0.51531  1.0000
  N   N24       1.0  0.34098  0.49268  0.29555  1.0000
  H   H52       1.0  0.35710  0.47739  0.34208  1.0000
  C   C57       1.0  0.59344  0.46275  0.37959  1.0000
  C   C58       1.0  0.56107  0.49260  0.34965  1.0000
  H   H53       1.0  0.57168  0.02204  0.32698  1.0000
  C   C59       1.0  0.93924  0.00413  0.29851  1.0000
  C   C60       1.0  0.90815  0.03476  0.26691  1.0000
  C   C61       1.0  0.92214  0.07844  0.25702  1.0000
  H   H54       1.0  0.92983  0.47222  0.29723  1.0000
  H   H55       1.0  0.89966  0.10103  0.23644  1.0000
  C   C62       1.0  0.86341  0.02465  0.25070  1.0000
  C   C63       1.0  0.63940  0.47079  0.37759  1.0000
  O   O9        1.0  0.66598  0.43995  0.41454  1.0000
  O   O10       1.0  0.83959  0.05383  0.20223  1.0000
  C   C64       1.0  0.49507  0.29648  0.36340  1.0000
  C   C65       1.0  0.50611  0.27864  0.27811  1.0000
  C   C66       1.0  0.50906  0.23222  0.26796  1.0000
  N   N25       1.0  0.51735  0.30616  0.20946  1.0000
  H   H56       1.0  0.51983  0.33750  0.21743  1.0000
  H   H57       1.0  0.53059  0.29568  0.15493  1.0000
  N   N26       1.0  0.51725  0.21377  0.18627  1.0000
  H   H58       1.0  0.52413  0.18297  0.17927  1.0000
  H   H59       1.0  0.51373  0.22958  0.13079  1.0000
  N   N27       1.0  0.49184  0.34097  0.37415  1.0000
  H   H60       1.0  0.47673  0.35699  0.32736  1.0000
  C   C67       1.0  0.70449  0.00605  0.32456  1.0000
  C   C68       1.0  0.72304  0.00044  0.23770  1.0000
  C   C69       1.0  0.76869  0.99105  0.23007  1.0000
  N   N28       1.0  0.69734  0.00176  0.16283  1.0000
  H   H61       1.0  0.66614  0.00677  0.16480  1.0000
  H   H62       1.0  0.70986  0.00424  0.10363  1.0000
  N   N29       1.0  0.78604  0.97466  0.15255  1.0000
  H   H63       1.0  0.81608  0.96446  0.14943  1.0000
  H   H64       1.0  0.76773  0.96477  0.10383  1.0000
  N   N30       1.0  0.65989  0.00491  0.33548  1.0000
  H   H65       1.0  0.64227  0.02226  0.29521  1.0000
  C   C70       1.0  0.51531  0.48312  0.34730  1.0000
  C   C71       1.0  0.50403  0.43918  0.37000  1.0000
  C   C72       1.0  0.53463  0.40794  0.40113  1.0000
  C   C73       1.0  0.57838  0.42179  0.41056  1.0000
  H   H66       1.0  0.97210  0.42986  0.37133  1.0000
  H   H67       1.0  0.60095  0.39921  0.43077  1.0000
  C   C74       1.0  0.98320  0.01532  0.32113  1.0000
  C   C75       1.0  0.96305  0.09346  0.28834  1.0000
  C   C76       1.0  0.99278  0.06106  0.31872  1.0000
  H   H68       1.0  0.52221  0.07165  0.34147  1.0000
  C   C77       1.0  0.97114  0.13942  0.29037  1.0000
  C   C78       1.0  0.52439  0.36325  0.41766  1.0000
  O   O11       1.0  0.94041  0.16602  0.25311  1.0000
  O   O12       1.0  0.55359  0.33948  0.46623  1.0000
  C   C79       1.0  0.50608  0.20454  0.34475  1.0000
  C   C80       1.0  0.50024  0.22300  0.43164  1.0000
  C   C81       1.0  0.49069  0.26862  0.43935  1.0000
  N   N31       1.0  0.47420  0.28586  0.51688  1.0000
  H   H69       1.0  0.46429  0.26754  0.56554  1.0000
  H   H70       1.0  0.46404  0.31592  0.52011  1.0000
  N   N32       1.0  0.50150  0.19724  0.50644  1.0000
  H   H71       1.0  0.50670  0.16607  0.50440  1.0000
  H   H72       1.0  0.50381  0.20971  0.56570  1.0000
  N   N33       1.0  0.50487  0.15994  0.33369  1.0000
  H   H73       1.0  0.52210  0.14223  0.37400  1.0000
  C   C82       1.0  0.79647  0.99538  0.30615  1.0000
  C   C83       1.0  0.77851  0.00603  0.39153  1.0000
  C   C84       1.0  0.73208  0.00880  0.40152  1.0000
  N   N34       1.0  0.71354  0.01663  0.48330  1.0000
  H   H74       1.0  0.72930  0.01273  0.53874  1.0000
  H   H75       1.0  0.68269  0.02323  0.49033  1.0000
  N   N35       1.0  0.80590  0.01721  0.46043  1.0000
  H   H76       1.0  0.83727  0.01971  0.45291  1.0000
  H   H77       1.0  0.79537  0.03007  0.51531  1.0000
  N   N36       1.0  0.84099  0.99268  0.29555  1.0000
  H   H78       1.0  0.85710  0.97739  0.34208  1.0000
  C   C85       1.0  0.59344  0.96274  0.37959  1.0000
  C   C86       1.0  0.56107  0.99260  0.34965  1.0000
  H   H79       1.0  0.57168  0.52204  0.32698  1.0000
  C   C87       1.0  0.93924  0.50413  0.29851  1.0000
  C   C88       1.0  0.90815  0.53476  0.26691  1.0000
  C   C89       1.0  0.92214  0.57844  0.25702  1.0000
  H   H80       1.0  0.92983  0.97222  0.29723  1.0000
  H   H81       1.0  0.89966  0.60103  0.23644  1.0000
  C   C90       1.0  0.86341  0.52465  0.25070  1.0000
  C   C91       1.0  0.63940  0.97079  0.37759  1.0000
  O   O13       1.0  0.66598  0.93995  0.41454  1.0000
  O   O14       1.0  0.83959  0.55383  0.20223  1.0000
  C   C92       1.0  0.49507  0.79648  0.36340  1.0000
  C   C93       1.0  0.50611  0.77864  0.27811  1.0000
  C   C94       1.0  0.50906  0.73222  0.26796  1.0000
  N   N37       1.0  0.51735  0.80616  0.20946  1.0000
  H   H82       1.0  0.51983  0.83750  0.21743  1.0000
  H   H83       1.0  0.53059  0.79568  0.15493  1.0000
  N   N38       1.0  0.51725  0.71377  0.18627  1.0000
  H   H84       1.0  0.52413  0.68297  0.17927  1.0000
  H   H85       1.0  0.51373  0.72958  0.13079  1.0000
  N   N39       1.0  0.49184  0.84097  0.37415  1.0000
  H   H86       1.0  0.47673  0.85699  0.32736  1.0000
  C   C95       1.0  0.70449  0.50605  0.32456  1.0000
  C   C96       1.0  0.72304  0.50044  0.23770  1.0000
  C   C97       1.0  0.76869  0.49105  0.23007  1.0000
  N   N40       1.0  0.69734  0.50176  0.16283  1.0000
  H   H87       1.0  0.66614  0.50677  0.16480  1.0000
  H   H88       1.0  0.70986  0.50424  0.10363  1.0000
  N   N41       1.0  0.78604  0.47466  0.15255  1.0000
  H   H89       1.0  0.81608  0.46446  0.14943  1.0000
  H   H90       1.0  0.76773  0.46477  0.10383  1.0000
  N   N42       1.0  0.65989  0.50491  0.33548  1.0000
  H   H91       1.0  0.64227  0.52226  0.29521  1.0000
  C   C98       1.0  0.51531  0.98312  0.34730  1.0000
  C   C99       1.0  0.50403  0.93918  0.37000  1.0000
  C   C100      1.0  0.53463  0.90794  0.40113  1.0000
  C   C101      1.0  0.57838  0.92179  0.41056  1.0000
  H   H92       1.0  0.97210  0.92986  0.37133  1.0000
  H   H93       1.0  0.60095  0.89921  0.43077  1.0000
  C   C102      1.0  0.98320  0.51532  0.32113  1.0000
  C   C103      1.0  0.96305  0.59346  0.28834  1.0000
  C   C104      1.0  0.99278  0.56106  0.31872  1.0000
  H   H94       1.0  0.52221  0.57164  0.34147  1.0000
  C   C105      1.0  0.97114  0.63942  0.29037  1.0000
  C   C106      1.0  0.52439  0.86325  0.41766  1.0000
  O   O15       1.0  0.94041  0.66602  0.25311  1.0000
  O   O16       1.0  0.55359  0.83948  0.46623  1.0000
  C   C107      1.0  0.50608  0.70454  0.34475  1.0000
  C   C108      1.0  0.50024  0.72300  0.43164  1.0000
  C   C109      1.0  0.49069  0.76862  0.43935  1.0000
  N   N43       1.0  0.47420  0.78585  0.51688  1.0000
  H   H95       1.0  0.46429  0.76754  0.56554  1.0000
  H   H96       1.0  0.46404  0.81592  0.52011  1.0000
  N   N44       1.0  0.50150  0.69724  0.50644  1.0000
  H   H97       1.0  0.50670  0.66607  0.50440  1.0000
  H   H98       1.0  0.50381  0.70971  0.56570  1.0000
  N   N45       1.0  0.50487  0.65994  0.33369  1.0000
  H   H99       1.0  0.52210  0.64223  0.37400  1.0000
  C   C110      1.0  0.79647  0.49538  0.30615  1.0000
  C   C111      1.0  0.77851  0.50602  0.39153  1.0000
  C   C112      1.0  0.73208  0.50880  0.40152  1.0000
  N   N46       1.0  0.71354  0.51663  0.48330  1.0000
  H   H100      1.0  0.72930  0.51273  0.53874  1.0000
  H   H101      1.0  0.68269  0.52323  0.49033  1.0000
  N   N47       1.0  0.80590  0.51721  0.46043  1.0000
  H   H102      1.0  0.83727  0.51970  0.45291  1.0000
  H   H103      1.0  0.79537  0.53007  0.51531  1.0000
  N   N48       1.0  0.84099  0.49268  0.29555  1.0000
  H   H104      1.0  0.85710  0.47739  0.34208  1.0000
