data_image0
_chemical_formula_structural       C15H12C3H3NC3H3NC2NC2NC5NC3NC17H14C2H3NC3H3NC16H12C3H3NC3H3NC2NC2NC5NC3NC17H14C2H3NC3H3NC16H12C3H3NC3H3NC2NC2NC5NC3NC17H14C2H3NC3H3NC16H12C3H3NC3H3NC2NC2NC5NC3NC17H14C2H3NC3H3NC
_chemical_formula_sum              "C224 H152 N32"
_cell_length_a       42.7688
_cell_length_b       42.7688
_cell_length_c       14.964
_cell_angle_alpha    90
_cell_angle_beta     90
_cell_angle_gamma    90

_space_group_name_H-M_alt    "P 1"
_space_group_IT_number       1

loop_
  _space_group_symop_operation_xyz
  'x, y, z'

loop_
  _atom_site_type_symbol
  _atom_site_label
  _atom_site_symmetry_multiplicity
  _atom_site_fract_x
  _atom_site_fract_y
  _atom_site_fract_z
  _atom_site_occupancy
  C   C1        1.0  0.43412  0.47130  0.33724  1.0000
  C   C2        1.0  0.03037  0.43307  0.33735  1.0000
  C   C3        1.0  0.50012  0.08249  0.33680  1.0000
  C   C4        1.0  0.47054  0.06725  0.33783  1.0000
  C   C5        1.0  0.41863  0.05928  0.33685  1.0000
  C   C6        1.0  0.44142  0.08203  0.33922  1.0000
  C   C7        1.0  0.33565  0.48801  0.25642  1.0000
  C   C8        1.0  0.36853  0.48877  0.25858  1.0000
  C   C9        1.0  0.50036  0.11601  0.33368  1.0000
  C   C10       1.0  0.48786  0.16502  0.25652  1.0000
  C   C11       1.0  0.48859  0.13214  0.25852  1.0000
  C   C12       1.0  0.13397  0.01159  0.26800  1.0000
  C   C13       1.0  0.16684  0.01244  0.27194  1.0000
  C   C14       1.0  0.01167  0.36656  0.26711  1.0000
  C   C15       1.0  0.01232  0.33369  0.27113  1.0000
  H   H1        1.0  0.02149  0.32204  0.21748  1.0000
  H   H2        1.0  0.02008  0.37749  0.21121  1.0000
  H   H3        1.0  0.43762  0.39588  0.33465  1.0000
  H   H4        1.0  0.12296  0.02011  0.21235  1.0000
  H   H5        1.0  0.17842  0.02187  0.21853  1.0000
  H   H6        1.0  0.06334  0.10447  0.33519  1.0000
  H   H7        1.0  0.39520  0.06387  0.33563  1.0000
  H   H8        1.0  0.43690  0.10547  0.34037  1.0000
  H   H9        1.0  0.47937  0.11999  0.20580  1.0000
  H   H10       1.0  0.47679  0.17514  0.20383  1.0000
  H   H11       1.0  0.38072  0.47984  0.20552  1.0000
  H   H12       1.0  0.32557  0.47713  0.20335  1.0000
  C   C16       1.0  0.00067  0.21707  0.32539  1.0000
  C   C17       1.0  0.00105  0.23744  0.25013  1.0000
  C   C18       1.0  0.00458  0.22837  0.15519  1.0000
  H   H13       1.0  0.02174  0.20964  0.14838  1.0000
  H   H14       1.0  0.01265  0.24801  0.11463  1.0000
  H   H15       1.0  0.48213  0.22086  0.12826  1.0000
  N   N1        1.0  0.00085  0.26872  0.26619  1.0000
  C   C19       1.0  0.28353  0.00052  0.32553  1.0000
  C   C20       1.0  0.26316  0.00124  0.25028  1.0000
  C   C21       1.0  0.27226  0.00493  0.15542  1.0000
  H   H16       1.0  0.29096  0.02213  0.14888  1.0000
  H   H17       1.0  0.25261  0.01303  0.11492  1.0000
  H   H18       1.0  0.27981  0.48253  0.12821  1.0000
  N   N2        1.0  0.23187  0.00102  0.26631  1.0000
  C   C22       1.0  0.44229  0.41929  0.33615  1.0000
  C   C23       1.0  0.41952  0.44207  0.33802  1.0000
  N   N3        1.0  0.46524  0.46499  0.33753  1.0000
  C   C24       1.0  0.47153  0.43387  0.33742  1.0000
  C   C25       1.0  0.50078  0.41786  0.33774  1.0000
  N   N4        1.0  0.03646  0.46412  0.33726  1.0000
  C   C26       1.0  0.06751  0.47022  0.33715  1.0000
  C   C27       1.0  0.08227  0.44108  0.33568  1.0000
  C   C28       1.0  0.05950  0.41831  0.33797  1.0000
  C   C29       1.0  0.08276  0.49979  0.33812  1.0000
  C   C30       1.0  0.06679  0.02906  0.33814  1.0000
  N   N5        1.0  0.03567  0.03538  0.33753  1.0000
  C   C31       1.0  0.02938  0.06650  0.33710  1.0000
  C   C32       1.0  0.05863  0.08107  0.33637  1.0000
  C   C33       1.0  0.08139  0.05829  0.33936  1.0000
  N   N6        1.0  0.46442  0.03620  0.33782  1.0000
  C   C34       1.0  0.43336  0.03014  0.33761  1.0000
  C   C35       1.0  0.41813  0.50056  0.33693  1.0000
  C   C36       1.0  0.38460  0.50034  0.33408  1.0000
  C   C37       1.0  0.36668  0.01150  0.40662  1.0000
  C   C38       1.0  0.33381  0.01217  0.40199  1.0000
  C   C39       1.0  0.31725  0.50062  0.32652  1.0000
  C   C40       1.0  0.01183  0.13389  0.40593  1.0000
  C   C41       1.0  0.01259  0.16675  0.40133  1.0000
  C   C42       1.0  0.50077  0.18337  0.32628  1.0000
  C   C43       1.0  0.11629  0.50004  0.34057  1.0000
  C   C44       1.0  0.18361  0.50068  0.34672  1.0000
  C   C45       1.0  0.16551  0.48764  0.41677  1.0000
  C   C46       1.0  0.13263  0.48824  0.41536  1.0000
  C   C47       1.0  0.50053  0.38433  0.34000  1.0000
  C   C48       1.0  0.48892  0.36811  0.41521  1.0000
  C   C49       1.0  0.48814  0.33523  0.41680  1.0000
  C   C50       1.0  0.50078  0.31701  0.34638  1.0000
  H   H19       1.0  0.47730  0.32498  0.46971  1.0000
  H   H20       1.0  0.47997  0.38020  0.46844  1.0000
  H   H21       1.0  0.39610  0.43741  0.33913  1.0000
  H   H22       1.0  0.48111  0.48086  0.33779  1.0000
  H   H23       1.0  0.01980  0.01951  0.33718  1.0000
  H   H24       1.0  0.06406  0.39488  0.33898  1.0000
  H   H25       1.0  0.10570  0.43654  0.33429  1.0000
  H   H26       1.0  0.12062  0.47899  0.46831  1.0000
  H   H27       1.0  0.17585  0.47662  0.46926  1.0000
  H   H28       1.0  0.10479  0.06298  0.34109  1.0000
  H   H29       1.0  0.02032  0.12304  0.46188  1.0000
  H   H30       1.0  0.02196  0.17844  0.45461  1.0000
  H   H31       1.0  0.32210  0.02135  0.45551  1.0000
  H   H32       1.0  0.37749  0.01989  0.46274  1.0000
  C   C51       1.0  0.00698  0.27218  0.51655  1.0000
  C   C52       1.0  0.00222  0.26299  0.42214  1.0000
  H   H33       1.0  0.48487  0.27958  0.54592  1.0000
  H   H34       1.0  0.52409  0.29103  0.52132  1.0000
  H   H35       1.0  0.01573  0.25262  0.55626  1.0000
  N   N7        1.0  0.00187  0.23172  0.40611  1.0000
  C   C53       1.0  0.00071  0.28334  0.34699  1.0000
  C   C54       1.0  0.22842  0.00664  0.51675  1.0000
  C   C55       1.0  0.23761  0.00194  0.42232  1.0000
  H   H36       1.0  0.22117  0.48449  0.54613  1.0000
  H   H37       1.0  0.20947  0.52364  0.52160  1.0000
  H   H38       1.0  0.24795  0.01552  0.55640  1.0000
  N   N8        1.0  0.26888  0.00158  0.40625  1.0000
  C   C56       1.0  0.21728  0.00064  0.34713  1.0000
  C   C57       1.0  0.43412  0.97130  0.33724  1.0000
  C   C58       1.0  0.03037  0.93307  0.33735  1.0000
  C   C59       1.0  0.50012  0.58249  0.33680  1.0000
  C   C60       1.0  0.47054  0.56725  0.33783  1.0000
  C   C61       1.0  0.41863  0.55928  0.33685  1.0000
  C   C62       1.0  0.44142  0.58203  0.33922  1.0000
  C   C63       1.0  0.33565  0.98801  0.25642  1.0000
  C   C64       1.0  0.36853  0.98877  0.25858  1.0000
  C   C65       1.0  0.50036  0.61601  0.33368  1.0000
  C   C66       1.0  0.48786  0.66502  0.25652  1.0000
  C   C67       1.0  0.48859  0.63214  0.25852  1.0000
  C   C68       1.0  0.13397  0.51159  0.26800  1.0000
  C   C69       1.0  0.16684  0.51244  0.27194  1.0000
  C   C70       1.0  0.01167  0.86656  0.26711  1.0000
  C   C71       1.0  0.01232  0.83368  0.27113  1.0000
  H   H39       1.0  0.02149  0.82204  0.21748  1.0000
  H   H40       1.0  0.02008  0.87749  0.21121  1.0000
  H   H41       1.0  0.43762  0.89587  0.33465  1.0000
  H   H42       1.0  0.12296  0.52011  0.21235  1.0000
  H   H43       1.0  0.17842  0.52187  0.21853  1.0000
  H   H44       1.0  0.06334  0.60447  0.33519  1.0000
  H   H45       1.0  0.39520  0.56387  0.33563  1.0000
  H   H46       1.0  0.43690  0.60547  0.34037  1.0000
  H   H47       1.0  0.47937  0.61999  0.20580  1.0000
  H   H48       1.0  0.47679  0.67514  0.20383  1.0000
  H   H49       1.0  0.38072  0.97984  0.20552  1.0000
  H   H50       1.0  0.32557  0.97713  0.20335  1.0000
  C   C72       1.0  0.00067  0.71707  0.32539  1.0000
  C   C73       1.0  0.00105  0.73744  0.25013  1.0000
  C   C74       1.0  0.00458  0.72837  0.15519  1.0000
  H   H51       1.0  0.02174  0.70964  0.14838  1.0000
  H   H52       1.0  0.01265  0.74801  0.11463  1.0000
  H   H53       1.0  0.48213  0.72086  0.12826  1.0000
  N   N9        1.0  0.00085  0.76872  0.26619  1.0000
  C   C75       1.0  0.28353  0.50052  0.32553  1.0000
  C   C76       1.0  0.26316  0.50124  0.25028  1.0000
  C   C77       1.0  0.27226  0.50493  0.15542  1.0000
  H   H54       1.0  0.29096  0.52213  0.14888  1.0000
  H   H55       1.0  0.25261  0.51303  0.11492  1.0000
  H   H56       1.0  0.27981  0.98253  0.12821  1.0000
  N   N10       1.0  0.23187  0.50102  0.26631  1.0000
  C   C78       1.0  0.44229  0.91928  0.33615  1.0000
  C   C79       1.0  0.41952  0.94207  0.33802  1.0000
  N   N11       1.0  0.46524  0.96499  0.33753  1.0000
  C   C80       1.0  0.47153  0.93387  0.33742  1.0000
  C   C81       1.0  0.50078  0.91786  0.33774  1.0000
  N   N12       1.0  0.03646  0.96412  0.33726  1.0000
  C   C82       1.0  0.06751  0.97022  0.33715  1.0000
  C   C83       1.0  0.08227  0.94108  0.33568  1.0000
  C   C84       1.0  0.05950  0.91831  0.33797  1.0000
  C   C85       1.0  0.08276  0.99979  0.33812  1.0000
  C   C86       1.0  0.06679  0.52906  0.33814  1.0000
  N   N13       1.0  0.03567  0.53537  0.33753  1.0000
  C   C87       1.0  0.02938  0.56650  0.33710  1.0000
  C   C88       1.0  0.05863  0.58107  0.33637  1.0000
  C   C89       1.0  0.08139  0.55829  0.33936  1.0000
  N   N14       1.0  0.46442  0.53620  0.33782  1.0000
  C   C90       1.0  0.43336  0.53014  0.33761  1.0000
  C   C91       1.0  0.41813  0.00056  0.33693  1.0000
  C   C92       1.0  0.38460  0.00034  0.33408  1.0000
  C   C93       1.0  0.36668  0.51150  0.40662  1.0000
  C   C94       1.0  0.33381  0.51217  0.40199  1.0000
  C   C95       1.0  0.31725  0.00061  0.32652  1.0000
  C   C96       1.0  0.01183  0.63389  0.40593  1.0000
  C   C97       1.0  0.01259  0.66675  0.40133  1.0000
  C   C98       1.0  0.50077  0.68337  0.32628  1.0000
  C   C99       1.0  0.11629  0.00004  0.34057  1.0000
  C   C100      1.0  0.18361  0.00068  0.34672  1.0000
  C   C101      1.0  0.16551  0.98764  0.41677  1.0000
  C   C102      1.0  0.13263  0.98824  0.41536  1.0000
  C   C103      1.0  0.50053  0.88433  0.34000  1.0000
  C   C104      1.0  0.48892  0.86811  0.41521  1.0000
  C   C105      1.0  0.48814  0.83522  0.41680  1.0000
  C   C106      1.0  0.50078  0.81701  0.34638  1.0000
  H   H57       1.0  0.47730  0.82498  0.46971  1.0000
  H   H58       1.0  0.47997  0.88020  0.46844  1.0000
  H   H59       1.0  0.39610  0.93741  0.33913  1.0000
  H   H60       1.0  0.48111  0.98085  0.33779  1.0000
  H   H61       1.0  0.01980  0.51951  0.33718  1.0000
  H   H62       1.0  0.06406  0.89488  0.33898  1.0000
  H   H63       1.0  0.10570  0.93654  0.33429  1.0000
  H   H64       1.0  0.12062  0.97899  0.46831  1.0000
  H   H65       1.0  0.17585  0.97662  0.46926  1.0000
  H   H66       1.0  0.10479  0.56298  0.34109  1.0000
  H   H67       1.0  0.02032  0.62303  0.46188  1.0000
  H   H68       1.0  0.02196  0.67844  0.45461  1.0000
  H   H69       1.0  0.32210  0.52135  0.45551  1.0000
  H   H70       1.0  0.37749  0.51990  0.46274  1.0000
  C   C107      1.0  0.00698  0.77218  0.51655  1.0000
  C   C108      1.0  0.00222  0.76299  0.42214  1.0000
  H   H71       1.0  0.48487  0.77958  0.54592  1.0000
  H   H72       1.0  0.52409  0.79103  0.52132  1.0000
  H   H73       1.0  0.01573  0.75262  0.55626  1.0000
  N   N15       1.0  0.00187  0.73172  0.40611  1.0000
  C   C109      1.0  0.00071  0.78333  0.34699  1.0000
  C   C110      1.0  0.22842  0.50664  0.51675  1.0000
  C   C111      1.0  0.23761  0.50194  0.42232  1.0000
  H   H74       1.0  0.22117  0.98449  0.54613  1.0000
  H   H75       1.0  0.20947  0.02364  0.52160  1.0000
  H   H76       1.0  0.24795  0.51552  0.55640  1.0000
  N   N16       1.0  0.26888  0.50158  0.40625  1.0000
  C   C112      1.0  0.21728  0.50064  0.34713  1.0000
  C   C113      1.0  0.93412  0.47130  0.33724  1.0000
  C   C114      1.0  0.53037  0.43307  0.33735  1.0000
  C   C115      1.0  0.00012  0.08249  0.33680  1.0000
  C   C116      1.0  0.97054  0.06725  0.33783  1.0000
  C   C117      1.0  0.91863  0.05928  0.33685  1.0000
  C   C118      1.0  0.94142  0.08203  0.33922  1.0000
  C   C119      1.0  0.83564  0.48801  0.25642  1.0000
  C   C120      1.0  0.86853  0.48877  0.25858  1.0000
  C   C121      1.0  0.00037  0.11601  0.33368  1.0000
  C   C122      1.0  0.98785  0.16502  0.25652  1.0000
  C   C123      1.0  0.98859  0.13214  0.25852  1.0000
  C   C124      1.0  0.63397  0.01159  0.26800  1.0000
  C   C125      1.0  0.66684  0.01244  0.27194  1.0000
  C   C126      1.0  0.51167  0.36656  0.26711  1.0000
  C   C127      1.0  0.51232  0.33369  0.27113  1.0000
  H   H77       1.0  0.52149  0.32204  0.21748  1.0000
  H   H78       1.0  0.52009  0.37749  0.21121  1.0000
  H   H79       1.0  0.93762  0.39588  0.33465  1.0000
  H   H80       1.0  0.62296  0.02011  0.21235  1.0000
  H   H81       1.0  0.67842  0.02187  0.21853  1.0000
  H   H82       1.0  0.56334  0.10447  0.33519  1.0000
  H   H83       1.0  0.89520  0.06387  0.33563  1.0000
  H   H84       1.0  0.93690  0.10547  0.34037  1.0000
  H   H85       1.0  0.97937  0.11999  0.20580  1.0000
  H   H86       1.0  0.97679  0.17514  0.20383  1.0000
  H   H87       1.0  0.88073  0.47984  0.20552  1.0000
  H   H88       1.0  0.82556  0.47713  0.20335  1.0000
  C   C128      1.0  0.50067  0.21707  0.32539  1.0000
  C   C129      1.0  0.50106  0.23744  0.25013  1.0000
  C   C130      1.0  0.50458  0.22837  0.15519  1.0000
  H   H89       1.0  0.52174  0.20964  0.14838  1.0000
  H   H90       1.0  0.51265  0.24801  0.11463  1.0000
  H   H91       1.0  0.98213  0.22086  0.12826  1.0000
  N   N17       1.0  0.50085  0.26872  0.26619  1.0000
  C   C131      1.0  0.78353  0.00052  0.32553  1.0000
  C   C132      1.0  0.76316  0.00124  0.25028  1.0000
  C   C133      1.0  0.77226  0.00493  0.15542  1.0000
  H   H92       1.0  0.79096  0.02213  0.14888  1.0000
  H   H93       1.0  0.75261  0.01303  0.11492  1.0000
  H   H94       1.0  0.77980  0.48253  0.12821  1.0000
  N   N18       1.0  0.73187  0.00102  0.26631  1.0000
  C   C134      1.0  0.94229  0.41929  0.33615  1.0000
  C   C135      1.0  0.91952  0.44207  0.33802  1.0000
  N   N19       1.0  0.96524  0.46499  0.33753  1.0000
  C   C136      1.0  0.97153  0.43387  0.33742  1.0000
  C   C137      1.0  0.00078  0.41786  0.33774  1.0000
  N   N20       1.0  0.53646  0.46412  0.33726  1.0000
  C   C138      1.0  0.56751  0.47022  0.33715  1.0000
  C   C139      1.0  0.58227  0.44108  0.33568  1.0000
  C   C140      1.0  0.55950  0.41831  0.33797  1.0000
  C   C141      1.0  0.58276  0.49979  0.33812  1.0000
  C   C142      1.0  0.56679  0.02906  0.33814  1.0000
  N   N21       1.0  0.53567  0.03538  0.33753  1.0000
  C   C143      1.0  0.52938  0.06650  0.33710  1.0000
  C   C144      1.0  0.55863  0.08107  0.33637  1.0000
  C   C145      1.0  0.58139  0.05829  0.33936  1.0000
  N   N22       1.0  0.96442  0.03620  0.33782  1.0000
  C   C146      1.0  0.93336  0.03014  0.33761  1.0000
  C   C147      1.0  0.91813  0.50056  0.33693  1.0000
  C   C148      1.0  0.88460  0.50034  0.33408  1.0000
  C   C149      1.0  0.86668  0.01150  0.40662  1.0000
  C   C150      1.0  0.83381  0.01217  0.40199  1.0000
  C   C151      1.0  0.81725  0.50062  0.32652  1.0000
  C   C152      1.0  0.51183  0.13389  0.40593  1.0000
  C   C153      1.0  0.51259  0.16675  0.40133  1.0000
  C   C154      1.0  0.00077  0.18337  0.32628  1.0000
  C   C155      1.0  0.61629  0.50004  0.34057  1.0000
  C   C156      1.0  0.68361  0.50068  0.34672  1.0000
  C   C157      1.0  0.66551  0.48764  0.41677  1.0000
  C   C158      1.0  0.63263  0.48824  0.41536  1.0000
  C   C159      1.0  0.00053  0.38433  0.34000  1.0000
  C   C160      1.0  0.98892  0.36811  0.41521  1.0000
  C   C161      1.0  0.98814  0.33523  0.41680  1.0000
  C   C162      1.0  0.00078  0.31701  0.34638  1.0000
  H   H95       1.0  0.97730  0.32498  0.46971  1.0000
  H   H96       1.0  0.97998  0.38020  0.46844  1.0000
  H   H97       1.0  0.89610  0.43741  0.33913  1.0000
  H   H98       1.0  0.98111  0.48086  0.33779  1.0000
  H   H99       1.0  0.51980  0.01951  0.33718  1.0000
  H   H100      1.0  0.56406  0.39488  0.33898  1.0000
  H   H101      1.0  0.60570  0.43654  0.33429  1.0000
  H   H102      1.0  0.62062  0.47899  0.46831  1.0000
  H   H103      1.0  0.67585  0.47662  0.46926  1.0000
  H   H104      1.0  0.60479  0.06298  0.34109  1.0000
  H   H105      1.0  0.52032  0.12304  0.46188  1.0000
  H   H106      1.0  0.52196  0.17844  0.45461  1.0000
  H   H107      1.0  0.82210  0.02135  0.45551  1.0000
  H   H108      1.0  0.87749  0.01989  0.46274  1.0000
  C   C163      1.0  0.50697  0.27218  0.51655  1.0000
  C   C164      1.0  0.50222  0.26299  0.42214  1.0000
  H   H109      1.0  0.98487  0.27958  0.54592  1.0000
  H   H110      1.0  0.02409  0.29103  0.52132  1.0000
  H   H111      1.0  0.51573  0.25262  0.55626  1.0000
  N   N23       1.0  0.50187  0.23172  0.40611  1.0000
  C   C165      1.0  0.50071  0.28334  0.34699  1.0000
  C   C166      1.0  0.72842  0.00664  0.51675  1.0000
  C   C167      1.0  0.73761  0.00194  0.42232  1.0000
  H   H112      1.0  0.72117  0.48449  0.54613  1.0000
  H   H113      1.0  0.70947  0.52364  0.52160  1.0000
  H   H114      1.0  0.74795  0.01552  0.55640  1.0000
  N   N24       1.0  0.76888  0.00158  0.40625  1.0000
  C   C168      1.0  0.71728  0.00064  0.34713  1.0000
  C   C169      1.0  0.93412  0.97130  0.33724  1.0000
  C   C170      1.0  0.53037  0.93307  0.33735  1.0000
  C   C171      1.0  0.00012  0.58249  0.33680  1.0000
  C   C172      1.0  0.97054  0.56725  0.33783  1.0000
  C   C173      1.0  0.91863  0.55928  0.33685  1.0000
  C   C174      1.0  0.94142  0.58203  0.33922  1.0000
  C   C175      1.0  0.83564  0.98801  0.25642  1.0000
  C   C176      1.0  0.86853  0.98877  0.25858  1.0000
  C   C177      1.0  0.00037  0.61601  0.33368  1.0000
  C   C178      1.0  0.98785  0.66502  0.25652  1.0000
  C   C179      1.0  0.98859  0.63214  0.25852  1.0000
  C   C180      1.0  0.63397  0.51159  0.26800  1.0000
  C   C181      1.0  0.66684  0.51244  0.27194  1.0000
  C   C182      1.0  0.51167  0.86656  0.26711  1.0000
  C   C183      1.0  0.51232  0.83368  0.27113  1.0000
  H   H115      1.0  0.52149  0.82204  0.21748  1.0000
  H   H116      1.0  0.52009  0.87749  0.21121  1.0000
  H   H117      1.0  0.93762  0.89587  0.33465  1.0000
  H   H118      1.0  0.62296  0.52011  0.21235  1.0000
  H   H119      1.0  0.67842  0.52187  0.21853  1.0000
  H   H120      1.0  0.56334  0.60447  0.33519  1.0000
  H   H121      1.0  0.89520  0.56387  0.33563  1.0000
  H   H122      1.0  0.93690  0.60547  0.34037  1.0000
  H   H123      1.0  0.97937  0.61999  0.20580  1.0000
  H   H124      1.0  0.97679  0.67514  0.20383  1.0000
  H   H125      1.0  0.88073  0.97984  0.20552  1.0000
  H   H126      1.0  0.82556  0.97713  0.20335  1.0000
  C   C184      1.0  0.50067  0.71707  0.32539  1.0000
  C   C185      1.0  0.50106  0.73744  0.25013  1.0000
  C   C186      1.0  0.50458  0.72837  0.15519  1.0000
  H   H127      1.0  0.52174  0.70964  0.14838  1.0000
  H   H128      1.0  0.51265  0.74801  0.11463  1.0000
  H   H129      1.0  0.98213  0.72086  0.12826  1.0000
  N   N25       1.0  0.50085  0.76872  0.26619  1.0000
  C   C187      1.0  0.78353  0.50052  0.32553  1.0000
  C   C188      1.0  0.76316  0.50124  0.25028  1.0000
  C   C189      1.0  0.77226  0.50493  0.15542  1.0000
  H   H130      1.0  0.79096  0.52213  0.14888  1.0000
  H   H131      1.0  0.75261  0.51303  0.11492  1.0000
  H   H132      1.0  0.77980  0.98253  0.12821  1.0000
  N   N26       1.0  0.73187  0.50102  0.26631  1.0000
  C   C190      1.0  0.94229  0.91928  0.33615  1.0000
  C   C191      1.0  0.91952  0.94207  0.33802  1.0000
  N   N27       1.0  0.96524  0.96499  0.33753  1.0000
  C   C192      1.0  0.97153  0.93387  0.33742  1.0000
  C   C193      1.0  0.00078  0.91786  0.33774  1.0000
  N   N28       1.0  0.53646  0.96412  0.33726  1.0000
  C   C194      1.0  0.56751  0.97022  0.33715  1.0000
  C   C195      1.0  0.58227  0.94108  0.33568  1.0000
  C   C196      1.0  0.55950  0.91831  0.33797  1.0000
  C   C197      1.0  0.58276  0.99979  0.33812  1.0000
  C   C198      1.0  0.56679  0.52906  0.33814  1.0000
  N   N29       1.0  0.53567  0.53537  0.33753  1.0000
  C   C199      1.0  0.52938  0.56650  0.33710  1.0000
  C   C200      1.0  0.55863  0.58107  0.33637  1.0000
  C   C201      1.0  0.58139  0.55829  0.33936  1.0000
  N   N30       1.0  0.96442  0.53620  0.33782  1.0000
  C   C202      1.0  0.93336  0.53014  0.33761  1.0000
  C   C203      1.0  0.91813  0.00056  0.33693  1.0000
  C   C204      1.0  0.88460  0.00034  0.33408  1.0000
  C   C205      1.0  0.86668  0.51150  0.40662  1.0000
  C   C206      1.0  0.83381  0.51217  0.40199  1.0000
  C   C207      1.0  0.81725  0.00061  0.32652  1.0000
  C   C208      1.0  0.51183  0.63389  0.40593  1.0000
  C   C209      1.0  0.51259  0.66675  0.40133  1.0000
  C   C210      1.0  0.00077  0.68337  0.32628  1.0000
  C   C211      1.0  0.61629  0.00004  0.34057  1.0000
  C   C212      1.0  0.68361  0.00068  0.34672  1.0000
  C   C213      1.0  0.66551  0.98764  0.41677  1.0000
  C   C214      1.0  0.63263  0.98824  0.41536  1.0000
  C   C215      1.0  0.00053  0.88433  0.34000  1.0000
  C   C216      1.0  0.98892  0.86811  0.41521  1.0000
  C   C217      1.0  0.98814  0.83522  0.41680  1.0000
  C   C218      1.0  0.00078  0.81701  0.34638  1.0000
  H   H133      1.0  0.97730  0.82498  0.46971  1.0000
  H   H134      1.0  0.97998  0.88020  0.46844  1.0000
  H   H135      1.0  0.89610  0.93741  0.33913  1.0000
  H   H136      1.0  0.98111  0.98085  0.33779  1.0000
  H   H137      1.0  0.51980  0.51951  0.33718  1.0000
  H   H138      1.0  0.56406  0.89488  0.33898  1.0000
  H   H139      1.0  0.60570  0.93654  0.33429  1.0000
  H   H140      1.0  0.62062  0.97899  0.46831  1.0000
  H   H141      1.0  0.67585  0.97662  0.46926  1.0000
  H   H142      1.0  0.60479  0.56298  0.34109  1.0000
  H   H143      1.0  0.52032  0.62303  0.46188  1.0000
  H   H144      1.0  0.52196  0.67844  0.45461  1.0000
  H   H145      1.0  0.82210  0.52135  0.45551  1.0000
  H   H146      1.0  0.87749  0.51990  0.46274  1.0000
  C   C219      1.0  0.50697  0.77218  0.51655  1.0000
  C   C220      1.0  0.50222  0.76299  0.42214  1.0000
  H   H147      1.0  0.98487  0.77958  0.54592  1.0000
  H   H148      1.0  0.02409  0.79103  0.52132  1.0000
  H   H149      1.0  0.51573  0.75262  0.55626  1.0000
  N   N31       1.0  0.50187  0.73172  0.40611  1.0000
  C   C221      1.0  0.50071  0.78333  0.34699  1.0000
  C   C222      1.0  0.72842  0.50664  0.51675  1.0000
  C   C223      1.0  0.73761  0.50194  0.42232  1.0000
  H   H150      1.0  0.72117  0.98449  0.54613  1.0000
  H   H151      1.0  0.70947  0.02364  0.52160  1.0000
  H   H152      1.0  0.74795  0.51552  0.55640  1.0000
  N   N32       1.0  0.76888  0.50158  0.40625  1.0000
  C   C224      1.0  0.71728  0.50064  0.34713  1.0000
