data_image0
_chemical_formula_structural       NC3H3NC3H3NC3H3CNCHCNCHCNCHCNCNCNC18H12CNCNCNC18H12CNCNCNC18H12CNCNCNC18H12CNCHCNCHCNCHNC3H3NC3H3NC3H3
_chemical_formula_sum              "N24 C114 H72"
_cell_length_a       44.732
_cell_length_b       44.7319
_cell_length_c       14.9975
_cell_angle_alpha    90
_cell_angle_beta     90
_cell_angle_gamma    120

_space_group_name_H-M_alt    "P 1"
_space_group_IT_number       1

loop_
  _space_group_symop_operation_xyz
  'x, y, z'

loop_
  _atom_site_type_symbol
  _atom_site_label
  _atom_site_symmetry_multiplicity
  _atom_site_fract_x
  _atom_site_fract_y
  _atom_site_fract_z
  _atom_site_occupancy
  N   N1        1.0  0.22897  0.11449  0.25608  1.0000
  C   C1        1.0  0.19393  0.09697  0.24938  1.0000
  C   C2        1.0  0.17457  0.08731  0.32967  1.0000
  C   C3        1.0  0.17805  0.08902  0.15974  1.0000
  H   H1        1.0  0.19768  0.09883  0.10748  1.0000
  H   H2        1.0  0.16204  0.10089  0.15145  1.0000
  H   H3        1.0  0.16203  0.06114  0.15149  1.0000
  N   N2        1.0  0.87361  0.11450  0.25608  1.0000
  C   C4        1.0  0.89114  0.09699  0.24938  1.0000
  C   C5        1.0  0.90080  0.08730  0.32967  1.0000
  C   C6        1.0  0.89909  0.08906  0.15974  1.0000
  H   H4        1.0  0.88928  0.09888  0.10748  1.0000
  H   H5        1.0  0.88723  0.06118  0.15145  1.0000
  H   H6        1.0  0.92697  0.10093  0.15149  1.0000
  N   N3        1.0  0.87359  0.75917  0.25608  1.0000
  C   C7        1.0  0.89111  0.79420  0.24937  1.0000
  C   C8        1.0  0.90081  0.81356  0.32965  1.0000
  C   C9        1.0  0.89904  0.81008  0.15973  1.0000
  H   H7        1.0  0.88921  0.79044  0.10746  1.0000
  H   H8        1.0  0.92692  0.82608  0.15144  1.0000
  H   H9        1.0  0.88718  0.82610  0.15148  1.0000
  C   C10       1.0  0.59125  0.13187  0.33260  1.0000
  N   N4        1.0  0.54580  0.13435  0.25736  1.0000
  C   C11       1.0  0.57492  0.13220  0.25247  1.0000
  H   H10       1.0  0.58722  0.13651  0.19239  1.0000
  C   C12       1.0  0.85631  0.45954  0.33212  1.0000
  N   N5        1.0  0.85388  0.41156  0.25697  1.0000
  C   C13       1.0  0.85602  0.44283  0.25214  1.0000
  H   H11       1.0  0.85203  0.45104  0.19201  1.0000
  C   C14       1.0  0.52869  0.39683  0.33261  1.0000
  N   N6        1.0  0.57660  0.44229  0.25701  1.0000
  C   C15       1.0  0.54538  0.41310  0.25245  1.0000
  H   H12       1.0  0.53712  0.40093  0.19228  1.0000
  C   C16       1.0  0.97425  0.96043  0.33680  1.0000
  N   N7        1.0  0.00935  0.97879  0.33673  1.0000
  C   C17       1.0  0.02771  0.01388  0.33680  1.0000
  N   N8        1.0  0.00934  0.03061  0.33673  1.0000
  C   C18       1.0  0.97425  0.01388  0.33681  1.0000
  N   N9        1.0  0.95752  0.97879  0.33673  1.0000
  C   C19       1.0  0.06454  0.03229  0.33598  1.0000
  C   C20       1.0  0.08351  0.01466  0.33528  1.0000
  C   C21       1.0  0.11983  0.03276  0.33356  1.0000
  C   C22       1.0  0.13823  0.06914  0.33237  1.0000
  C   C23       1.0  0.11983  0.08712  0.33358  1.0000
  C   C24       1.0  0.08352  0.06891  0.33530  1.0000
  C   C25       1.0  0.95583  0.92359  0.33598  1.0000
  C   C26       1.0  0.97347  0.90462  0.33530  1.0000
  C   C27       1.0  0.95537  0.86830  0.33358  1.0000
  C   C28       1.0  0.91899  0.84990  0.33235  1.0000
  C   C29       1.0  0.90101  0.86831  0.33354  1.0000
  C   C30       1.0  0.91923  0.90462  0.33527  1.0000
  C   C31       1.0  0.95583  0.03229  0.33599  1.0000
  C   C32       1.0  0.91922  0.01465  0.33531  1.0000
  C   C33       1.0  0.90101  0.03275  0.33360  1.0000
  C   C34       1.0  0.91898  0.06913  0.33237  1.0000
  C   C35       1.0  0.95536  0.08711  0.33356  1.0000
  C   C36       1.0  0.97346  0.06890  0.33528  1.0000
  H   H13       1.0  0.96894  0.85545  0.33271  1.0000
  H   H14       1.0  0.99986  0.91699  0.33572  1.0000
  H   H15       1.0  0.87458  0.85546  0.33267  1.0000
  H   H16       1.0  0.90521  0.91699  0.33568  1.0000
  H   H17       1.0  0.90521  0.98827  0.33574  1.0000
  H   H18       1.0  0.87458  0.01917  0.33274  1.0000
  H   H19       1.0  0.99985  0.08292  0.33568  1.0000
  H   H20       1.0  0.96893  0.11354  0.33268  1.0000
  H   H21       1.0  0.07115  0.08292  0.33572  1.0000
  H   H22       1.0  0.13268  0.11354  0.33273  1.0000
  H   H23       1.0  0.13268  0.01919  0.33270  1.0000
  H   H24       1.0  0.07114  0.98827  0.33569  1.0000
  C   C37       1.0  0.44647  0.19662  0.33229  1.0000
  N   N10       1.0  0.41138  0.17975  0.33289  1.0000
  C   C38       1.0  0.39308  0.19667  0.33373  1.0000
  N   N11       1.0  0.41131  0.23190  0.33417  1.0000
  C   C39       1.0  0.44639  0.25019  0.33388  1.0000
  N   N12       1.0  0.46275  0.23158  0.33289  1.0000
  C   C40       1.0  0.35623  0.17821  0.33416  1.0000
  C   C41       1.0  0.33726  0.14160  0.33414  1.0000
  C   C42       1.0  0.30094  0.12335  0.33452  1.0000
  C   C43       1.0  0.28250  0.14130  0.33510  1.0000
  C   C44       1.0  0.30089  0.17768  0.33492  1.0000
  C   C45       1.0  0.33720  0.19581  0.33454  1.0000
  C   C46       1.0  0.46627  0.17960  0.33137  1.0000
  C   C47       1.0  0.45085  0.14321  0.33792  1.0000
  C   C48       1.0  0.47110  0.12708  0.33868  1.0000
  C   C49       1.0  0.50736  0.14703  0.33180  1.0000
  C   C50       1.0  0.52293  0.18322  0.32471  1.0000
  C   C51       1.0  0.50276  0.19914  0.32464  1.0000
  C   C52       1.0  0.46612  0.28702  0.33452  1.0000
  C   C53       1.0  0.50267  0.30407  0.33830  1.0000
  C   C54       1.0  0.52275  0.34017  0.33832  1.0000
  C   C55       1.0  0.50699  0.36069  0.33422  1.0000
  C   C56       1.0  0.47066  0.34430  0.33067  1.0000
  C   C57       1.0  0.45053  0.30791  0.33109  1.0000
  H   H25       1.0  0.45927  0.10080  0.34451  1.0000
  H   H26       1.0  0.42464  0.12801  0.34334  1.0000
  H   H27       1.0  0.54924  0.19843  0.32059  1.0000
  H   H28       1.0  0.51544  0.22548  0.31974  1.0000
  H   H29       1.0  0.51547  0.29048  0.34104  1.0000
  H   H30       1.0  0.54909  0.35134  0.34072  1.0000
  H   H31       1.0  0.42425  0.29683  0.32813  1.0000
  H   H32       1.0  0.45870  0.35868  0.32750  1.0000
  H   H33       1.0  0.34954  0.22219  0.33444  1.0000
  H   H34       1.0  0.28801  0.19123  0.33506  1.0000
  H   H35       1.0  0.28810  0.09692  0.33438  1.0000
  H   H36       1.0  0.34964  0.12759  0.33380  1.0000
  C   C58       1.0  0.79147  0.24986  0.33244  1.0000
  N   N13       1.0  0.80834  0.23164  0.33302  1.0000
  C   C59       1.0  0.79142  0.19642  0.33382  1.0000
  N   N14       1.0  0.75619  0.17942  0.33423  1.0000
  C   C60       1.0  0.73789  0.19621  0.33395  1.0000
  N   N15       1.0  0.75651  0.23117  0.33300  1.0000
  C   C61       1.0  0.80988  0.17802  0.33423  1.0000
  C   C62       1.0  0.84649  0.19567  0.33420  1.0000
  C   C63       1.0  0.86474  0.17760  0.33455  1.0000
  C   C64       1.0  0.84680  0.14122  0.33511  1.0000
  C   C65       1.0  0.81042  0.12322  0.33492  1.0000
  C   C66       1.0  0.79228  0.14141  0.33457  1.0000
  C   C67       1.0  0.80848  0.28668  0.33150  1.0000
  C   C68       1.0  0.84487  0.30767  0.33799  1.0000
  C   C69       1.0  0.86099  0.34404  0.33867  1.0000
  C   C70       1.0  0.84101  0.36033  0.33178  1.0000
  C   C71       1.0  0.80483  0.33970  0.32467  1.0000
  C   C72       1.0  0.78892  0.30361  0.32472  1.0000
  C   C73       1.0  0.70106  0.17911  0.33454  1.0000
  C   C74       1.0  0.68402  0.19862  0.33817  1.0000
  C   C75       1.0  0.64791  0.18259  0.33817  1.0000
  C   C76       1.0  0.62739  0.14632  0.33416  1.0000
  C   C77       1.0  0.64379  0.12638  0.33073  1.0000
  C   C78       1.0  0.68017  0.14263  0.33118  1.0000
  H   H37       1.0  0.88727  0.35851  0.34442  1.0000
  H   H38       1.0  0.86008  0.29667  0.34345  1.0000
  H   H39       1.0  0.78960  0.35078  0.32044  1.0000
  H   H40       1.0  0.76259  0.28994  0.31980  1.0000
  H   H41       1.0  0.69760  0.22500  0.34085  1.0000
  H   H42       1.0  0.63674  0.19777  0.34048  1.0000
  H   H43       1.0  0.69126  0.12744  0.32832  1.0000
  H   H44       1.0  0.62940  0.10003  0.32766  1.0000
  H   H45       1.0  0.76590  0.12736  0.33448  1.0000
  H   H46       1.0  0.79686  0.09679  0.33504  1.0000
  H   H47       1.0  0.89117  0.19120  0.33443  1.0000
  H   H48       1.0  0.86050  0.22206  0.33388  1.0000
  C   C79       1.0  0.73825  0.54166  0.33254  1.0000
  N   N16       1.0  0.75645  0.57674  0.33310  1.0000
  C   C80       1.0  0.79168  0.59506  0.33394  1.0000
  N   N17       1.0  0.80868  0.57684  0.33440  1.0000
  C   C81       1.0  0.79191  0.54176  0.33415  1.0000
  N   N18       1.0  0.75695  0.52539  0.33316  1.0000
  C   C82       1.0  0.81007  0.63191  0.33431  1.0000
  C   C83       1.0  0.79241  0.65087  0.33424  1.0000
  C   C84       1.0  0.81048  0.68719  0.33456  1.0000
  C   C85       1.0  0.84686  0.70564  0.33513  1.0000
  C   C86       1.0  0.86486  0.68726  0.33498  1.0000
  C   C87       1.0  0.84668  0.65094  0.33465  1.0000
  C   C88       1.0  0.70143  0.52184  0.33155  1.0000
  C   C89       1.0  0.68043  0.53723  0.33806  1.0000
  C   C90       1.0  0.64405  0.51696  0.33869  1.0000
  C   C91       1.0  0.62778  0.48070  0.33176  1.0000
  C   C92       1.0  0.64842  0.46516  0.32465  1.0000
  C   C93       1.0  0.68451  0.48535  0.32473  1.0000
  C   C94       1.0  0.80903  0.52205  0.33474  1.0000
  C   C95       1.0  0.78954  0.48549  0.33845  1.0000
  C   C96       1.0  0.80559  0.46543  0.33830  1.0000
  C   C97       1.0  0.84186  0.48120  0.33416  1.0000
  C   C98       1.0  0.86178  0.51754  0.33064  1.0000
  C   C99       1.0  0.84551  0.53765  0.33121  1.0000
  H   H49       1.0  0.62958  0.52877  0.34445  1.0000
  H   H50       1.0  0.69142  0.56344  0.34352  1.0000
  H   H51       1.0  0.63735  0.43886  0.32042  1.0000
  H   H52       1.0  0.69818  0.47269  0.31981  1.0000
  H   H53       1.0  0.76316  0.47268  0.34122  1.0000
  H   H54       1.0  0.79042  0.43909  0.34059  1.0000
  H   H55       1.0  0.86069  0.56393  0.32825  1.0000
  H   H56       1.0  0.88813  0.52952  0.32734  1.0000
  H   H57       1.0  0.86074  0.63861  0.33458  1.0000
  H   H58       1.0  0.89129  0.70013  0.33511  1.0000
  H   H59       1.0  0.79688  0.70002  0.33442  1.0000
  H   H60       1.0  0.76602  0.63849  0.33392  1.0000
  C   C100      1.0  0.24622  0.12313  0.33490  1.0000
  N   N19       1.0  0.19186  0.09597  0.40856  1.0000
  C   C101      1.0  0.22679  0.11344  0.41426  1.0000
  H   H61       1.0  0.23841  0.11927  0.47546  1.0000
  C   C102      1.0  0.86496  0.12311  0.33490  1.0000
  N   N20       1.0  0.89214  0.09591  0.40856  1.0000
  C   C103      1.0  0.87466  0.11337  0.41426  1.0000
  H   H62       1.0  0.86883  0.11916  0.47546  1.0000
  C   C104      1.0  0.86498  0.74192  0.33490  1.0000
  N   N21       1.0  0.89219  0.79628  0.40855  1.0000
  C   C105      1.0  0.87472  0.76135  0.41427  1.0000
  H   H63       1.0  0.86893  0.74973  0.47547  1.0000
  N   N22       1.0  0.57549  0.13171  0.41019  1.0000
  C   C106      1.0  0.54461  0.13065  0.41565  1.0000
  C   C107      1.0  0.52924  0.13274  0.33485  1.0000
  C   C108      1.0  0.53137  0.13215  0.50492  1.0000
  H   H64       1.0  0.54723  0.13036  0.55767  1.0000
  H   H65       1.0  0.50505  0.11069  0.51259  1.0000
  H   H66       1.0  0.53140  0.15640  0.51314  1.0000
  N   N23       1.0  0.85630  0.44381  0.40969  1.0000
  C   C109      1.0  0.85730  0.41396  0.41524  1.0000
  C   C110      1.0  0.85525  0.39649  0.33444  1.0000
  C   C111      1.0  0.85563  0.39920  0.50461  1.0000
  H   H67       1.0  0.85742  0.41689  0.55727  1.0000
  H   H68       1.0  0.87702  0.39426  0.51256  1.0000
  H   H69       1.0  0.83132  0.37503  0.51271  1.0000
  N   N24       1.0  0.54438  0.41260  0.41012  1.0000
  C   C112      1.0  0.57424  0.44345  0.41546  1.0000
  C   C113      1.0  0.59160  0.45877  0.33448  1.0000
  C   C114      1.0  0.58901  0.45673  0.50470  1.0000
  H   H70       1.0  0.57137  0.44089  0.55750  1.0000
  H   H71       1.0  0.59388  0.48305  0.51231  1.0000
  H   H72       1.0  0.61323  0.45669  0.51289  1.0000
