data_image0
_chemical_formula_structural       CH4CH4NC2OCH3NHNC2OCH3NHNC2OCH3NHC29H17C3O3C29H17C3O3CNCOCH3NHCNCOCH3NHCNCOCH3NH
_chemical_formula_sum              "C84 H66 N12 O12"
_cell_length_a       44.9231
_cell_length_b       44.9232
_cell_length_c       14.9972
_cell_angle_alpha    90
_cell_angle_beta     90
_cell_angle_gamma    120

_space_group_name_H-M_alt    "P 1"
_space_group_IT_number       1

loop_
  _space_group_symop_operation_xyz
  'x, y, z'

loop_
  _atom_site_type_symbol
  _atom_site_label
  _atom_site_symmetry_multiplicity
  _atom_site_fract_x
  _atom_site_fract_y
  _atom_site_fract_z
  _atom_site_occupancy
  C   C1        1.0  0.40776  0.85454  0.33275  1.0000
  H   H1        1.0  0.39665  0.86963  0.33438  1.0000
  H   H2        1.0  0.36032  0.80917  0.31594  1.0000
  H   H3        1.0  0.47317  0.60360  0.33458  1.0000
  H   H4        1.0  0.13060  0.52707  0.33454  1.0000
  C   C2        1.0  0.59251  0.14562  0.33430  1.0000
  H   H5        1.0  0.60361  0.13054  0.33263  1.0000
  H   H6        1.0  0.63996  0.19100  0.35104  1.0000
  H   H7        1.0  0.52710  0.39660  0.33257  1.0000
  H   H8        1.0  0.86970  0.47313  0.33259  1.0000
  N   N1        1.0  0.52035  0.49902  0.26930  1.0000
  C   C3        1.0  0.50537  0.51842  0.25532  1.0000
  C   C4        1.0  0.48397  0.51979  0.32258  1.0000
  O   O1        1.0  0.51186  0.53615  0.17696  1.0000
  C   C5        1.0  0.48767  0.51668  0.10792  1.0000
  H   H9        1.0  0.49474  0.53256  0.04811  1.0000
  H   H10       1.0  0.46150  0.50998  0.12634  1.0000
  H   H11       1.0  0.48834  0.49327  0.09220  1.0000
  N   N2        1.0  0.46882  0.53968  0.31394  1.0000
  H   H12       1.0  0.47873  0.55798  0.26964  1.0000
  N   N3        1.0  0.50121  0.02139  0.26930  1.0000
  C   C6        1.0  0.48181  0.98700  0.25529  1.0000
  C   C7        1.0  0.48043  0.96423  0.32255  1.0000
  O   O2        1.0  0.46409  0.97577  0.17691  1.0000
  C   C8        1.0  0.48357  0.97106  0.10790  1.0000
  H   H13       1.0  0.46770  0.96225  0.04806  1.0000
  H   H14       1.0  0.49027  0.95159  0.12633  1.0000
  H   H15       1.0  0.50698  0.99514  0.09220  1.0000
  N   N4        1.0  0.46055  0.92918  0.31384  1.0000
  H   H16       1.0  0.44227  0.92080  0.26952  1.0000
  N   N5        1.0  0.97886  0.47986  0.26930  1.0000
  C   C9        1.0  0.01324  0.49485  0.25531  1.0000
  C   C10       1.0  0.03600  0.51626  0.32255  1.0000
  O   O3        1.0  0.02448  0.48836  0.17696  1.0000
  C   C11       1.0  0.02919  0.51253  0.10790  1.0000
  H   H17       1.0  0.03800  0.50546  0.04810  1.0000
  H   H18       1.0  0.04866  0.53870  0.12630  1.0000
  H   H19       1.0  0.00511  0.51186  0.09218  1.0000
  N   N6        1.0  0.07105  0.53143  0.31389  1.0000
  H   H20       1.0  0.07944  0.52152  0.26959  1.0000
  C   C12       1.0  0.44369  0.86919  0.34390  1.0000
  C   C13       1.0  0.45735  0.84680  0.34439  1.0000
  C   C14       1.0  0.43593  0.81113  0.33352  1.0000
  C   C15       1.0  0.40000  0.79660  0.32358  1.0000
  C   C16       1.0  0.38625  0.81884  0.32250  1.0000
  C   C17       1.0  0.37824  0.76139  0.31442  1.0000
  C   C18       1.0  0.37836  0.73807  0.37047  1.0000
  C   C19       1.0  0.35603  0.70293  0.36359  1.0000
  C   C20       1.0  0.32000  0.68906  0.36426  1.0000
  C   C21       1.0  0.29731  0.65315  0.36371  1.0000
  C   C22       1.0  0.31118  0.63099  0.36433  1.0000
  C   C23       1.0  0.34709  0.64420  0.36371  1.0000
  C   C24       1.0  0.36925  0.68024  0.36423  1.0000
  C   C25       1.0  0.35991  0.62188  0.37060  1.0000
  C   C26       1.0  0.38334  0.62200  0.31454  1.0000
  C   C27       1.0  0.39680  0.60024  0.32371  1.0000
  C   C28       1.0  0.43278  0.61400  0.32269  1.0000
  C   C29       1.0  0.37540  0.56432  0.33364  1.0000
  C   C30       1.0  0.38966  0.54290  0.34455  1.0000
  C   C31       1.0  0.42569  0.55655  0.34405  1.0000
  C   C32       1.0  0.44698  0.59249  0.33286  1.0000
  C   C33       1.0  0.26216  0.64033  0.37061  1.0000
  C   C34       1.0  0.23884  0.61689  0.31458  1.0000
  C   C35       1.0  0.20363  0.60344  0.32373  1.0000
  C   C36       1.0  0.18911  0.62485  0.33363  1.0000
  C   C37       1.0  0.18140  0.56745  0.32271  1.0000
  C   C38       1.0  0.14569  0.55326  0.33288  1.0000
  C   C39       1.0  0.13105  0.57456  0.34399  1.0000
  C   C40       1.0  0.15343  0.61059  0.34448  1.0000
  H   H21       1.0  0.48321  0.85631  0.35144  1.0000
  H   H22       1.0  0.44682  0.79583  0.33335  1.0000
  H   H23       1.0  0.39533  0.69006  0.36706  1.0000
  H   H24       1.0  0.31017  0.70532  0.36707  1.0000
  H   H25       1.0  0.29492  0.60491  0.36719  1.0000
  H   H26       1.0  0.20441  0.65104  0.33343  1.0000
  H   H27       1.0  0.44905  0.63993  0.31609  1.0000
  H   H28       1.0  0.37330  0.51703  0.35157  1.0000
  H   H29       1.0  0.34920  0.55342  0.33344  1.0000
  H   H30       1.0  0.14393  0.62695  0.35149  1.0000
  H   H31       1.0  0.19106  0.55119  0.31611  1.0000
  H   H32       1.0  0.39269  0.63933  0.26574  1.0000
  H   H33       1.0  0.35083  0.60481  0.42004  1.0000
  H   H34       1.0  0.36089  0.75341  0.26565  1.0000
  H   H35       1.0  0.39544  0.74607  0.41990  1.0000
  H   H36       1.0  0.24683  0.60753  0.26579  1.0000
  H   H37       1.0  0.25417  0.64942  0.42003  1.0000
  C   C41       1.0  0.09500  0.56037  0.35676  1.0000
  C   C42       1.0  0.43990  0.53471  0.35687  1.0000
  C   C43       1.0  0.46556  0.90524  0.35667  1.0000
  O   O4        1.0  0.42186  0.50645  0.40839  1.0000
  O   O5        1.0  0.49376  0.91545  0.40842  1.0000
  O   O6        1.0  0.08478  0.57838  0.40841  1.0000
  C   C44       1.0  0.55658  0.13099  0.32313  1.0000
  C   C45       1.0  0.54294  0.15338  0.32258  1.0000
  C   C46       1.0  0.56436  0.18906  0.33346  1.0000
  C   C47       1.0  0.60029  0.20358  0.34340  1.0000
  C   C48       1.0  0.61403  0.18133  0.34450  1.0000
  C   C49       1.0  0.62205  0.23878  0.35255  1.0000
  C   C50       1.0  0.62193  0.26211  0.29655  1.0000
  C   C51       1.0  0.64425  0.29725  0.30349  1.0000
  C   C52       1.0  0.68029  0.31114  0.30282  1.0000
  C   C53       1.0  0.70298  0.34705  0.30344  1.0000
  C   C54       1.0  0.68910  0.36920  0.30282  1.0000
  C   C55       1.0  0.65319  0.35598  0.30345  1.0000
  C   C56       1.0  0.63103  0.31994  0.30286  1.0000
  C   C57       1.0  0.64036  0.37829  0.29650  1.0000
  C   C58       1.0  0.61692  0.37818  0.35253  1.0000
  C   C59       1.0  0.60347  0.39994  0.34336  1.0000
  C   C60       1.0  0.56748  0.38619  0.34446  1.0000
  C   C61       1.0  0.62487  0.43586  0.33338  1.0000
  C   C62       1.0  0.61062  0.45728  0.32247  1.0000
  C   C63       1.0  0.57458  0.44363  0.32303  1.0000
  C   C64       1.0  0.55329  0.40771  0.33426  1.0000
  C   C65       1.0  0.73812  0.35987  0.29647  1.0000
  C   C66       1.0  0.76145  0.38332  0.35248  1.0000
  C   C67       1.0  0.79666  0.39676  0.34330  1.0000
  C   C68       1.0  0.81117  0.37535  0.33331  1.0000
  C   C69       1.0  0.81890  0.43275  0.34438  1.0000
  C   C70       1.0  0.85461  0.44694  0.33419  1.0000
  C   C71       1.0  0.86924  0.42564  0.32299  1.0000
  C   C72       1.0  0.84685  0.38961  0.32243  1.0000
  H   H38       1.0  0.51707  0.14388  0.31558  1.0000
  H   H39       1.0  0.55347  0.20436  0.33364  1.0000
  H   H40       1.0  0.60495  0.31012  0.30001  1.0000
  H   H41       1.0  0.69012  0.29488  0.29998  1.0000
  H   H42       1.0  0.70535  0.39528  0.29994  1.0000
  H   H43       1.0  0.79587  0.34916  0.33346  1.0000
  H   H44       1.0  0.55122  0.36026  0.35104  1.0000
  H   H45       1.0  0.62698  0.48315  0.31543  1.0000
  H   H46       1.0  0.65107  0.44676  0.33354  1.0000
  H   H47       1.0  0.85635  0.37324  0.31537  1.0000
  H   H48       1.0  0.80924  0.44901  0.35104  1.0000
  H   H49       1.0  0.60757  0.36085  0.40135  1.0000
  H   H50       1.0  0.64944  0.39537  0.24705  1.0000
  H   H51       1.0  0.63939  0.24676  0.40136  1.0000
  H   H52       1.0  0.60486  0.25413  0.24712  1.0000
  H   H53       1.0  0.75348  0.39266  0.40131  1.0000
  H   H54       1.0  0.74610  0.35079  0.24701  1.0000
  C   C73       1.0  0.90529  0.43983  0.31021  1.0000
  C   C74       1.0  0.56039  0.46549  0.31022  1.0000
  C   C75       1.0  0.53471  0.09494  0.31036  1.0000
  O   O7        1.0  0.57838  0.49369  0.25849  1.0000
  O   O8        1.0  0.50651  0.08473  0.25861  1.0000
  O   O9        1.0  0.91550  0.42184  0.25847  1.0000
  C   C76       1.0  0.51629  0.48040  0.34449  1.0000
  N   N7        1.0  0.47992  0.50117  0.39779  1.0000
  C   C77       1.0  0.49491  0.48177  0.41176  1.0000
  O   O10       1.0  0.48843  0.46405  0.49014  1.0000
  C   C78       1.0  0.51261  0.48353  0.55916  1.0000
  H   H55       1.0  0.50555  0.46765  0.61899  1.0000
  H   H56       1.0  0.51193  0.50694  0.57487  1.0000
  H   H57       1.0  0.53878  0.49024  0.54074  1.0000
  N   N8        1.0  0.53147  0.46053  0.35319  1.0000
  H   H58       1.0  0.52158  0.44223  0.39750  1.0000
  C   C79       1.0  0.51982  0.03594  0.34450  1.0000
  N   N9        1.0  0.49905  0.97879  0.39775  1.0000
  C   C80       1.0  0.51845  0.01317  0.41175  1.0000
  O   O11       1.0  0.53617  0.02441  0.49012  1.0000
  C   C81       1.0  0.51670  0.02912  0.55916  1.0000
  H   H59       1.0  0.53257  0.03792  0.61898  1.0000
  H   H60       1.0  0.49328  0.00504  0.57485  1.0000
  H   H61       1.0  0.51000  0.04859  0.54073  1.0000
  N   N10       1.0  0.53971  0.07099  0.35321  1.0000
  H   H62       1.0  0.55800  0.07938  0.39753  1.0000
  C   C82       1.0  0.96429  0.48392  0.34448  1.0000
  N   N11       1.0  0.02144  0.52032  0.39775  1.0000
  C   C83       1.0  0.98706  0.50533  0.41174  1.0000
  O   O12       1.0  0.97581  0.51181  0.49010  1.0000
  C   C84       1.0  0.97111  0.48763  0.55915  1.0000
  H   H63       1.0  0.96230  0.49470  0.61897  1.0000
  H   H64       1.0  0.99520  0.48832  0.57487  1.0000
  H   H65       1.0  0.95166  0.46146  0.54075  1.0000
  N   N12       1.0  0.92924  0.46874  0.35319  1.0000
  H   H66       1.0  0.92085  0.47864  0.39749  1.0000
