data_image0
_chemical_formula_structural       C2H3NCNHC2H3NCNHC2H3NCNHCNCNCNC18H12C3O3CNCNCNC18H12C3O3C3H3N2HC3H3N2HC3H3N2H
_chemical_formula_sum              "C66 H48 N18 O6"
_cell_length_a       36.577
_cell_length_b       36.5765
_cell_length_c       15.067
_cell_angle_alpha    90
_cell_angle_beta     90
_cell_angle_gamma    120

_space_group_name_H-M_alt    "P 1"
_space_group_IT_number       1

loop_
  _space_group_symop_operation_xyz
  'x, y, z'

loop_
  _atom_site_type_symbol
  _atom_site_label
  _atom_site_symmetry_multiplicity
  _atom_site_fract_x
  _atom_site_fract_y
  _atom_site_fract_z
  _atom_site_occupancy
  C   C1        1.0  0.50112  0.48144  0.14184  1.0000
  C   C2        1.0  0.49977  0.48854  0.23811  1.0000
  H   H1        1.0  0.47006  0.45677  0.11972  1.0000
  H   H2        1.0  0.52424  0.47214  0.12450  1.0000
  H   H3        1.0  0.50940  0.51049  0.10591  1.0000
  N   N1        1.0  0.47480  0.50417  0.26438  1.0000
  C   C3        1.0  0.52350  0.48214  0.30441  1.0000
  N   N2        1.0  0.54670  0.46294  0.28919  1.0000
  H   H4        1.0  0.53536  0.44008  0.24596  1.0000
  C   C4        1.0  0.51091  0.01839  0.14154  1.0000
  C   C5        1.0  0.50506  0.01007  0.23802  1.0000
  H   H5        1.0  0.53393  0.01022  0.11664  1.0000
  H   H6        1.0  0.52170  0.05117  0.12477  1.0000
  H   H7        1.0  0.48087  0.99882  0.10760  1.0000
  N   N3        1.0  0.48941  0.96944  0.26417  1.0000
  C   C6        1.0  0.51226  0.04030  0.30465  1.0000
  N   N4        1.0  0.53148  0.08269  0.28938  1.0000
  H   H8        1.0  0.55437  0.09417  0.24624  1.0000
  C   C7        1.0  0.97590  0.49330  0.14181  1.0000
  C   C8        1.0  0.98433  0.49466  0.23810  1.0000
  H   H9        1.0  0.98223  0.52434  0.11970  1.0000
  H   H10       1.0  0.94349  0.47014  0.12446  1.0000
  H   H11       1.0  0.99671  0.48507  0.10590  1.0000
  N   N5        1.0  0.02492  0.51967  0.26440  1.0000
  C   C9        1.0  0.95421  0.47083  0.30433  1.0000
  N   N6        1.0  0.91181  0.44764  0.28911  1.0000
  H   H12       1.0  0.90027  0.45901  0.24601  1.0000
  C   C10       1.0  0.28704  0.64888  0.33219  1.0000
  N   N7        1.0  0.30342  0.62273  0.33206  1.0000
  C   C11       1.0  0.34558  0.63710  0.33219  1.0000
  N   N8        1.0  0.37173  0.67963  0.33207  1.0000
  C   C12       1.0  0.35737  0.70742  0.33220  1.0000
  N   N9        1.0  0.31484  0.69104  0.33206  1.0000
  C   C13       1.0  0.36174  0.60889  0.33070  1.0000
  C   C14       1.0  0.33480  0.56478  0.32016  1.0000
  C   C15       1.0  0.35115  0.53724  0.31612  1.0000
  C   C16       1.0  0.39496  0.55282  0.32449  1.0000
  C   C17       1.0  0.42195  0.59677  0.33509  1.0000
  C   C18       1.0  0.40564  0.62427  0.33803  1.0000
  C   C19       1.0  0.24268  0.63272  0.33069  1.0000
  C   C20       1.0  0.21415  0.58881  0.33802  1.0000
  C   C21       1.0  0.17034  0.57251  0.33512  1.0000
  C   C22       1.0  0.15338  0.59950  0.32450  1.0000
  C   C23       1.0  0.18162  0.64330  0.31609  1.0000
  C   C24       1.0  0.22552  0.65966  0.32014  1.0000
  C   C25       1.0  0.38558  0.75179  0.33069  1.0000
  C   C26       1.0  0.37019  0.78031  0.33802  1.0000
  C   C27       1.0  0.39768  0.82411  0.33508  1.0000
  C   C28       1.0  0.44163  0.84111  0.32441  1.0000
  C   C29       1.0  0.45722  0.81288  0.31603  1.0000
  C   C30       1.0  0.42969  0.76898  0.32016  1.0000
  H   H13       1.0  0.15103  0.54045  0.33814  1.0000
  H   H14       1.0  0.22481  0.56789  0.34497  1.0000
  H   H15       1.0  0.17048  0.66379  0.30781  1.0000
  H   H16       1.0  0.24478  0.69160  0.31378  1.0000
  H   H17       1.0  0.33861  0.76964  0.34502  1.0000
  H   H18       1.0  0.38492  0.84341  0.33812  1.0000
  H   H19       1.0  0.44237  0.74972  0.31378  1.0000
  H   H20       1.0  0.48885  0.82404  0.30774  1.0000
  H   H21       1.0  0.42656  0.65585  0.34500  1.0000
  H   H22       1.0  0.45400  0.60952  0.33816  1.0000
  H   H23       1.0  0.33067  0.50562  0.30786  1.0000
  H   H24       1.0  0.30286  0.55211  0.31383  1.0000
  C   C31       1.0  0.10911  0.58243  0.31725  1.0000
  C   C32       1.0  0.46879  0.88539  0.31717  1.0000
  C   C33       1.0  0.41204  0.52562  0.31725  1.0000
  O   O1        1.0  0.39374  0.49320  0.25878  1.0000
  O   O2        1.0  0.50121  0.89959  0.25870  1.0000
  O   O3        1.0  0.09499  0.60073  0.25878  1.0000
  C   C34       1.0  0.70631  0.34670  0.32983  1.0000
  N   N10       1.0  0.68995  0.37286  0.32983  1.0000
  C   C35       1.0  0.64779  0.35852  0.32975  1.0000
  N   N11       1.0  0.62164  0.31600  0.32977  1.0000
  C   C36       1.0  0.63597  0.28818  0.32977  1.0000
  N   N12       1.0  0.67849  0.30454  0.32985  1.0000
  C   C37       1.0  0.63165  0.38676  0.33014  1.0000
  C   C38       1.0  0.65880  0.43108  0.33470  1.0000
  C   C39       1.0  0.64255  0.45874  0.33627  1.0000
  C   C40       1.0  0.59861  0.44304  0.33158  1.0000
  C   C41       1.0  0.57141  0.39886  0.32758  1.0000
  C   C42       1.0  0.58762  0.37126  0.32695  1.0000
  C   C43       1.0  0.75069  0.36281  0.33030  1.0000
  C   C44       1.0  0.77924  0.40684  0.32715  1.0000
  C   C45       1.0  0.82305  0.42303  0.32785  1.0000
  C   C46       1.0  0.84001  0.39581  0.33175  1.0000
  C   C47       1.0  0.81175  0.35186  0.33639  1.0000
  C   C48       1.0  0.76784  0.33565  0.33482  1.0000
  C   C49       1.0  0.60771  0.24381  0.33022  1.0000
  C   C50       1.0  0.62319  0.21527  0.32712  1.0000
  C   C51       1.0  0.59558  0.17146  0.32791  1.0000
  C   C52       1.0  0.55140  0.15448  0.33185  1.0000
  C   C53       1.0  0.53571  0.18274  0.33642  1.0000
  C   C54       1.0  0.56339  0.22665  0.33476  1.0000
  H   H25       1.0  0.84238  0.45511  0.32777  1.0000
  H   H26       1.0  0.76861  0.42791  0.32476  1.0000
  H   H27       1.0  0.82286  0.33116  0.33971  1.0000
  H   H28       1.0  0.74858  0.30359  0.33776  1.0000
  H   H29       1.0  0.65491  0.22591  0.32475  1.0000
  H   H30       1.0  0.60836  0.15214  0.32797  1.0000
  H   H31       1.0  0.55059  0.24591  0.33765  1.0000
  H   H32       1.0  0.50390  0.17162  0.33977  1.0000
  H   H33       1.0  0.56656  0.33954  0.32458  1.0000
  H   H34       1.0  0.53932  0.38608  0.32761  1.0000
  H   H35       1.0  0.66323  0.49055  0.33966  1.0000
  H   H36       1.0  0.69085  0.44389  0.33768  1.0000
  C   C55       1.0  0.88434  0.41257  0.33556  1.0000
  C   C56       1.0  0.52387  0.11016  0.33579  1.0000
  C   C57       1.0  0.58181  0.47058  0.33551  1.0000
  O   O4        1.0  0.60194  0.50545  0.38720  1.0000
  O   O5        1.0  0.48893  0.09538  0.38728  1.0000
  O   O6        1.0  0.89909  0.39241  0.38716  1.0000
  C   C58       1.0  0.47011  0.51355  0.34950  1.0000
  C   C59       1.0  0.49412  0.50746  0.41558  1.0000
  C   C60       1.0  0.49240  0.51573  0.51108  1.0000
  H   H37       1.0  0.50406  0.54927  0.52179  1.0000
  H   H38       1.0  0.51178  0.50673  0.55026  1.0000
  H   H39       1.0  0.45992  0.49761  0.53480  1.0000
  N   N13       1.0  0.51888  0.49154  0.38955  1.0000
  N   N14       1.0  0.44598  0.53171  0.36608  1.0000
  H   H40       1.0  0.45505  0.55202  0.41453  1.0000
  C   C61       1.0  0.48071  0.95547  0.34944  1.0000
  C   C62       1.0  0.48726  0.98562  0.41575  1.0000
  C   C63       1.0  0.47904  0.97558  0.51124  1.0000
  H   H41       1.0  0.44547  0.95379  0.52201  1.0000
  H   H42       1.0  0.48816  0.00396  0.55054  1.0000
  H   H43       1.0  0.49705  0.96108  0.53477  1.0000
  N   N15       1.0  0.50327  0.02633  0.38988  1.0000
  N   N16       1.0  0.46261  0.91319  0.36601  1.0000
  H   H44       1.0  0.44235  0.90194  0.41453  1.0000
  C   C64       1.0  0.03897  0.52435  0.34954  1.0000
  C   C65       1.0  0.00887  0.50030  0.41558  1.0000
  C   C66       1.0  0.01884  0.50205  0.51110  1.0000
  H   H45       1.0  0.04076  0.49045  0.52187  1.0000
  H   H46       1.0  0.99045  0.48263  0.55025  1.0000
  H   H47       1.0  0.03314  0.53453  0.53480  1.0000
  N   N17       1.0  0.96821  0.47549  0.38949  1.0000
  N   N18       1.0  0.08125  0.54851  0.36615  1.0000
  H   H48       1.0  0.09250  0.53942  0.41455  1.0000
