data_image0
_chemical_formula_structural       C4HNHCNHC4HNHCNH3NCN2CNC2HC2HC2NCHCHC2HC2HC2NCHCHCNC2HNH2CNC2HNH2CNH2CNCNCNC4HN2H2C4HN2H2C4HNH2CNC2HNH2CNC2HNH2CNH2CNCNCNC4HN2H2C4HN2H2C4HNH2CNC4H2NH2CNC4H2NH2CNC4H2NHCNCNCNCNCNCNC4HCNHNH2C4HCNHNH2C4HCNHNH2CNC4H2NH2CNC4H2NH2CNC4H2NHCNCNCNCNCNCNC4HCNHNH2C4HCNHNH2C4HCNHNH2
_chemical_formula_sum              "C144 H96 N72"
_cell_length_a       44.1349
_cell_length_b       44.1349
_cell_length_c       14.8483
_cell_angle_alpha    90
_cell_angle_beta     90
_cell_angle_gamma    120

_space_group_name_H-M_alt    "P 1"
_space_group_IT_number       1

loop_
  _space_group_symop_operation_xyz
  'x, y, z'

loop_
  _atom_site_type_symbol
  _atom_site_label
  _atom_site_symmetry_multiplicity
  _atom_site_fract_x
  _atom_site_fract_y
  _atom_site_fract_z
  _atom_site_occupancy
  C   C1        1.0  0.02659  0.26458  0.33694  1.0000
  C   C2        1.0  0.04618  0.27437  0.25371  1.0000
  C   C3        1.0  0.08346  0.29301  0.25838  1.0000
  C   C4        1.0  0.10174  0.30215  0.34063  1.0000
  H   H1        1.0  0.09792  0.30025  0.20022  1.0000
  N   N1        1.0  0.03284  0.26771  0.16832  1.0000
  H   H2        1.0  0.04806  0.27533  0.11565  1.0000
  C   C5        1.0  0.08174  0.29214  0.41965  1.0000
  N   N2        1.0  0.04645  0.27450  0.41298  1.0000
  H   H3        1.0  0.09318  0.29786  0.48189  1.0000
  C   C6        1.0  0.02659  0.76458  0.33694  1.0000
  C   C7        1.0  0.04618  0.77437  0.25371  1.0000
  C   C8        1.0  0.08346  0.79301  0.25838  1.0000
  C   C9        1.0  0.10174  0.80215  0.34063  1.0000
  H   H4        1.0  0.09792  0.80025  0.20022  1.0000
  N   N3        1.0  0.03285  0.76771  0.16832  1.0000
  H   H5        1.0  0.04806  0.77532  0.11565  1.0000
  C   C10       1.0  0.08174  0.79214  0.41965  1.0000
  N   N4        1.0  0.04645  0.77450  0.41298  1.0000
  H   H6        1.0  0.09318  0.79786  0.48189  1.0000
  H   H7        1.0  0.00828  0.25544  0.15476  1.0000
  H   H8        1.0  0.00828  0.75544  0.15476  1.0000
  N   N5        1.0  0.15661  0.35616  0.34310  1.0000
  C   C11       1.0  0.13861  0.32058  0.34355  1.0000
  N   N6        1.0  0.15661  0.30300  0.34310  1.0000
  N   N7        1.0  0.15661  0.85616  0.34310  1.0000
  C   C12       1.0  0.13861  0.82058  0.34355  1.0000
  N   N8        1.0  0.15661  0.80300  0.34310  1.0000
  C   C13       1.0  0.21976  0.29300  0.25838  1.0000
  C   C14       1.0  0.21062  0.30215  0.34062  1.0000
  H   H9        1.0  0.21252  0.30023  0.20022  1.0000
  C   C15       1.0  0.21977  0.42931  0.25838  1.0000
  C   C16       1.0  0.21063  0.41103  0.34063  1.0000
  H   H10       1.0  0.21254  0.41485  0.20022  1.0000
  C   C17       1.0  0.19219  0.37416  0.34355  1.0000
  C   C18       1.0  0.19219  0.32058  0.34355  1.0000
  N   N9        1.0  0.20977  0.35616  0.34310  1.0000
  C   C19       1.0  0.22063  0.29215  0.41965  1.0000
  H   H11       1.0  0.21491  0.29788  0.48189  1.0000
  C   C20       1.0  0.22062  0.43103  0.41965  1.0000
  H   H12       1.0  0.21489  0.41959  0.48189  1.0000
  C   C21       1.0  0.21976  0.79300  0.25838  1.0000
  C   C22       1.0  0.21062  0.80215  0.34062  1.0000
  H   H13       1.0  0.21252  0.80023  0.20022  1.0000
  C   C23       1.0  0.21977  0.92931  0.25838  1.0000
  C   C24       1.0  0.21063  0.91103  0.34063  1.0000
  H   H14       1.0  0.21254  0.91485  0.20022  1.0000
  C   C25       1.0  0.19219  0.87416  0.34355  1.0000
  C   C26       1.0  0.19219  0.82058  0.34355  1.0000
  N   N10       1.0  0.20977  0.85616  0.34310  1.0000
  C   C27       1.0  0.22063  0.79215  0.41965  1.0000
  H   H15       1.0  0.21491  0.79788  0.48189  1.0000
  C   C28       1.0  0.22062  0.93103  0.41965  1.0000
  H   H16       1.0  0.21489  0.91959  0.48189  1.0000
  C   C29       1.0  0.29470  0.21807  0.26745  1.0000
  N   N11       1.0  0.27706  0.23572  0.27412  1.0000
  C   C30       1.0  0.24819  0.26457  0.33694  1.0000
  C   C31       1.0  0.23840  0.27436  0.25371  1.0000
  H   H17       1.0  0.30043  0.21235  0.20522  1.0000
  N   N12       1.0  0.24506  0.26769  0.16832  1.0000
  H   H18       1.0  0.25733  0.25540  0.15476  1.0000
  H   H19       1.0  0.23745  0.27529  0.11565  1.0000
  C   C32       1.0  0.29470  0.07919  0.26745  1.0000
  N   N13       1.0  0.27706  0.04390  0.27412  1.0000
  C   C33       1.0  0.24820  0.48618  0.33694  1.0000
  C   C34       1.0  0.23841  0.46659  0.25371  1.0000
  H   H20       1.0  0.30042  0.09063  0.20521  1.0000
  N   N14       1.0  0.24508  0.47993  0.16832  1.0000
  H   H21       1.0  0.25737  0.00448  0.15476  1.0000
  H   H22       1.0  0.23748  0.46471  0.11565  1.0000
  C   C35       1.0  0.43358  0.21807  0.26745  1.0000
  N   N15       1.0  0.46887  0.23571  0.27412  1.0000
  H   H23       1.0  0.42214  0.21234  0.20521  1.0000
  H   H24       1.0  0.50828  0.25544  0.15476  1.0000
  C   C36       1.0  0.32314  0.13605  0.34355  1.0000
  N   N16       1.0  0.35871  0.15405  0.34401  1.0000
  C   C37       1.0  0.37672  0.18963  0.34355  1.0000
  N   N17       1.0  0.35872  0.20721  0.34401  1.0000
  C   C38       1.0  0.32314  0.18964  0.34355  1.0000
  N   N18       1.0  0.30556  0.15406  0.34401  1.0000
  C   C39       1.0  0.30470  0.20807  0.34648  1.0000
  C   C40       1.0  0.26713  0.24564  0.35016  1.0000
  C   C41       1.0  0.27692  0.23585  0.43339  1.0000
  C   C42       1.0  0.29556  0.21721  0.42872  1.0000
  H   H25       1.0  0.30279  0.20998  0.48689  1.0000
  N   N19       1.0  0.23827  0.27451  0.41298  1.0000
  N   N20       1.0  0.27025  0.24251  0.51879  1.0000
  H   H26       1.0  0.27786  0.23490  0.57145  1.0000
  H   H27       1.0  0.25796  0.25479  0.53234  1.0000
  C   C43       1.0  0.30470  0.09918  0.34648  1.0000
  C   C44       1.0  0.26713  0.02404  0.35016  1.0000
  C   C45       1.0  0.27692  0.04363  0.43339  1.0000
  C   C46       1.0  0.29556  0.08090  0.42872  1.0000
  H   H28       1.0  0.30279  0.09537  0.48688  1.0000
  N   N21       1.0  0.23826  0.46632  0.41298  1.0000
  N   N22       1.0  0.27026  0.03029  0.51879  1.0000
  H   H29       1.0  0.27787  0.04551  0.57145  1.0000
  H   H30       1.0  0.25799  0.50573  0.53234  1.0000
  C   C47       1.0  0.41358  0.20807  0.34648  1.0000
  C   C48       1.0  0.48873  0.24564  0.35016  1.0000
  C   C49       1.0  0.46914  0.23585  0.43339  1.0000
  C   C50       1.0  0.43187  0.21721  0.42872  1.0000
  H   H31       1.0  0.41740  0.20998  0.48688  1.0000
  N   N23       1.0  0.48248  0.24252  0.51879  1.0000
  H   H32       1.0  0.46726  0.23491  0.57145  1.0000
  H   H33       1.0  0.00704  0.25481  0.53234  1.0000
  C   C51       1.0  0.29470  0.71807  0.26745  1.0000
  N   N24       1.0  0.27706  0.73571  0.27412  1.0000
  C   C52       1.0  0.24819  0.76457  0.33694  1.0000
  C   C53       1.0  0.23840  0.77436  0.25371  1.0000
  H   H34       1.0  0.30043  0.71235  0.20522  1.0000
  N   N25       1.0  0.24506  0.76768  0.16832  1.0000
  H   H35       1.0  0.25733  0.75540  0.15476  1.0000
  H   H36       1.0  0.23745  0.77529  0.11565  1.0000
  C   C54       1.0  0.29470  0.57918  0.26745  1.0000
  N   N26       1.0  0.27706  0.54390  0.27412  1.0000
  C   C55       1.0  0.24820  0.98618  0.33694  1.0000
  C   C56       1.0  0.23841  0.96659  0.25371  1.0000
  H   H37       1.0  0.30042  0.59063  0.20521  1.0000
  N   N27       1.0  0.24508  0.97993  0.16832  1.0000
  H   H38       1.0  0.25737  0.50448  0.15476  1.0000
  H   H39       1.0  0.23748  0.96471  0.11565  1.0000
  C   C57       1.0  0.43358  0.71807  0.26745  1.0000
  N   N28       1.0  0.46887  0.73571  0.27412  1.0000
  H   H40       1.0  0.42214  0.71234  0.20521  1.0000
  H   H41       1.0  0.50828  0.75544  0.15476  1.0000
  C   C58       1.0  0.32314  0.63605  0.34355  1.0000
  N   N29       1.0  0.35871  0.65405  0.34401  1.0000
  C   C59       1.0  0.37672  0.68963  0.34355  1.0000
  N   N30       1.0  0.35872  0.70721  0.34401  1.0000
  C   C60       1.0  0.32314  0.68963  0.34355  1.0000
  N   N31       1.0  0.30556  0.65406  0.34401  1.0000
  C   C61       1.0  0.30470  0.70807  0.34648  1.0000
  C   C62       1.0  0.26713  0.74564  0.35016  1.0000
  C   C63       1.0  0.27692  0.73585  0.43339  1.0000
  C   C64       1.0  0.29556  0.71721  0.42872  1.0000
  H   H42       1.0  0.30279  0.70998  0.48689  1.0000
  N   N32       1.0  0.23827  0.77451  0.41298  1.0000
  N   N33       1.0  0.27025  0.74251  0.51879  1.0000
  H   H43       1.0  0.27786  0.73490  0.57145  1.0000
  H   H44       1.0  0.25796  0.75479  0.53234  1.0000
  C   C65       1.0  0.30470  0.59918  0.34648  1.0000
  C   C66       1.0  0.26713  0.52404  0.35016  1.0000
  C   C67       1.0  0.27692  0.54363  0.43339  1.0000
  C   C68       1.0  0.29556  0.58090  0.42872  1.0000
  H   H45       1.0  0.30279  0.59537  0.48688  1.0000
  N   N34       1.0  0.23826  0.96632  0.41298  1.0000
  N   N35       1.0  0.27026  0.53029  0.51879  1.0000
  H   H46       1.0  0.27787  0.54551  0.57145  1.0000
  H   H47       1.0  0.25799  0.00573  0.53234  1.0000
  C   C69       1.0  0.41359  0.70807  0.34648  1.0000
  C   C70       1.0  0.48873  0.74565  0.35016  1.0000
  C   C71       1.0  0.46914  0.73585  0.43339  1.0000
  C   C72       1.0  0.43187  0.71721  0.42872  1.0000
  H   H48       1.0  0.41740  0.70998  0.48688  1.0000
  N   N36       1.0  0.48248  0.74252  0.51879  1.0000
  H   H49       1.0  0.46726  0.73491  0.57145  1.0000
  H   H50       1.0  0.00704  0.75481  0.53234  1.0000
  C   C73       1.0  0.79470  0.21807  0.26745  1.0000
  N   N37       1.0  0.77706  0.23572  0.27412  1.0000
  C   C74       1.0  0.74819  0.26457  0.33694  1.0000
  C   C75       1.0  0.73840  0.27436  0.25371  1.0000
  C   C76       1.0  0.71976  0.29300  0.25838  1.0000
  C   C77       1.0  0.71062  0.30215  0.34062  1.0000
  H   H51       1.0  0.71252  0.30023  0.20022  1.0000
  H   H52       1.0  0.80043  0.21235  0.20522  1.0000
  N   N38       1.0  0.74506  0.26769  0.16832  1.0000
  H   H53       1.0  0.75733  0.25540  0.15476  1.0000
  H   H54       1.0  0.73745  0.27529  0.11565  1.0000
  C   C78       1.0  0.79470  0.07919  0.26745  1.0000
  N   N39       1.0  0.77706  0.04390  0.27412  1.0000
  C   C79       1.0  0.74820  0.48618  0.33694  1.0000
  C   C80       1.0  0.73841  0.46659  0.25371  1.0000
  C   C81       1.0  0.71977  0.42931  0.25838  1.0000
  C   C82       1.0  0.71062  0.41103  0.34063  1.0000
  H   H55       1.0  0.71254  0.41485  0.20022  1.0000
  H   H56       1.0  0.80042  0.09063  0.20521  1.0000
  N   N40       1.0  0.74508  0.47993  0.16832  1.0000
  H   H57       1.0  0.75737  0.00448  0.15476  1.0000
  H   H58       1.0  0.73748  0.46471  0.11565  1.0000
  C   C83       1.0  0.93358  0.21807  0.26745  1.0000
  N   N41       1.0  0.96887  0.23571  0.27412  1.0000
  C   C84       1.0  0.52659  0.26458  0.33694  1.0000
  C   C85       1.0  0.54618  0.27437  0.25371  1.0000
  C   C86       1.0  0.58346  0.29301  0.25838  1.0000
  C   C87       1.0  0.60174  0.30215  0.34063  1.0000
  H   H59       1.0  0.59792  0.30025  0.20022  1.0000
  H   H60       1.0  0.92214  0.21234  0.20521  1.0000
  N   N42       1.0  0.53284  0.26771  0.16832  1.0000
  H   H61       1.0  0.54806  0.27533  0.11565  1.0000
  C   C88       1.0  0.69219  0.37416  0.34355  1.0000
  N   N43       1.0  0.65661  0.35616  0.34310  1.0000
  C   C89       1.0  0.63861  0.32058  0.34355  1.0000
  N   N44       1.0  0.65661  0.30300  0.34310  1.0000
  C   C90       1.0  0.69219  0.32058  0.34355  1.0000
  N   N45       1.0  0.70977  0.35616  0.34310  1.0000
  C   C91       1.0  0.82313  0.13605  0.34355  1.0000
  N   N46       1.0  0.85871  0.15405  0.34401  1.0000
  C   C92       1.0  0.87672  0.18963  0.34355  1.0000
  N   N47       1.0  0.85872  0.20721  0.34401  1.0000
  C   C93       1.0  0.82314  0.18964  0.34355  1.0000
  N   N48       1.0  0.80556  0.15406  0.34401  1.0000
  C   C94       1.0  0.80470  0.20807  0.34648  1.0000
  C   C95       1.0  0.76713  0.24564  0.35016  1.0000
  C   C96       1.0  0.77692  0.23585  0.43339  1.0000
  C   C97       1.0  0.79556  0.21721  0.42872  1.0000
  H   H62       1.0  0.80279  0.20998  0.48689  1.0000
  C   C98       1.0  0.72063  0.29215  0.41965  1.0000
  N   N49       1.0  0.73827  0.27451  0.41298  1.0000
  H   H63       1.0  0.71491  0.29788  0.48189  1.0000
  N   N50       1.0  0.77025  0.24251  0.51879  1.0000
  H   H64       1.0  0.77786  0.23490  0.57145  1.0000
  H   H65       1.0  0.75796  0.25479  0.53234  1.0000
  C   C99       1.0  0.80470  0.09918  0.34648  1.0000
  C   C100      1.0  0.76713  0.02404  0.35016  1.0000
  C   C101      1.0  0.77692  0.04363  0.43339  1.0000
  C   C102      1.0  0.79556  0.08090  0.42872  1.0000
  H   H66       1.0  0.80279  0.09537  0.48688  1.0000
  C   C103      1.0  0.72062  0.43103  0.41965  1.0000
  N   N51       1.0  0.73826  0.46632  0.41298  1.0000
  H   H67       1.0  0.71489  0.41959  0.48189  1.0000
  N   N52       1.0  0.77026  0.03029  0.51879  1.0000
  H   H68       1.0  0.77787  0.04551  0.57145  1.0000
  H   H69       1.0  0.75799  0.50573  0.53234  1.0000
  C   C104      1.0  0.91359  0.20807  0.34648  1.0000
  C   C105      1.0  0.98873  0.24564  0.35016  1.0000
  C   C106      1.0  0.96915  0.23585  0.43339  1.0000
  C   C107      1.0  0.93187  0.21721  0.42872  1.0000
  H   H70       1.0  0.91740  0.20998  0.48688  1.0000
  C   C108      1.0  0.58174  0.29214  0.41965  1.0000
  N   N53       1.0  0.54645  0.27450  0.41298  1.0000
  H   H71       1.0  0.59318  0.29786  0.48189  1.0000
  N   N54       1.0  0.98248  0.24252  0.51879  1.0000
  H   H72       1.0  0.96726  0.23491  0.57145  1.0000
  H   H73       1.0  0.50704  0.25481  0.53234  1.0000
  C   C109      1.0  0.79470  0.71807  0.26745  1.0000
  N   N55       1.0  0.77706  0.73571  0.27412  1.0000
  C   C110      1.0  0.74820  0.76457  0.33694  1.0000
  C   C111      1.0  0.73840  0.77436  0.25371  1.0000
  C   C112      1.0  0.71976  0.79300  0.25838  1.0000
  C   C113      1.0  0.71062  0.80215  0.34062  1.0000
  H   H74       1.0  0.71252  0.80023  0.20022  1.0000
  H   H75       1.0  0.80043  0.71235  0.20522  1.0000
  N   N56       1.0  0.74506  0.76768  0.16832  1.0000
  H   H76       1.0  0.75733  0.75540  0.15476  1.0000
  H   H77       1.0  0.73745  0.77529  0.11565  1.0000
  C   C114      1.0  0.79470  0.57918  0.26745  1.0000
  N   N57       1.0  0.77706  0.54390  0.27412  1.0000
  C   C115      1.0  0.74820  0.98618  0.33694  1.0000
  C   C116      1.0  0.73841  0.96659  0.25371  1.0000
  C   C117      1.0  0.71977  0.92931  0.25838  1.0000
  C   C118      1.0  0.71062  0.91103  0.34063  1.0000
  H   H78       1.0  0.71254  0.91485  0.20022  1.0000
  H   H79       1.0  0.80042  0.59063  0.20521  1.0000
  N   N58       1.0  0.74508  0.97993  0.16832  1.0000
  H   H80       1.0  0.75737  0.50448  0.15476  1.0000
  H   H81       1.0  0.73748  0.96471  0.11565  1.0000
  C   C119      1.0  0.93359  0.71807  0.26745  1.0000
  N   N59       1.0  0.96887  0.73571  0.27412  1.0000
  C   C120      1.0  0.52659  0.76458  0.33694  1.0000
  C   C121      1.0  0.54618  0.77437  0.25371  1.0000
  C   C122      1.0  0.58346  0.79301  0.25838  1.0000
  C   C123      1.0  0.60174  0.80215  0.34063  1.0000
  H   H82       1.0  0.59792  0.80025  0.20022  1.0000
  H   H83       1.0  0.92214  0.71234  0.20521  1.0000
  N   N60       1.0  0.53284  0.76771  0.16832  1.0000
  H   H84       1.0  0.54806  0.77532  0.11565  1.0000
  C   C124      1.0  0.69219  0.87416  0.34355  1.0000
  N   N61       1.0  0.65661  0.85616  0.34310  1.0000
  C   C125      1.0  0.63861  0.82058  0.34355  1.0000
  N   N62       1.0  0.65661  0.80300  0.34310  1.0000
  C   C126      1.0  0.69219  0.82058  0.34355  1.0000
  N   N63       1.0  0.70977  0.85616  0.34310  1.0000
  C   C127      1.0  0.82314  0.63605  0.34355  1.0000
  N   N64       1.0  0.85871  0.65405  0.34401  1.0000
  C   C128      1.0  0.87672  0.68963  0.34355  1.0000
  N   N65       1.0  0.85872  0.70721  0.34401  1.0000
  C   C129      1.0  0.82314  0.68963  0.34355  1.0000
  N   N66       1.0  0.80556  0.65406  0.34401  1.0000
  C   C130      1.0  0.80470  0.70807  0.34648  1.0000
  C   C131      1.0  0.76713  0.74564  0.35016  1.0000
  C   C132      1.0  0.77692  0.73585  0.43339  1.0000
  C   C133      1.0  0.79556  0.71721  0.42872  1.0000
  H   H85       1.0  0.80280  0.70998  0.48689  1.0000
  C   C134      1.0  0.72063  0.79215  0.41965  1.0000
  N   N67       1.0  0.73827  0.77451  0.41298  1.0000
  H   H86       1.0  0.71491  0.79788  0.48189  1.0000
  N   N68       1.0  0.77025  0.74251  0.51879  1.0000
  H   H87       1.0  0.77786  0.73490  0.57145  1.0000
  H   H88       1.0  0.75796  0.75479  0.53234  1.0000
  C   C135      1.0  0.80470  0.59918  0.34648  1.0000
  C   C136      1.0  0.76713  0.52404  0.35016  1.0000
  C   C137      1.0  0.77692  0.54363  0.43339  1.0000
  C   C138      1.0  0.79556  0.58090  0.42872  1.0000
  H   H89       1.0  0.80279  0.59537  0.48688  1.0000
  C   C139      1.0  0.72062  0.93103  0.41965  1.0000
  N   N69       1.0  0.73826  0.96632  0.41298  1.0000
  H   H90       1.0  0.71489  0.91959  0.48189  1.0000
  N   N70       1.0  0.77026  0.53029  0.51879  1.0000
  H   H91       1.0  0.77787  0.54551  0.57145  1.0000
  H   H92       1.0  0.75798  0.00573  0.53234  1.0000
  C   C140      1.0  0.91359  0.70807  0.34648  1.0000
  C   C141      1.0  0.98873  0.74565  0.35016  1.0000
  C   C142      1.0  0.96915  0.73585  0.43339  1.0000
  C   C143      1.0  0.93187  0.71721  0.42872  1.0000
  H   H93       1.0  0.91740  0.70998  0.48688  1.0000
  C   C144      1.0  0.58174  0.79214  0.41965  1.0000
  N   N71       1.0  0.54645  0.77450  0.41298  1.0000
  H   H94       1.0  0.59318  0.79786  0.48189  1.0000
  N   N72       1.0  0.98248  0.74252  0.51879  1.0000
  H   H95       1.0  0.96726  0.73491  0.57145  1.0000
  H   H96       1.0  0.50704  0.75481  0.53234  1.0000
