data_image0
_chemical_formula_structural       C2HC2H3N2C2HC6H3CHC2HC6H3CHC4NC4NH4N2C2NC2HNHCHC2NC2HNHCHC2HC2H3N2C2HC6H3CHC2HC6H3CHC4NC4NH4N2C2NC2HNHCHC2NC2HNHCHC2HC2H3N2C2HC6H3CHC2HC6H3CHC4NC4NH4N2C2NC2HNHCHC2NC2HNHCHC2HC2H3N2C2HC6H3CHC2HC6H3CHC4NC4NH4N2C2NC2HNHCHC2NC2HNHCH
_chemical_formula_sum              "C160 H96 N40"
_cell_length_a       38.7858
_cell_length_b       38.7858
_cell_length_c       15.0652
_cell_angle_alpha    90
_cell_angle_beta     90
_cell_angle_gamma    90

_space_group_name_H-M_alt    "P 1"
_space_group_IT_number       1

loop_
  _space_group_symop_operation_xyz
  'x, y, z'

loop_
  _atom_site_type_symbol
  _atom_site_label
  _atom_site_symmetry_multiplicity
  _atom_site_fract_x
  _atom_site_fract_y
  _atom_site_fract_z
  _atom_site_occupancy
  C   C1        1.0  0.48792  0.45602  0.28273  1.0000
  C   C2        1.0  0.46280  0.42972  0.28272  1.0000
  H   H1        1.0  0.01155  0.45053  0.25659  1.0000
  C   C3        1.0  0.02418  0.07711  0.29192  1.0000
  C   C4        1.0  0.99839  0.05145  0.29637  1.0000
  H   H2        1.0  0.47361  0.05827  0.28182  1.0000
  H   H3        1.0  0.07919  0.11727  0.29556  1.0000
  H   H4        1.0  0.40963  0.38779  0.29844  1.0000
  N   N1        1.0  0.01651  0.11019  0.27128  1.0000
  N   N2        1.0  0.47015  0.39747  0.25404  1.0000
  C   C5        1.0  0.52432  0.21666  0.20590  1.0000
  C   C6        1.0  0.52233  0.18078  0.22019  1.0000
  H   H5        1.0  0.04467  0.16675  0.22072  1.0000
  C   C7        1.0  0.49465  0.27229  0.20169  1.0000
  C   C8        1.0  0.49664  0.34481  0.20799  1.0000
  C   C9        1.0  0.52728  0.32583  0.19346  1.0000
  C   C10       1.0  0.52681  0.28942  0.19197  1.0000
  C   C11       1.0  0.55736  0.26978  0.18587  1.0000
  C   C12       1.0  0.55614  0.23366  0.19323  1.0000
  H   H6        1.0  0.08080  0.28165  0.17967  1.0000
  H   H7        1.0  0.07872  0.22003  0.19197  1.0000
  H   H8        1.0  0.05045  0.33845  0.19006  1.0000
  C   C13       1.0  0.99803  0.38067  0.22234  1.0000
  H   H9        1.0  0.02120  0.39316  0.21926  1.0000
  C   C14       1.0  0.28139  0.46662  0.40889  1.0000
  C   C15       1.0  0.31765  0.46893  0.40986  1.0000
  H   H10       1.0  0.33170  0.94672  0.40475  1.0000
  C   C16       1.0  0.22591  0.49650  0.40229  1.0000
  C   C17       1.0  0.15420  0.49575  0.37301  1.0000
  C   C18       1.0  0.17274  0.46443  0.37886  1.0000
  C   C19       1.0  0.20877  0.46437  0.39220  1.0000
  C   C20       1.0  0.22811  0.43354  0.39310  1.0000
  C   C21       1.0  0.26421  0.43467  0.40092  1.0000
  H   H11       1.0  0.21624  0.91019  0.38519  1.0000
  H   H12       1.0  0.27784  0.91211  0.39834  1.0000
  H   H13       1.0  0.16014  0.94144  0.37031  1.0000
  C   C22       1.0  0.11856  0.99545  0.35550  1.0000
  H   H14       1.0  0.10604  0.97237  0.35004  1.0000
  C   C23       1.0  0.48058  0.49011  0.31080  1.0000
  C   C24       1.0  0.42906  0.43668  0.31467  1.0000
  C   C25       1.0  0.42117  0.47068  0.34342  1.0000
  C   C26       1.0  0.44646  0.49682  0.33947  1.0000
  N   N3        1.0  0.40472  0.41119  0.31730  1.0000
  C   C27       1.0  0.00645  0.01624  0.31000  1.0000
  C   C28       1.0  0.04166  0.00802  0.32286  1.0000
  C   C29       1.0  0.06780  0.03332  0.32355  1.0000
  C   C30       1.0  0.05930  0.06836  0.30701  1.0000
  N   N4        1.0  0.08441  0.09310  0.30558  1.0000
  H   H15       1.0  0.10854  0.08763  0.31536  1.0000
  H   H16       1.0  0.38154  0.41525  0.33917  1.0000
  H   H17       1.0  0.44031  0.02067  0.36334  1.0000
  H   H18       1.0  0.04825  0.48333  0.33868  1.0000
  N   N5        1.0  0.10107  0.02502  0.34083  1.0000
  N   N6        1.0  0.38876  0.47724  0.37181  1.0000
  C   C31       1.0  0.49028  0.16427  0.23560  1.0000
  C   C32       1.0  0.46030  0.18493  0.23246  1.0000
  N   N7        1.0  0.46284  0.21947  0.22052  1.0000
  C   C33       1.0  0.49332  0.23605  0.20786  1.0000
  C   C34       1.0  0.46539  0.32608  0.21343  1.0000
  H   H19       1.0  0.43642  0.17460  0.24318  1.0000
  N   N8        1.0  0.46547  0.29122  0.21096  1.0000
  H   H20       1.0  0.44228  0.33813  0.22281  1.0000
  C   C35       1.0  0.48781  0.12887  0.25545  1.0000
  H   H21       1.0  0.46414  0.11772  0.26372  1.0000
  C   C36       1.0  0.33457  0.50130  0.41285  1.0000
  C   C37       1.0  0.31373  0.53098  0.42162  1.0000
  N   N9        1.0  0.27890  0.52826  0.41881  1.0000
  C   C38       1.0  0.26205  0.49765  0.41167  1.0000
  C   C39       1.0  0.17290  0.52677  0.38426  1.0000
  H   H22       1.0  0.32433  0.55510  0.42375  1.0000
  N   N10       1.0  0.20736  0.52611  0.39815  1.0000
  H   H23       1.0  0.16108  0.55027  0.38154  1.0000
  C   C40       1.0  0.37044  0.50460  0.40065  1.0000
  H   H24       1.0  0.38161  0.52847  0.40124  1.0000
  C   C41       1.0  0.48792  0.95602  0.28273  1.0000
  C   C42       1.0  0.46280  0.92972  0.28272  1.0000
  H   H25       1.0  0.01155  0.95053  0.25659  1.0000
  C   C43       1.0  0.02418  0.57711  0.29192  1.0000
  C   C44       1.0  0.99839  0.55145  0.29637  1.0000
  H   H26       1.0  0.47361  0.55827  0.28182  1.0000
  H   H27       1.0  0.07919  0.61727  0.29556  1.0000
  H   H28       1.0  0.40963  0.88779  0.29844  1.0000
  N   N11       1.0  0.01651  0.61018  0.27128  1.0000
  N   N12       1.0  0.47015  0.89747  0.25404  1.0000
  C   C45       1.0  0.52432  0.71666  0.20590  1.0000
  C   C46       1.0  0.52233  0.68078  0.22019  1.0000
  H   H29       1.0  0.04467  0.66675  0.22072  1.0000
  C   C47       1.0  0.49465  0.77229  0.20169  1.0000
  C   C48       1.0  0.49664  0.84482  0.20799  1.0000
  C   C49       1.0  0.52728  0.82583  0.19346  1.0000
  C   C50       1.0  0.52681  0.78942  0.19197  1.0000
  C   C51       1.0  0.55736  0.76979  0.18587  1.0000
  C   C52       1.0  0.55614  0.73366  0.19323  1.0000
  H   H30       1.0  0.08080  0.78165  0.17967  1.0000
  H   H31       1.0  0.07872  0.72003  0.19197  1.0000
  H   H32       1.0  0.05045  0.83845  0.19006  1.0000
  C   C53       1.0  0.99803  0.88067  0.22234  1.0000
  H   H33       1.0  0.02120  0.89316  0.21926  1.0000
  C   C54       1.0  0.28139  0.96662  0.40889  1.0000
  C   C55       1.0  0.31765  0.96893  0.40986  1.0000
  H   H34       1.0  0.33170  0.44672  0.40475  1.0000
  C   C56       1.0  0.22591  0.99650  0.40229  1.0000
  C   C57       1.0  0.15420  0.99575  0.37301  1.0000
  C   C58       1.0  0.17274  0.96443  0.37886  1.0000
  C   C59       1.0  0.20877  0.96437  0.39220  1.0000
  C   C60       1.0  0.22811  0.93354  0.39310  1.0000
  C   C61       1.0  0.26421  0.93467  0.40092  1.0000
  H   H35       1.0  0.21624  0.41019  0.38519  1.0000
  H   H36       1.0  0.27784  0.41211  0.39834  1.0000
  H   H37       1.0  0.16014  0.44145  0.37031  1.0000
  C   C62       1.0  0.11856  0.49545  0.35550  1.0000
  H   H38       1.0  0.10604  0.47237  0.35004  1.0000
  C   C63       1.0  0.48058  0.99011  0.31080  1.0000
  C   C64       1.0  0.42906  0.93668  0.31467  1.0000
  C   C65       1.0  0.42117  0.97068  0.34342  1.0000
  C   C66       1.0  0.44646  0.99682  0.33947  1.0000
  N   N13       1.0  0.40472  0.91119  0.31730  1.0000
  C   C67       1.0  0.00645  0.51624  0.31000  1.0000
  C   C68       1.0  0.04166  0.50802  0.32286  1.0000
  C   C69       1.0  0.06780  0.53332  0.32355  1.0000
  C   C70       1.0  0.05930  0.56836  0.30701  1.0000
  N   N14       1.0  0.08441  0.59310  0.30558  1.0000
  H   H39       1.0  0.10854  0.58763  0.31536  1.0000
  H   H40       1.0  0.38154  0.91525  0.33917  1.0000
  H   H41       1.0  0.44031  0.52067  0.36334  1.0000
  H   H42       1.0  0.04825  0.98333  0.33868  1.0000
  N   N15       1.0  0.10107  0.52502  0.34083  1.0000
  N   N16       1.0  0.38876  0.97724  0.37181  1.0000
  C   C71       1.0  0.49028  0.66427  0.23560  1.0000
  C   C72       1.0  0.46030  0.68493  0.23246  1.0000
  N   N17       1.0  0.46284  0.71947  0.22052  1.0000
  C   C73       1.0  0.49332  0.73605  0.20786  1.0000
  C   C74       1.0  0.46539  0.82608  0.21343  1.0000
  H   H43       1.0  0.43642  0.67460  0.24318  1.0000
  N   N18       1.0  0.46547  0.79122  0.21096  1.0000
  H   H44       1.0  0.44228  0.83813  0.22281  1.0000
  C   C75       1.0  0.48781  0.62887  0.25545  1.0000
  H   H45       1.0  0.46414  0.61772  0.26372  1.0000
  C   C76       1.0  0.33457  0.00130  0.41285  1.0000
  C   C77       1.0  0.31373  0.03098  0.42162  1.0000
  N   N19       1.0  0.27890  0.02825  0.41881  1.0000
  C   C78       1.0  0.26205  0.99765  0.41167  1.0000
  C   C79       1.0  0.17290  0.02678  0.38426  1.0000
  H   H46       1.0  0.32433  0.05510  0.42375  1.0000
  N   N20       1.0  0.20736  0.02612  0.39815  1.0000
  H   H47       1.0  0.16108  0.05027  0.38154  1.0000
  C   C80       1.0  0.37044  0.00460  0.40065  1.0000
  H   H48       1.0  0.38161  0.02847  0.40124  1.0000
  C   C81       1.0  0.98792  0.45602  0.28273  1.0000
  C   C82       1.0  0.96280  0.42972  0.28272  1.0000
  H   H49       1.0  0.51155  0.45053  0.25659  1.0000
  C   C83       1.0  0.52418  0.07711  0.29192  1.0000
  C   C84       1.0  0.49838  0.05145  0.29637  1.0000
  H   H50       1.0  0.97361  0.05827  0.28182  1.0000
  H   H51       1.0  0.57919  0.11727  0.29556  1.0000
  H   H52       1.0  0.90963  0.38779  0.29844  1.0000
  N   N21       1.0  0.51651  0.11019  0.27128  1.0000
  N   N22       1.0  0.97015  0.39747  0.25404  1.0000
  C   C85       1.0  0.02432  0.21666  0.20590  1.0000
  C   C86       1.0  0.02233  0.18078  0.22019  1.0000
  H   H53       1.0  0.54467  0.16675  0.22072  1.0000
  C   C87       1.0  0.99465  0.27229  0.20169  1.0000
  C   C88       1.0  0.99664  0.34481  0.20799  1.0000
  C   C89       1.0  0.02728  0.32583  0.19346  1.0000
  C   C90       1.0  0.02681  0.28942  0.19197  1.0000
  C   C91       1.0  0.05736  0.26978  0.18587  1.0000
  C   C92       1.0  0.05614  0.23366  0.19323  1.0000
  H   H54       1.0  0.58079  0.28165  0.17967  1.0000
  H   H55       1.0  0.57872  0.22003  0.19197  1.0000
  H   H56       1.0  0.55045  0.33845  0.19006  1.0000
  C   C93       1.0  0.49803  0.38067  0.22234  1.0000
  H   H57       1.0  0.52120  0.39316  0.21926  1.0000
  C   C94       1.0  0.78138  0.46662  0.40889  1.0000
  C   C95       1.0  0.81764  0.46893  0.40986  1.0000
  H   H58       1.0  0.83170  0.94672  0.40475  1.0000
  C   C96       1.0  0.72591  0.49650  0.40229  1.0000
  C   C97       1.0  0.65420  0.49575  0.37301  1.0000
  C   C98       1.0  0.67274  0.46443  0.37886  1.0000
  C   C99       1.0  0.70877  0.46437  0.39220  1.0000
  C   C100      1.0  0.72811  0.43354  0.39310  1.0000
  C   C101      1.0  0.76421  0.43467  0.40092  1.0000
  H   H59       1.0  0.71624  0.91019  0.38519  1.0000
  H   H60       1.0  0.77784  0.91211  0.39834  1.0000
  H   H61       1.0  0.66014  0.94144  0.37031  1.0000
  C   C102      1.0  0.61856  0.99545  0.35550  1.0000
  H   H62       1.0  0.60604  0.97237  0.35004  1.0000
  C   C103      1.0  0.98058  0.49011  0.31080  1.0000
  C   C104      1.0  0.92906  0.43668  0.31467  1.0000
  C   C105      1.0  0.92117  0.47068  0.34342  1.0000
  C   C106      1.0  0.94646  0.49682  0.33947  1.0000
  N   N23       1.0  0.90472  0.41119  0.31730  1.0000
  C   C107      1.0  0.50645  0.01624  0.31000  1.0000
  C   C108      1.0  0.54166  0.00802  0.32286  1.0000
  C   C109      1.0  0.56780  0.03332  0.32355  1.0000
  C   C110      1.0  0.55930  0.06836  0.30701  1.0000
  N   N24       1.0  0.58442  0.09310  0.30558  1.0000
  H   H63       1.0  0.60854  0.08763  0.31536  1.0000
  H   H64       1.0  0.88154  0.41525  0.33917  1.0000
  H   H65       1.0  0.94031  0.02067  0.36334  1.0000
  H   H66       1.0  0.54825  0.48333  0.33868  1.0000
  N   N25       1.0  0.60107  0.02502  0.34083  1.0000
  N   N26       1.0  0.88876  0.47724  0.37181  1.0000
  C   C111      1.0  0.99028  0.16427  0.23560  1.0000
  C   C112      1.0  0.96030  0.18493  0.23246  1.0000
  N   N27       1.0  0.96284  0.21947  0.22052  1.0000
  C   C113      1.0  0.99332  0.23605  0.20786  1.0000
  C   C114      1.0  0.96539  0.32608  0.21343  1.0000
  H   H67       1.0  0.93641  0.17460  0.24318  1.0000
  N   N28       1.0  0.96547  0.29122  0.21096  1.0000
  H   H68       1.0  0.94228  0.33813  0.22281  1.0000
  C   C115      1.0  0.98781  0.12887  0.25545  1.0000
  H   H69       1.0  0.96414  0.11772  0.26372  1.0000
  C   C116      1.0  0.83457  0.50130  0.41285  1.0000
  C   C117      1.0  0.81373  0.53098  0.42162  1.0000
  N   N29       1.0  0.77890  0.52826  0.41881  1.0000
  C   C118      1.0  0.76205  0.49765  0.41167  1.0000
  C   C119      1.0  0.67290  0.52677  0.38426  1.0000
  H   H70       1.0  0.82434  0.55510  0.42375  1.0000
  N   N30       1.0  0.70737  0.52611  0.39815  1.0000
  H   H71       1.0  0.66108  0.55027  0.38154  1.0000
  C   C120      1.0  0.87044  0.50460  0.40065  1.0000
  H   H72       1.0  0.88161  0.52847  0.40124  1.0000
  C   C121      1.0  0.98792  0.95602  0.28273  1.0000
  C   C122      1.0  0.96280  0.92972  0.28272  1.0000
  H   H73       1.0  0.51155  0.95053  0.25659  1.0000
  C   C123      1.0  0.52418  0.57711  0.29192  1.0000
  C   C124      1.0  0.49838  0.55145  0.29637  1.0000
  H   H74       1.0  0.97361  0.55827  0.28182  1.0000
  H   H75       1.0  0.57919  0.61727  0.29556  1.0000
  H   H76       1.0  0.90963  0.88779  0.29844  1.0000
  N   N31       1.0  0.51651  0.61018  0.27128  1.0000
  N   N32       1.0  0.97015  0.89747  0.25404  1.0000
  C   C125      1.0  0.02432  0.71666  0.20590  1.0000
  C   C126      1.0  0.02233  0.68078  0.22019  1.0000
  H   H77       1.0  0.54467  0.66675  0.22072  1.0000
  C   C127      1.0  0.99465  0.77229  0.20169  1.0000
  C   C128      1.0  0.99664  0.84482  0.20799  1.0000
  C   C129      1.0  0.02728  0.82583  0.19346  1.0000
  C   C130      1.0  0.02681  0.78942  0.19197  1.0000
  C   C131      1.0  0.05736  0.76979  0.18587  1.0000
  C   C132      1.0  0.05614  0.73366  0.19323  1.0000
  H   H78       1.0  0.58079  0.78165  0.17967  1.0000
  H   H79       1.0  0.57872  0.72003  0.19197  1.0000
  H   H80       1.0  0.55045  0.83845  0.19006  1.0000
  C   C133      1.0  0.49803  0.88067  0.22234  1.0000
  H   H81       1.0  0.52120  0.89316  0.21926  1.0000
  C   C134      1.0  0.78138  0.96662  0.40889  1.0000
  C   C135      1.0  0.81764  0.96893  0.40986  1.0000
  H   H82       1.0  0.83170  0.44672  0.40475  1.0000
  C   C136      1.0  0.72591  0.99650  0.40229  1.0000
  C   C137      1.0  0.65420  0.99575  0.37301  1.0000
  C   C138      1.0  0.67274  0.96443  0.37886  1.0000
  C   C139      1.0  0.70877  0.96437  0.39220  1.0000
  C   C140      1.0  0.72811  0.93354  0.39310  1.0000
  C   C141      1.0  0.76421  0.93467  0.40092  1.0000
  H   H83       1.0  0.71624  0.41019  0.38519  1.0000
  H   H84       1.0  0.77784  0.41211  0.39834  1.0000
  H   H85       1.0  0.66014  0.44145  0.37031  1.0000
  C   C142      1.0  0.61856  0.49545  0.35550  1.0000
  H   H86       1.0  0.60604  0.47237  0.35004  1.0000
  C   C143      1.0  0.98058  0.99011  0.31080  1.0000
  C   C144      1.0  0.92906  0.93668  0.31467  1.0000
  C   C145      1.0  0.92117  0.97068  0.34342  1.0000
  C   C146      1.0  0.94646  0.99682  0.33947  1.0000
  N   N33       1.0  0.90472  0.91119  0.31730  1.0000
  C   C147      1.0  0.50645  0.51624  0.31000  1.0000
  C   C148      1.0  0.54166  0.50802  0.32286  1.0000
  C   C149      1.0  0.56780  0.53332  0.32355  1.0000
  C   C150      1.0  0.55930  0.56836  0.30701  1.0000
  N   N34       1.0  0.58442  0.59310  0.30558  1.0000
  H   H87       1.0  0.60854  0.58763  0.31536  1.0000
  H   H88       1.0  0.88154  0.91525  0.33917  1.0000
  H   H89       1.0  0.94031  0.52067  0.36334  1.0000
  H   H90       1.0  0.54825  0.98333  0.33868  1.0000
  N   N35       1.0  0.60107  0.52502  0.34083  1.0000
  N   N36       1.0  0.88876  0.97724  0.37181  1.0000
  C   C151      1.0  0.99028  0.66427  0.23560  1.0000
  C   C152      1.0  0.96030  0.68493  0.23246  1.0000
  N   N37       1.0  0.96284  0.71947  0.22052  1.0000
  C   C153      1.0  0.99332  0.73605  0.20786  1.0000
  C   C154      1.0  0.96539  0.82608  0.21343  1.0000
  H   H91       1.0  0.93641  0.67460  0.24318  1.0000
  N   N38       1.0  0.96547  0.79122  0.21096  1.0000
  H   H92       1.0  0.94228  0.83813  0.22281  1.0000
  C   C155      1.0  0.98781  0.62887  0.25545  1.0000
  H   H93       1.0  0.96414  0.61772  0.26372  1.0000
  C   C156      1.0  0.83457  0.00130  0.41285  1.0000
  C   C157      1.0  0.81373  0.03098  0.42162  1.0000
  N   N39       1.0  0.77890  0.02825  0.41881  1.0000
  C   C158      1.0  0.76205  0.99765  0.41167  1.0000
  C   C159      1.0  0.67290  0.02678  0.38426  1.0000
  H   H94       1.0  0.82434  0.05510  0.42375  1.0000
  N   N40       1.0  0.70737  0.02612  0.39815  1.0000
  H   H95       1.0  0.66108  0.05027  0.38154  1.0000
  C   C160      1.0  0.87044  0.00460  0.40065  1.0000
  H   H96       1.0  0.88161  0.02847  0.40124  1.0000
