data_image0
_chemical_formula_structural       C2HCHC2HC5H2CHC2HNHC2HCHC3H2C3HC3H3C3HC3H3C4HCOH3C2H2C4HCOH3C2H2C2OH3C2H2C4HCOH3C2H2C4HCOH3C2H2C4HCOH3C3NH2C3NC3NH4C3NC3NH4C3H2COH3C6H3COH3C4HCOH3C6H3COH3C6H3COH3C6H3COH3
_chemical_formula_sum              "C120 H96 N6 O12"
_cell_length_a       31.8067
_cell_length_b       31.8067
_cell_length_c       14.8033
_cell_angle_alpha    90
_cell_angle_beta     90
_cell_angle_gamma    120

_space_group_name_H-M_alt    "P 1"
_space_group_IT_number       1

loop_
  _space_group_symop_operation_xyz
  'x, y, z'

loop_
  _atom_site_type_symbol
  _atom_site_label
  _atom_site_symmetry_multiplicity
  _atom_site_fract_x
  _atom_site_fract_y
  _atom_site_fract_z
  _atom_site_occupancy
  C   C1        1.0  0.03693  0.52001  0.34846  1.0000
  C   C2        1.0  0.06536  0.57158  0.33880  1.0000
  H   H1        1.0  0.04857  0.59117  0.32662  1.0000
  C   C3        1.0  0.06471  0.49621  0.35826  1.0000
  H   H2        1.0  0.04741  0.45959  0.36787  1.0000
  C   C4        1.0  0.11692  0.59816  0.34139  1.0000
  C   C5        1.0  0.14812  0.47087  0.29301  1.0000
  H   H3        1.0  0.12729  0.46472  0.23648  1.0000
  C   C6        1.0  0.14303  0.65006  0.32723  1.0000
  C   C7        1.0  0.11626  0.52071  0.35916  1.0000
  C   C8        1.0  0.14279  0.57248  0.35264  1.0000
  C   C9        1.0  0.14148  0.49381  0.36886  1.0000
  C   C10       1.0  0.14701  0.68181  0.39757  1.0000
  H   H4        1.0  0.12410  0.66877  0.45190  1.0000
  H   H5        1.0  0.21109  0.63196  0.36908  1.0000
  C   C11       1.0  0.18734  0.46201  0.28881  1.0000
  H   H6        1.0  0.19220  0.44785  0.23022  1.0000
  C   C12       1.0  0.17714  0.66988  0.25594  1.0000
  C   C13       1.0  0.21987  0.71611  0.26331  1.0000
  H   H7        1.0  0.17542  0.64659  0.20626  1.0000
  N   N1        1.0  0.19257  0.59742  0.35702  1.0000
  H   H8        1.0  0.21194  0.58195  0.35058  1.0000
  C   C14       1.0  0.17279  0.50319  0.44347  1.0000
  C   C15       1.0  0.21571  0.49999  0.43608  1.0000
  H   H9        1.0  0.16921  0.52121  0.49771  1.0000
  C   C16       1.0  0.18590  0.73016  0.39994  1.0000
  H   H10       1.0  0.18846  0.75091  0.45478  1.0000
  C   C17       1.0  0.98311  0.49340  0.34848  1.0000
  C   C18       1.0  0.95468  0.44183  0.33884  1.0000
  C   C19       1.0  0.90313  0.41523  0.34157  1.0000
  H   H11       1.0  0.97147  0.42223  0.32673  1.0000
  H   H12       1.0  0.80898  0.38144  0.36977  1.0000
  C   C20       1.0  0.52327  0.49300  0.34847  1.0000
  C   C21       1.0  0.57483  0.51614  0.33881  1.0000
  C   C22       1.0  0.60142  0.49117  0.34145  1.0000
  H   H13       1.0  0.59443  0.55253  0.32671  1.0000
  C   C23       1.0  0.49666  0.52021  0.34849  1.0000
  C   C24       1.0  0.41850  0.52202  0.34148  1.0000
  C   C25       1.0  0.44510  0.49707  0.33875  1.0000
  H   H14       1.0  0.42551  0.46069  0.32653  1.0000
  H   H15       1.0  0.38465  0.58232  0.36965  1.0000
  H   H16       1.0  0.63520  0.43078  0.36933  1.0000
  C   C26       1.0  0.52354  0.03354  0.34849  1.0000
  C   C27       1.0  0.50041  0.06198  0.33877  1.0000
  C   C28       1.0  0.52538  0.11353  0.34150  1.0000
  H   H17       1.0  0.46404  0.04519  0.32648  1.0000
  C   C29       1.0  0.49633  0.97973  0.34845  1.0000
  C   C30       1.0  0.49448  0.89973  0.34138  1.0000
  C   C31       1.0  0.51945  0.95129  0.33876  1.0000
  H   H18       1.0  0.55584  0.96808  0.32667  1.0000
  H   H19       1.0  0.43406  0.80555  0.36915  1.0000
  H   H20       1.0  0.58569  0.20767  0.36962  1.0000
  C   C32       1.0  0.26940  0.48105  0.33744  1.0000
  C   C33       1.0  0.36660  0.49621  0.32743  1.0000
  C   C34       1.0  0.34684  0.51061  0.25614  1.0000
  C   C35       1.0  0.30064  0.50716  0.26339  1.0000
  H   H21       1.0  0.37017  0.53217  0.20650  1.0000
  C   C36       1.0  0.29133  0.53724  0.19724  1.0000
  O   O1        1.0  0.32867  0.58735  0.19849  1.0000
  H   H22       1.0  0.25689  0.53612  0.20714  1.0000
  H   H23       1.0  0.29047  0.52323  0.12956  1.0000
  H   H24       1.0  0.32732  0.60128  0.25712  1.0000
  C   C37       1.0  0.55447  0.72851  0.28904  1.0000
  C   C38       1.0  0.54558  0.68042  0.29330  1.0000
  H   H25       1.0  0.56868  0.74748  0.23043  1.0000
  H   H26       1.0  0.55183  0.66571  0.23691  1.0000
  C   C39       1.0  0.53542  0.79155  0.33761  1.0000
  C   C40       1.0  0.52025  0.87361  0.32736  1.0000
  C   C41       1.0  0.50590  0.83943  0.25619  1.0000
  C   C42       1.0  0.50935  0.79667  0.26346  1.0000
  H   H27       1.0  0.48451  0.84120  0.20619  1.0000
  C   C43       1.0  0.47948  0.75735  0.19702  1.0000
  O   O2        1.0  0.42939  0.74464  0.19756  1.0000
  H   H28       1.0  0.48050  0.72399  0.20711  1.0000
  H   H29       1.0  0.49375  0.77055  0.12951  1.0000
  H   H30       1.0  0.41522  0.72934  0.25606  1.0000
  C   C44       1.0  0.28793  0.82939  0.28895  1.0000
  C   C45       1.0  0.33601  0.86862  0.29316  1.0000
  H   H31       1.0  0.26890  0.82455  0.23038  1.0000
  H   H32       1.0  0.35070  0.88947  0.23666  1.0000
  C   C46       1.0  0.22494  0.74728  0.33745  1.0000
  C   C47       1.0  0.25930  0.72550  0.19719  1.0000
  O   O3        1.0  0.27213  0.68820  0.19843  1.0000
  H   H33       1.0  0.29258  0.75995  0.20713  1.0000
  H   H34       1.0  0.24616  0.72635  0.12950  1.0000
  H   H35       1.0  0.28741  0.68956  0.25707  1.0000
  C   C48       1.0  0.83264  0.55123  0.28895  1.0000
  C   C49       1.0  0.87186  0.54236  0.29315  1.0000
  H   H36       1.0  0.82785  0.56542  0.23034  1.0000
  H   H37       1.0  0.89278  0.54857  0.23673  1.0000
  C   C50       1.0  0.75056  0.53216  0.33761  1.0000
  C   C51       1.0  0.65332  0.51695  0.32741  1.0000
  C   C52       1.0  0.67314  0.50259  0.25624  1.0000
  C   C53       1.0  0.71936  0.50606  0.26349  1.0000
  H   H38       1.0  0.64997  0.48118  0.20626  1.0000
  C   C54       1.0  0.72881  0.47617  0.19710  1.0000
  O   O4        1.0  0.69143  0.42607  0.19769  1.0000
  H   H39       1.0  0.76319  0.47720  0.20718  1.0000
  H   H40       1.0  0.72986  0.49042  0.12956  1.0000
  H   H41       1.0  0.69258  0.41193  0.25620  1.0000
  C   C55       1.0  0.46530  0.28459  0.28879  1.0000
  C   C56       1.0  0.47415  0.33267  0.29300  1.0000
  H   H42       1.0  0.45116  0.26558  0.23019  1.0000
  H   H43       1.0  0.46802  0.34736  0.23645  1.0000
  C   C57       1.0  0.48437  0.22159  0.33743  1.0000
  C   C58       1.0  0.49960  0.13966  0.32734  1.0000
  C   C59       1.0  0.51398  0.17376  0.25603  1.0000
  C   C60       1.0  0.51050  0.21650  0.26336  1.0000
  H   H44       1.0  0.53557  0.17202  0.20641  1.0000
  C   C61       1.0  0.54058  0.25592  0.19724  1.0000
  O   O5        1.0  0.59068  0.26868  0.19841  1.0000
  H   H45       1.0  0.53947  0.28924  0.20724  1.0000
  H   H46       1.0  0.52655  0.24280  0.12955  1.0000
  H   H47       1.0  0.60463  0.28393  0.25706  1.0000
  C   C62       1.0  0.73184  0.18410  0.28900  1.0000
  C   C63       1.0  0.68375  0.14489  0.29323  1.0000
  H   H48       1.0  0.75081  0.18891  0.23037  1.0000
  H   H49       1.0  0.66904  0.12398  0.23679  1.0000
  C   C64       1.0  0.79491  0.26615  0.33777  1.0000
  C   C65       1.0  0.87702  0.36331  0.32772  1.0000
  C   C66       1.0  0.84287  0.34358  0.25647  1.0000
  C   C67       1.0  0.80008  0.29738  0.26367  1.0000
  H   H50       1.0  0.84468  0.36677  0.20648  1.0000
  C   C68       1.0  0.76080  0.28797  0.19716  1.0000
  O   O6        1.0  0.74823  0.32546  0.19741  1.0000
  H   H51       1.0  0.72739  0.25367  0.20733  1.0000
  H   H52       1.0  0.77400  0.28679  0.12969  1.0000
  H   H53       1.0  0.73295  0.32445  0.25586  1.0000
  C   C69       1.0  0.87725  0.44092  0.35295  1.0000
  C   C70       1.0  0.90378  0.49270  0.35931  1.0000
  C   C71       1.0  0.95533  0.51720  0.35830  1.0000
  N   N2        1.0  0.82748  0.41597  0.35761  1.0000
  H   H54       1.0  0.80809  0.43143  0.35131  1.0000
  H   H55       1.0  0.97264  0.55382  0.36789  1.0000
  C   C72       1.0  0.57573  0.43961  0.35272  1.0000
  C   C73       1.0  0.52395  0.41435  0.35918  1.0000
  C   C74       1.0  0.49946  0.44140  0.35822  1.0000
  N   N3        1.0  0.60067  0.41477  0.35719  1.0000
  C   C75       1.0  0.52045  0.57179  0.35838  1.0000
  C   C76       1.0  0.49594  0.59883  0.35938  1.0000
  C   C77       1.0  0.44416  0.57357  0.35295  1.0000
  N   N4        1.0  0.41919  0.59837  0.35762  1.0000
  H   H56       1.0  0.43464  0.63322  0.35135  1.0000
  H   H57       1.0  0.58521  0.37993  0.35071  1.0000
  H   H58       1.0  0.46284  0.42210  0.36786  1.0000
  H   H59       1.0  0.55707  0.59110  0.36804  1.0000
  C   C78       1.0  0.57693  0.13940  0.35296  1.0000
  C   C79       1.0  0.60217  0.11287  0.35939  1.0000
  C   C80       1.0  0.57513  0.06132  0.35840  1.0000
  N   N5        1.0  0.60174  0.18917  0.35765  1.0000
  C   C81       1.0  0.44474  0.95196  0.35825  1.0000
  C   C82       1.0  0.41768  0.90041  0.35920  1.0000
  C   C83       1.0  0.44291  0.87387  0.35266  1.0000
  N   N6        1.0  0.41806  0.82409  0.35709  1.0000
  H   H60       1.0  0.38322  0.80473  0.35053  1.0000
  H   H61       1.0  0.63659  0.20857  0.35142  1.0000
  H   H62       1.0  0.59443  0.04401  0.36802  1.0000
  H   H63       1.0  0.42545  0.96928  0.36797  1.0000
  C   C84       1.0  0.22418  0.48009  0.35587  1.0000
  C   C85       1.0  0.28643  0.45904  0.39992  1.0000
  C   C86       1.0  0.33475  0.46844  0.39764  1.0000
  H   H64       1.0  0.26563  0.44084  0.45471  1.0000
  H   H65       1.0  0.34773  0.45851  0.45199  1.0000
  C   C87       1.0  0.25209  0.52337  0.51003  1.0000
  O   O7        1.0  0.23761  0.49054  0.58475  1.0000
  H   H66       1.0  0.28872  0.53324  0.48869  1.0000
  H   H67       1.0  0.25397  0.55727  0.53116  1.0000
  H   H68       1.0  0.26177  0.50646  0.63295  1.0000
  C   C88       1.0  0.52279  0.65093  0.36936  1.0000
  C   C89       1.0  0.51353  0.67293  0.44401  1.0000
  C   C90       1.0  0.51658  0.71897  0.43635  1.0000
  C   C91       1.0  0.53640  0.74729  0.35607  1.0000
  C   C92       1.0  0.55727  0.83055  0.40019  1.0000
  C   C93       1.0  0.54786  0.86947  0.39781  1.0000
  H   H69       1.0  0.57559  0.82801  0.45484  1.0000
  H   H70       1.0  0.55794  0.89251  0.45196  1.0000
  H   H71       1.0  0.49545  0.65123  0.49808  1.0000
  C   C94       1.0  0.49315  0.73196  0.51024  1.0000
  O   O8        1.0  0.52610  0.75069  0.58472  1.0000
  H   H72       1.0  0.48302  0.75849  0.48865  1.0000
  H   H73       1.0  0.45940  0.69988  0.53174  1.0000
  H   H74       1.0  0.51018  0.75897  0.63284  1.0000
  C   C95       1.0  0.36556  0.87519  0.36902  1.0000
  C   C96       1.0  0.34366  0.84387  0.44362  1.0000
  C   C97       1.0  0.29755  0.80095  0.43616  1.0000
  C   C98       1.0  0.26918  0.79252  0.35596  1.0000
  H   H75       1.0  0.36528  0.84744  0.49783  1.0000
  C   C99       1.0  0.28455  0.76451  0.51001  1.0000
  O   O9        1.0  0.26597  0.77882  0.58464  1.0000
  H   H76       1.0  0.25792  0.72787  0.48848  1.0000
  H   H77       1.0  0.31660  0.76275  0.53135  1.0000
  H   H78       1.0  0.25770  0.75460  0.63276  1.0000
  C   C100      1.0  0.87854  0.51957  0.36920  1.0000
  C   C101      1.0  0.84735  0.51033  0.44394  1.0000
  C   C102      1.0  0.80435  0.51338  0.43633  1.0000
  C   C103      1.0  0.79582  0.53318  0.35604  1.0000
  C   C104      1.0  0.73342  0.55403  0.40017  1.0000
  C   C105      1.0  0.68509  0.54460  0.39781  1.0000
  H   H79       1.0  0.75429  0.57237  0.45479  1.0000
  H   H80       1.0  0.67212  0.55468  0.45196  1.0000
  H   H81       1.0  0.85099  0.49226  0.49802  1.0000
  C   C106      1.0  0.76797  0.48999  0.51027  1.0000
  O   O10       1.0  0.78217  0.52301  0.58465  1.0000
  H   H82       1.0  0.73128  0.47980  0.48869  1.0000
  H   H83       1.0  0.76634  0.45628  0.53191  1.0000
  H   H84       1.0  0.75799  0.50711  0.63282  1.0000
  C   C107      1.0  0.49706  0.36224  0.36886  1.0000
  C   C108      1.0  0.50642  0.34031  0.44350  1.0000
  C   C109      1.0  0.50323  0.29419  0.43610  1.0000
  C   C110      1.0  0.48338  0.26584  0.35588  1.0000
  C   C111      1.0  0.46239  0.18255  0.39992  1.0000
  C   C112      1.0  0.47180  0.14362  0.39762  1.0000
  H   H85       1.0  0.44418  0.18512  0.45469  1.0000
  H   H86       1.0  0.46189  0.12071  0.45194  1.0000
  H   H87       1.0  0.52441  0.36190  0.49776  1.0000
  C   C113      1.0  0.52660  0.28119  0.51009  1.0000
  O   O11       1.0  0.49368  0.26268  0.58466  1.0000
  H   H88       1.0  0.53657  0.25451  0.48869  1.0000
  H   H89       1.0  0.56043  0.31322  0.53143  1.0000
  H   H90       1.0  0.50957  0.25442  0.63288  1.0000
  C   C114      1.0  0.65427  0.13812  0.36933  1.0000
  C   C115      1.0  0.67628  0.16932  0.44405  1.0000
  C   C116      1.0  0.72232  0.21233  0.43645  1.0000
  C   C117      1.0  0.75063  0.22090  0.35614  1.0000
  C   C118      1.0  0.83389  0.28322  0.40038  1.0000
  C   C119      1.0  0.87284  0.33153  0.39809  1.0000
  H   H91       1.0  0.83132  0.26232  0.45498  1.0000
  H   H92       1.0  0.89588  0.34446  0.45227  1.0000
  H   H93       1.0  0.65458  0.16566  0.49816  1.0000
  C   C120      1.0  0.73532  0.24866  0.51049  1.0000
  O   O12       1.0  0.75402  0.23433  0.58487  1.0000
  H   H94       1.0  0.76187  0.28535  0.48904  1.0000
  H   H95       1.0  0.70325  0.25033  0.53207  1.0000
  H   H96       1.0  0.76230  0.25848  0.63311  1.0000
