data_image0
_chemical_formula_structural       C3H2CH2C3H2CH2C3H2CH2CNCNCNC18H12NHNHNHCNCNCNC18H12NHNHNHC3HOHCH2C3HOHCH2C3HOHCH2
_chemical_formula_sum              "C66 H54 N12 O3"
_cell_length_a       36.5015
_cell_length_b       36.5023
_cell_length_c       15.032
_cell_angle_alpha    90
_cell_angle_beta     90
_cell_angle_gamma    120

_space_group_name_H-M_alt    "P 1"
_space_group_IT_number       1

loop_
  _space_group_symop_operation_xyz
  'x, y, z'

loop_
  _atom_site_type_symbol
  _atom_site_label
  _atom_site_symmetry_multiplicity
  _atom_site_fract_x
  _atom_site_fract_y
  _atom_site_fract_z
  _atom_site_occupancy
  C   C1        1.0  0.46510  0.50851  0.31795  1.0000
  C   C2        1.0  0.45591  0.46663  0.30234  1.0000
  C   C3        1.0  0.48627  0.45467  0.32025  1.0000
  H   H1        1.0  0.47878  0.42414  0.30766  1.0000
  H   H2        1.0  0.42708  0.44452  0.27771  1.0000
  C   C4        1.0  0.43348  0.52184  0.30011  1.0000
  H   H3        1.0  0.40477  0.49645  0.26942  1.0000
  H   H4        1.0  0.44753  0.54823  0.25300  1.0000
  C   C5        1.0  0.48880  0.95604  0.31798  1.0000
  C   C6        1.0  0.53068  0.98873  0.30235  1.0000
  C   C7        1.0  0.54264  0.03105  0.32026  1.0000
  H   H5        1.0  0.57317  0.05409  0.30766  1.0000
  H   H6        1.0  0.55280  0.98201  0.27775  1.0000
  C   C8        1.0  0.47549  0.91110  0.30017  1.0000
  H   H7        1.0  0.50087  0.90777  0.26948  1.0000
  H   H8        1.0  0.44909  0.89875  0.25305  1.0000
  C   C9        1.0  0.04130  0.53226  0.31793  1.0000
  C   C10       1.0  0.00860  0.54145  0.30232  1.0000
  C   C11       1.0  0.96629  0.51108  0.32022  1.0000
  H   H9        1.0  0.94324  0.51857  0.30764  1.0000
  H   H10       1.0  0.01531  0.57028  0.27771  1.0000
  C   C12       1.0  0.08624  0.56389  0.30010  1.0000
  H   H11       1.0  0.08956  0.59260  0.26942  1.0000
  H   H12       1.0  0.09858  0.54984  0.25297  1.0000
  C   C13       1.0  0.28846  0.64795  0.35830  1.0000
  N   N1        1.0  0.30677  0.62341  0.35864  1.0000
  C   C14       1.0  0.34940  0.63998  0.35832  1.0000
  N   N2        1.0  0.37394  0.68282  0.35868  1.0000
  C   C15       1.0  0.35737  0.70888  0.35834  1.0000
  N   N3        1.0  0.31452  0.69058  0.35866  1.0000
  C   C16       1.0  0.36755  0.61347  0.36229  1.0000
  C   C17       1.0  0.34385  0.57009  0.33885  1.0000
  C   C18       1.0  0.36162  0.54374  0.34490  1.0000
  C   C19       1.0  0.40343  0.56007  0.37582  1.0000
  C   C20       1.0  0.42721  0.60302  0.39973  1.0000
  C   C21       1.0  0.40965  0.62948  0.39226  1.0000
  C   C22       1.0  0.24381  0.62980  0.36226  1.0000
  C   C23       1.0  0.21771  0.58770  0.39220  1.0000
  C   C24       1.0  0.17370  0.57015  0.39970  1.0000
  C   C25       1.0  0.15452  0.59393  0.37580  1.0000
  C   C26       1.0  0.18001  0.63574  0.34490  1.0000
  C   C27       1.0  0.22413  0.65351  0.33884  1.0000
  C   C28       1.0  0.38387  0.75353  0.36237  1.0000
  C   C29       1.0  0.36786  0.77963  0.39234  1.0000
  C   C30       1.0  0.39430  0.82364  0.39979  1.0000
  C   C31       1.0  0.43726  0.84282  0.37591  1.0000
  C   C32       1.0  0.45360  0.81735  0.34501  1.0000
  C   C33       1.0  0.42726  0.77322  0.33897  1.0000
  H   H13       1.0  0.15563  0.53982  0.42247  1.0000
  H   H14       1.0  0.23049  0.56954  0.41116  1.0000
  H   H15       1.0  0.16654  0.65348  0.32776  1.0000
  H   H16       1.0  0.24168  0.68397  0.31649  1.0000
  H   H17       1.0  0.33691  0.76684  0.41119  1.0000
  H   H18       1.0  0.38203  0.84170  0.42252  1.0000
  H   H19       1.0  0.44017  0.75568  0.31659  1.0000
  H   H20       1.0  0.48481  0.83082  0.32788  1.0000
  H   H21       1.0  0.42780  0.66041  0.41121  1.0000
  H   H22       1.0  0.45753  0.61528  0.42251  1.0000
  H   H23       1.0  0.34388  0.51253  0.32774  1.0000
  H   H24       1.0  0.31339  0.55718  0.31648  1.0000
  N   N4        1.0  0.42260  0.53499  0.38481  1.0000
  H   H25       1.0  0.40412  0.50917  0.42409  1.0000
  N   N5        1.0  0.46233  0.88707  0.38488  1.0000
  H   H26       1.0  0.48816  0.89443  0.42416  1.0000
  N   N6        1.0  0.11028  0.57476  0.38480  1.0000
  H   H27       1.0  0.10293  0.59324  0.42408  1.0000
  C   C34       1.0  0.70845  0.35084  0.30099  1.0000
  N   N7        1.0  0.68925  0.37455  0.30077  1.0000
  C   C35       1.0  0.64650  0.35707  0.30102  1.0000
  N   N8        1.0  0.62279  0.31415  0.30081  1.0000
  C   C36       1.0  0.64027  0.28889  0.30103  1.0000
  N   N9        1.0  0.68319  0.30809  0.30079  1.0000
  C   C37       1.0  0.62736  0.38270  0.29831  1.0000
  C   C38       1.0  0.65022  0.42600  0.32273  1.0000
  C   C39       1.0  0.63132  0.45140  0.31898  1.0000
  C   C40       1.0  0.58918  0.43419  0.28950  1.0000
  C   C41       1.0  0.56628  0.39135  0.26430  1.0000
  C   C42       1.0  0.58498  0.36584  0.26946  1.0000
  C   C43       1.0  0.75322  0.36997  0.29828  1.0000
  C   C44       1.0  0.77874  0.41236  0.26941  1.0000
  C   C45       1.0  0.82296  0.43106  0.26428  1.0000
  C   C46       1.0  0.84289  0.40816  0.28948  1.0000
  C   C47       1.0  0.81796  0.36602  0.31899  1.0000
  C   C48       1.0  0.77366  0.34712  0.32273  1.0000
  C   C49       1.0  0.61463  0.24411  0.29834  1.0000
  C   C50       1.0  0.63150  0.21859  0.26951  1.0000
  C   C51       1.0  0.60597  0.17438  0.26434  1.0000
  C   C52       1.0  0.56313  0.15445  0.28953  1.0000
  C   C53       1.0  0.54594  0.17939  0.31903  1.0000
  C   C54       1.0  0.57134  0.22369  0.32278  1.0000
  H   H28       1.0  0.84062  0.46160  0.24251  1.0000
  H   H29       1.0  0.76542  0.42995  0.24993  1.0000
  H   H30       1.0  0.83198  0.34890  0.33704  1.0000
  H   H31       1.0  0.75656  0.31651  0.34445  1.0000
  H   H32       1.0  0.66241  0.23191  0.24999  1.0000
  H   H33       1.0  0.61886  0.15672  0.24258  1.0000
  H   H34       1.0  0.55783  0.24079  0.34446  1.0000
  H   H35       1.0  0.51479  0.16537  0.33706  1.0000
  H   H36       1.0  0.56738  0.33492  0.24999  1.0000
  H   H37       1.0  0.53573  0.37846  0.24257  1.0000
  H   H38       1.0  0.64845  0.48254  0.33701  1.0000
  H   H39       1.0  0.68084  0.43951  0.34443  1.0000
  N   N10       1.0  0.56886  0.45831  0.28330  1.0000
  H   H40       1.0  0.58669  0.48468  0.24490  1.0000
  N   N11       1.0  0.53901  0.11001  0.28332  1.0000
  H   H41       1.0  0.51265  0.10148  0.24491  1.0000
  N   N12       1.0  0.88734  0.42848  0.28328  1.0000
  H   H42       1.0  0.89587  0.41065  0.24489  1.0000
  C   C55       1.0  0.52658  0.48415  0.35433  1.0000
  C   C56       1.0  0.53572  0.52610  0.37121  1.0000
  C   C57       1.0  0.50532  0.53802  0.35210  1.0000
  H   H43       1.0  0.51266  0.56859  0.36367  1.0000
  O   O1        1.0  0.57409  0.55626  0.40234  1.0000
  H   H44       1.0  0.57162  0.55556  0.46754  1.0000
  C   C58       1.0  0.55797  0.47018  0.36961  1.0000
  H   H45       1.0  0.54368  0.44297  0.41462  1.0000
  H   H46       1.0  0.58675  0.49467  0.40162  1.0000
  C   C59       1.0  0.51316  0.04188  0.35432  1.0000
  C   C60       1.0  0.47121  0.00907  0.37121  1.0000
  C   C61       1.0  0.45929  0.96675  0.35210  1.0000
  H   H47       1.0  0.42872  0.94352  0.36369  1.0000
  O   O2        1.0  0.44105  0.01728  0.40234  1.0000
  H   H48       1.0  0.44175  0.01551  0.46754  1.0000
  C   C62       1.0  0.52713  0.08724  0.36962  1.0000
  H   H49       1.0  0.55434  0.10016  0.41465  1.0000
  H   H50       1.0  0.50263  0.09153  0.40162  1.0000
  C   C63       1.0  0.95546  0.47077  0.35430  1.0000
  C   C64       1.0  0.98827  0.46164  0.37119  1.0000
  C   C65       1.0  0.03059  0.49204  0.35206  1.0000
  H   H51       1.0  0.05382  0.48471  0.36364  1.0000
  O   O3        1.0  0.98007  0.42327  0.40230  1.0000
  H   H52       1.0  0.98184  0.42574  0.46751  1.0000
  C   C66       1.0  0.91010  0.43938  0.36959  1.0000
  H   H53       1.0  0.89717  0.45367  0.41460  1.0000
  H   H54       1.0  0.90581  0.41060  0.40160  1.0000
