data_image0
_chemical_formula_structural       C13H9C13H9C13H9C13H9C4NC2NCH2CHC4NC2NCH2CHC4NC2NCH2CHC2H2CHCH5C2H2CHCH5C2H2CHCH5C17H12C17H12C17H12C17H12C2H2C2H5C2H2C2H5C2H2C2H5C4NC2NCHCHC4NC2NCHCHC4NC2NCHCH
_chemical_formula_sum              "C192 H144 N12"
_cell_length_a       57.1425
_cell_length_b       57.1258
_cell_length_c       14.9875
_cell_angle_alpha    90
_cell_angle_beta     90
_cell_angle_gamma    120.005

_space_group_name_H-M_alt    "P 1"
_space_group_IT_number       1

loop_
  _space_group_symop_operation_xyz
  'x, y, z'

loop_
  _atom_site_type_symbol
  _atom_site_label
  _atom_site_symmetry_multiplicity
  _atom_site_fract_x
  _atom_site_fract_y
  _atom_site_fract_z
  _atom_site_occupancy
  C   C1        1.0  0.90467  0.83745  0.32639  1.0000
  C   C2        1.0  0.93155  0.89505  0.33112  1.0000
  C   C3        1.0  0.90328  0.87946  0.34341  1.0000
  C   C4        1.0  0.89006  0.85103  0.34186  1.0000
  C   C5        1.0  0.94414  0.92305  0.32921  1.0000
  C   C6        1.0  0.06516  0.02150  0.32947  1.0000
  C   C7        1.0  0.10872  0.02420  0.34373  1.0000
  C   C8        1.0  0.15073  0.06758  0.32671  1.0000
  C   C9        1.0  0.13714  0.03939  0.34225  1.0000
  C   C10       1.0  0.96672  0.04410  0.32943  1.0000
  C   C11       1.0  0.92311  0.04198  0.31646  1.0000
  C   C12       1.0  0.92059  0.08354  0.32652  1.0000
  C   C13       1.0  0.90796  0.05524  0.31429  1.0000
  H   H1        1.0  0.86952  0.84032  0.34990  1.0000
  H   H2        1.0  0.89204  0.88867  0.35331  1.0000
  H   H3        1.0  0.91339  0.02154  0.30591  1.0000
  H   H4        1.0  0.09950  0.00374  0.35361  1.0000
  H   H5        1.0  0.14784  0.02954  0.35018  1.0000
  H   H6        1.0  0.88757  0.04402  0.30353  1.0000
  H   H7        1.0  0.05701  0.00618  0.28649  1.0000
  H   H8        1.0  0.93697  0.93121  0.28625  1.0000
  H   H9        1.0  0.98205  0.05129  0.28649  1.0000
  C   C14       1.0  0.52059  0.36656  0.33388  1.0000
  C   C15       1.0  0.48208  0.31062  0.31519  1.0000
  C   C16       1.0  0.50945  0.32076  0.29178  1.0000
  C   C17       1.0  0.52849  0.34834  0.30143  1.0000
  C   C18       1.0  0.46433  0.28297  0.30858  1.0000
  C   C19       1.0  0.35155  0.17877  0.31852  1.0000
  C   C20       1.0  0.30732  0.17454  0.30660  1.0000
  C   C21       1.0  0.26603  0.13039  0.32055  1.0000
  C   C22       1.0  0.27896  0.15863  0.30655  1.0000
  C   C23       1.0  0.46082  0.17274  0.33671  1.0000
  C   C24       1.0  0.50827  0.18638  0.35234  1.0000
  C   C25       1.0  0.52274  0.15261  0.35260  1.0000
  C   C26       1.0  0.52883  0.17980  0.35770  1.0000
  H   H10       1.0  0.54831  0.35490  0.28637  1.0000
  H   H11       1.0  0.51599  0.30803  0.26973  1.0000
  H   H12       1.0  0.51351  0.20632  0.35560  1.0000
  H   H13       1.0  0.31597  0.19492  0.29596  1.0000
  H   H14       1.0  0.26780  0.16790  0.29651  1.0000
  H   H15       1.0  0.54840  0.19515  0.36452  1.0000
  H   H16       1.0  0.35943  0.19180  0.26812  1.0000
  H   H17       1.0  0.46562  0.27372  0.25396  1.0000
  H   H18       1.0  0.44938  0.16716  0.28208  1.0000
  C   C27       1.0  0.62146  0.15419  0.33376  1.0000
  C   C28       1.0  0.67740  0.17164  0.31553  1.0000
  C   C29       1.0  0.66721  0.18873  0.29079  1.0000
  C   C30       1.0  0.63963  0.18019  0.30026  1.0000
  C   C31       1.0  0.70506  0.18160  0.30918  1.0000
  C   C32       1.0  0.80925  0.17302  0.31864  1.0000
  C   C33       1.0  0.81353  0.13303  0.30654  1.0000
  C   C34       1.0  0.85770  0.13594  0.32043  1.0000
  C   C35       1.0  0.82946  0.12061  0.30645  1.0000
  C   C36       1.0  0.81536  0.28834  0.33686  1.0000
  C   C37       1.0  0.80173  0.32218  0.35220  1.0000
  C   C38       1.0  0.83551  0.37042  0.35259  1.0000
  C   C39       1.0  0.80832  0.34933  0.35754  1.0000
  H   H19       1.0  0.63304  0.19336  0.28438  1.0000
  H   H20       1.0  0.67990  0.20794  0.26805  1.0000
  H   H21       1.0  0.78179  0.30747  0.35534  1.0000
  H   H22       1.0  0.79316  0.12130  0.29594  1.0000
  H   H23       1.0  0.82021  0.10017  0.29638  1.0000
  H   H24       1.0  0.79297  0.35356  0.36421  1.0000
  H   H25       1.0  0.79622  0.16788  0.26827  1.0000
  H   H26       1.0  0.71434  0.19205  0.25444  1.0000
  H   H27       1.0  0.82088  0.28246  0.28217  1.0000
  C   C40       1.0  0.83389  0.46757  0.33358  1.0000
  C   C41       1.0  0.81632  0.50598  0.31539  1.0000
  C   C42       1.0  0.79928  0.47867  0.29062  1.0000
  C   C43       1.0  0.80789  0.45968  0.30006  1.0000
  C   C44       1.0  0.80627  0.52362  0.30916  1.0000
  C   C45       1.0  0.81510  0.63658  0.31881  1.0000
  C   C46       1.0  0.85509  0.68084  0.30669  1.0000
  C   C47       1.0  0.85222  0.72213  0.32050  1.0000
  C   C48       1.0  0.86753  0.70920  0.30654  1.0000
  C   C49       1.0  0.69972  0.52734  0.33678  1.0000
  C   C50       1.0  0.66591  0.47987  0.35243  1.0000
  C   C51       1.0  0.61767  0.46536  0.35273  1.0000
  C   C52       1.0  0.63877  0.45929  0.35782  1.0000
  H   H28       1.0  0.79475  0.43990  0.28420  1.0000
  H   H29       1.0  0.78007  0.47212  0.26792  1.0000
  H   H30       1.0  0.68062  0.47464  0.35567  1.0000
  H   H31       1.0  0.86681  0.67219  0.29611  1.0000
  H   H32       1.0  0.88796  0.72038  0.29647  1.0000
  H   H33       1.0  0.63456  0.43972  0.36462  1.0000
  H   H34       1.0  0.82021  0.62868  0.26838  1.0000
  H   H35       1.0  0.79572  0.52233  0.25457  1.0000
  H   H36       1.0  0.70559  0.53872  0.28204  1.0000
  C   C53       1.0  0.17947  0.08285  0.32224  1.0000
  C   C54       1.0  0.19318  0.09849  0.24621  1.0000
  C   C55       1.0  0.22187  0.11414  0.24473  1.0000
  C   C56       1.0  0.23730  0.11430  0.31903  1.0000
  N   N1        1.0  0.23388  0.12801  0.16874  1.0000
  C   C57       1.0  0.22021  0.12793  0.09456  1.0000
  C   C58       1.0  0.19164  0.11278  0.09660  1.0000
  N   N2        1.0  0.17958  0.09855  0.17174  1.0000
  C   C59       1.0  0.23555  0.14364  0.01533  1.0000
  H   H37       1.0  0.25292  0.14083  0.00484  1.0000
  H   H38       1.0  0.24317  0.16505  0.02890  1.0000
  C   C60       1.0  0.17465  0.11088  0.01908  1.0000
  H   H39       1.0  0.15797  0.11356  0.04195  1.0000
  C   C61       1.0  0.90530  0.09700  0.32206  1.0000
  C   C62       1.0  0.88966  0.09505  0.24604  1.0000
  C   C63       1.0  0.87398  0.10806  0.24458  1.0000
  C   C64       1.0  0.87380  0.12332  0.31889  1.0000
  N   N3        1.0  0.86010  0.10618  0.16859  1.0000
  C   C65       1.0  0.86019  0.09260  0.09441  1.0000
  C   C66       1.0  0.87537  0.07920  0.09643  1.0000
  N   N4        1.0  0.88961  0.08139  0.17155  1.0000
  C   C67       1.0  0.84448  0.09221  0.01519  1.0000
  H   H40       1.0  0.84726  0.11239  0.00471  1.0000
  H   H41       1.0  0.82308  0.07840  0.02876  1.0000
  C   C68       1.0  0.87730  0.06413  0.01889  1.0000
  H   H42       1.0  0.87464  0.04477  0.04175  1.0000
  C   C69       1.0  0.89121  0.80870  0.32198  1.0000
  C   C70       1.0  0.89314  0.79498  0.24599  1.0000
  C   C71       1.0  0.88011  0.76629  0.24457  1.0000
  C   C72       1.0  0.86485  0.75086  0.31891  1.0000
  N   N5        1.0  0.88198  0.75427  0.16862  1.0000
  C   C73       1.0  0.89556  0.76793  0.09441  1.0000
  C   C74       1.0  0.90898  0.79651  0.09639  1.0000
  N   N6        1.0  0.90680  0.80858  0.17149  1.0000
  C   C75       1.0  0.89594  0.75258  0.01522  1.0000
  H   H43       1.0  0.87575  0.73519  0.00475  1.0000
  H   H44       1.0  0.90972  0.74496  0.02883  1.0000
  C   C76       1.0  0.92406  0.81349  0.01884  1.0000
  H   H45       1.0  0.94341  0.83019  0.04169  1.0000
  C   C77       1.0  0.55115  0.13725  0.28053  1.0000
  C   C78       1.0  0.57596  0.13768  0.27566  1.0000
  H   H46       1.0  0.58140  0.13274  0.21654  1.0000
  H   H47       1.0  0.53932  0.13214  0.22455  1.0000
  C   C79       1.0  0.58032  0.18363  0.07911  1.0000
  H   H48       1.0  0.54238  0.16688  0.00827  1.0000
  C   C80       1.0  0.61092  0.19782  0.05816  1.0000
  H   H49       1.0  0.57381  0.16337  0.10441  1.0000
  H   H50       1.0  0.57652  0.19480  0.13092  1.0000
  H   H51       1.0  0.62209  0.19882  0.11857  1.0000
  H   H52       1.0  0.61777  0.21854  0.03650  1.0000
  H   H53       1.0  0.61689  0.16501  0.01277  1.0000
  C   C81       1.0  0.85087  0.41420  0.28045  1.0000
  C   C82       1.0  0.85044  0.43859  0.27558  1.0000
  H   H54       1.0  0.85536  0.44895  0.21645  1.0000
  H   H55       1.0  0.85598  0.40747  0.22449  1.0000
  C   C83       1.0  0.80446  0.39700  0.07901  1.0000
  H   H56       1.0  0.82122  0.37581  0.00823  1.0000
  C   C84       1.0  0.79027  0.41342  0.05798  1.0000
  H   H57       1.0  0.82471  0.41075  0.10436  1.0000
  H   H58       1.0  0.79328  0.38203  0.13080  1.0000
  H   H59       1.0  0.78926  0.42359  0.11837  1.0000
  H   H60       1.0  0.76956  0.39954  0.03626  1.0000
  H   H61       1.0  0.82309  0.45221  0.01264  1.0000
  C   C85       1.0  0.57389  0.43694  0.28068  1.0000
  C   C86       1.0  0.54951  0.41210  0.27583  1.0000
  H   H62       1.0  0.53914  0.40666  0.21673  1.0000
  H   H63       1.0  0.58059  0.44877  0.22473  1.0000
  C   C87       1.0  0.59108  0.40784  0.07932  1.0000
  H   H64       1.0  0.61235  0.44575  0.00829  1.0000
  C   C88       1.0  0.57467  0.37721  0.05855  1.0000
  H   H65       1.0  0.57732  0.41437  0.10439  1.0000
  H   H66       1.0  0.60602  0.41166  0.13124  1.0000
  H   H67       1.0  0.56446  0.36608  0.11899  1.0000
  H   H68       1.0  0.58855  0.37035  0.03714  1.0000
  H   H69       1.0  0.53590  0.37117  0.01278  1.0000
  C   C89       1.0  0.93296  0.85311  0.31418  1.0000
  C   C90       1.0  0.94624  0.88153  0.31631  1.0000
  C   C91       1.0  0.96495  0.93931  0.38253  1.0000
  C   C92       1.0  0.97807  0.96742  0.38001  1.0000
  C   C93       1.0  0.96363  0.98158  0.38073  1.0000
  C   C94       1.0  0.97715  0.01015  0.38012  1.0000
  C   C95       1.0  0.00575  0.02460  0.38083  1.0000
  C   C96       1.0  0.02079  0.01107  0.38014  1.0000
  C   C97       1.0  0.00664  0.98247  0.38074  1.0000
  C   C98       1.0  0.04889  0.02606  0.38271  1.0000
  C   C99       1.0  0.09315  0.03690  0.33146  1.0000
  C   C100      1.0  0.10669  0.06512  0.31664  1.0000
  C   C101      1.0  0.13510  0.08024  0.31452  1.0000
  C   C102      1.0  0.96217  0.02327  0.38269  1.0000
  C   C103      1.0  0.95132  0.05668  0.33136  1.0000
  C   C104      1.0  0.96398  0.08496  0.34364  1.0000
  C   C105      1.0  0.94878  0.09817  0.34208  1.0000
  H   H70       1.0  0.94418  0.84393  0.30348  1.0000
  H   H71       1.0  0.96667  0.89224  0.30577  1.0000
  H   H72       1.0  0.01731  0.97243  0.38230  1.0000
  H   H73       1.0  0.94291  0.97090  0.38226  1.0000
  H   H74       1.0  0.01579  0.04532  0.38243  1.0000
  H   H75       1.0  0.14429  0.10064  0.30379  1.0000
  H   H76       1.0  0.09599  0.07485  0.30610  1.0000
  H   H77       1.0  0.95859  0.11872  0.35009  1.0000
  H   H78       1.0  0.98443  0.09621  0.35359  1.0000
  H   H79       1.0  0.05726  0.04156  0.42508  1.0000
  H   H80       1.0  0.97207  0.93094  0.42488  1.0000
  H   H81       1.0  0.94666  0.01612  0.42499  1.0000
  C   C106      1.0  0.49324  0.35670  0.35635  1.0000
  C   C107      1.0  0.47415  0.32899  0.34682  1.0000
  C   C108      1.0  0.44918  0.26770  0.37710  1.0000
  C   C109      1.0  0.43687  0.23976  0.37613  1.0000
  C   C110      1.0  0.45295  0.22746  0.38313  1.0000
  C   C111      1.0  0.44110  0.19906  0.38694  1.0000
  C   C112      1.0  0.41266  0.18286  0.38493  1.0000
  C   C113      1.0  0.39613  0.19474  0.37835  1.0000
  C   C114      1.0  0.40846  0.22327  0.37499  1.0000
  C   C115      1.0  0.36823  0.17840  0.38112  1.0000
  C   C116      1.0  0.32358  0.16271  0.32141  1.0000
  C   C117      1.0  0.31067  0.13445  0.33541  1.0000
  C   C118      1.0  0.28229  0.11855  0.33563  1.0000
  C   C119      1.0  0.45773  0.18812  0.39831  1.0000
  C   C120      1.0  0.48094  0.16593  0.34256  1.0000
  C   C121      1.0  0.47489  0.13879  0.33463  1.0000
  C   C122      1.0  0.49558  0.13220  0.33938  1.0000
  H   H82       1.0  0.48717  0.36950  0.38116  1.0000
  H   H83       1.0  0.45449  0.32226  0.36444  1.0000
  H   H84       1.0  0.39668  0.23213  0.37277  1.0000
  H   H85       1.0  0.47359  0.23938  0.38642  1.0000
  H   H86       1.0  0.40394  0.16226  0.38970  1.0000
  H   H87       1.0  0.27360  0.09813  0.34480  1.0000
  H   H88       1.0  0.32182  0.12513  0.34454  1.0000
  H   H89       1.0  0.49065  0.11238  0.33439  1.0000
  H   H90       1.0  0.45534  0.12359  0.32605  1.0000
  H   H91       1.0  0.36048  0.16552  0.43192  1.0000
  H   H92       1.0  0.44916  0.27638  0.43462  1.0000
  H   H93       1.0  0.46994  0.19444  0.45116  1.0000
  C   C123      1.0  0.63138  0.13685  0.35764  1.0000
  C   C124      1.0  0.65909  0.14547  0.34830  1.0000
  C   C125      1.0  0.72034  0.18173  0.37767  1.0000
  C   C126      1.0  0.74828  0.19735  0.37664  1.0000
  C   C127      1.0  0.76058  0.22574  0.38351  1.0000
  C   C128      1.0  0.78897  0.24229  0.38718  1.0000
  C   C129      1.0  0.80517  0.23004  0.38511  1.0000
  C   C130      1.0  0.79329  0.20163  0.37863  1.0000
  C   C131      1.0  0.76476  0.18542  0.37537  1.0000
  C   C132      1.0  0.80962  0.19006  0.38132  1.0000
  C   C133      1.0  0.82533  0.16113  0.32140  1.0000
  C   C134      1.0  0.85358  0.17650  0.33540  1.0000
  C   C135      1.0  0.86950  0.16404  0.33551  1.0000
  C   C136      1.0  0.79991  0.26987  0.39835  1.0000
  C   C137      1.0  0.82218  0.31529  0.34261  1.0000
  C   C138      1.0  0.84931  0.33636  0.33486  1.0000
  C   C139      1.0  0.85591  0.36366  0.33954  1.0000
  H   H94       1.0  0.61862  0.11807  0.38328  1.0000
  H   H95       1.0  0.66585  0.13264  0.36686  1.0000
  H   H96       1.0  0.75590  0.16478  0.37324  1.0000
  H   H97       1.0  0.74866  0.23446  0.38684  1.0000
  H   H98       1.0  0.82577  0.24193  0.38974  1.0000
  H   H99       1.0  0.88992  0.17579  0.34473  1.0000
  H   H100      1.0  0.86288  0.19698  0.34457  1.0000
  H   H101      1.0  0.87572  0.37854  0.33467  1.0000
  H   H102      1.0  0.86451  0.33201  0.32643  1.0000
  H   H103      1.0  0.82251  0.19518  0.43207  1.0000
  H   H104      1.0  0.71168  0.17307  0.43526  1.0000
  H   H105      1.0  0.79366  0.27581  0.45126  1.0000
  C   C140      1.0  0.85117  0.49484  0.35750  1.0000
  C   C141      1.0  0.84249  0.51389  0.34817  1.0000
  C   C142      1.0  0.80620  0.53884  0.37751  1.0000
  C   C143      1.0  0.79063  0.55121  0.37652  1.0000
  C   C144      1.0  0.76224  0.53517  0.38341  1.0000
  C   C145      1.0  0.74574  0.54705  0.38716  1.0000
  C   C146      1.0  0.75802  0.57551  0.38516  1.0000
  C   C147      1.0  0.78644  0.59201  0.37867  1.0000
  C   C148      1.0  0.80259  0.57963  0.37538  1.0000
  C   C149      1.0  0.79804  0.61992  0.38145  1.0000
  C   C150      1.0  0.82700  0.66456  0.32157  1.0000
  C   C151      1.0  0.81165  0.67746  0.33551  1.0000
  C   C152      1.0  0.82413  0.70585  0.33564  1.0000
  C   C153      1.0  0.71816  0.53044  0.39844  1.0000
  C   C154      1.0  0.67277  0.50720  0.34263  1.0000
  C   C155      1.0  0.65169  0.51324  0.33473  1.0000
  C   C156      1.0  0.62441  0.49253  0.33946  1.0000
  H   H106      1.0  0.86994  0.50089  0.38324  1.0000
  H   H107      1.0  0.85527  0.53348  0.36685  1.0000
  H   H108      1.0  0.82324  0.59139  0.37323  1.0000
  H   H109      1.0  0.75349  0.51451  0.38668  1.0000
  H   H110      1.0  0.74617  0.58425  0.38988  1.0000
  H   H111      1.0  0.81239  0.71454  0.34474  1.0000
  H   H112      1.0  0.79118  0.66630  0.34466  1.0000
  H   H113      1.0  0.60952  0.49745  0.33447  1.0000
  H   H114      1.0  0.65603  0.53279  0.32611  1.0000
  H   H115      1.0  0.79292  0.62769  0.43221  1.0000
  H   H116      1.0  0.81508  0.53905  0.43484  1.0000
  H   H117      1.0  0.71225  0.51828  0.45144  1.0000
  C   C157      1.0  0.22346  0.09789  0.39318  1.0000
  C   C158      1.0  0.19508  0.08253  0.39494  1.0000
  H   H118      1.0  0.18584  0.07150  0.45098  1.0000
  H   H119      1.0  0.23397  0.09750  0.44793  1.0000
  C   C159      1.0  0.21846  0.13536  0.59518  1.0000
  C   C160      1.0  0.19019  0.13202  0.61148  1.0000
  H   H120      1.0  0.21595  0.11616  0.57144  1.0000
  H   H121      1.0  0.22907  0.15057  0.54351  1.0000
  H   H122      1.0  0.17849  0.12574  0.54960  1.0000
  H   H123      1.0  0.19260  0.15155  0.63107  1.0000
  H   H124      1.0  0.16601  0.09055  0.65779  1.0000
  C   C161      1.0  0.89022  0.12591  0.39303  1.0000
  C   C162      1.0  0.90560  0.11290  0.39476  1.0000
  H   H125      1.0  0.91663  0.11471  0.45080  1.0000
  H   H126      1.0  0.89060  0.13681  0.44778  1.0000
  C   C163      1.0  0.85277  0.08342  0.59502  1.0000
  C   C164      1.0  0.85615  0.05851  0.61130  1.0000
  H   H127      1.0  0.87196  0.10014  0.57128  1.0000
  H   H128      1.0  0.83756  0.07880  0.54337  1.0000
  H   H129      1.0  0.86244  0.05310  0.54942  1.0000
  H   H130      1.0  0.83663  0.04136  0.63090  1.0000
  H   H131      1.0  0.89762  0.07585  0.65760  1.0000
  C   C165      1.0  0.86228  0.76471  0.39301  1.0000
  C   C166      1.0  0.87530  0.79311  0.39471  1.0000
  H   H132      1.0  0.87350  0.80235  0.45072  1.0000
  H   H133      1.0  0.85138  0.75421  0.44779  1.0000
  C   C167      1.0  0.90474  0.76966  0.59503  1.0000
  C   C168      1.0  0.92966  0.79794  0.61128  1.0000
  H   H134      1.0  0.88804  0.77215  0.57126  1.0000
  H   H135      1.0  0.90935  0.75904  0.54341  1.0000
  H   H136      1.0  0.93508  0.80963  0.54938  1.0000
  H   H137      1.0  0.94679  0.79555  0.63092  1.0000
  H   H138      1.0  0.91235  0.82211  0.65751  1.0000
  C   C169      1.0  0.59421  0.14714  0.34807  1.0000
  C   C170      1.0  0.58673  0.15522  0.42725  1.0000
  C   C171      1.0  0.56182  0.15504  0.43171  1.0000
  C   C172      1.0  0.54420  0.14684  0.35721  1.0000
  N   N7        1.0  0.55594  0.16376  0.50844  1.0000
  C   C173      1.0  0.57231  0.17241  0.58106  1.0000
  C   C174      1.0  0.59749  0.17330  0.57571  1.0000
  N   N8        1.0  0.60342  0.16455  0.49934  1.0000
  C   C175      1.0  0.56364  0.18129  0.66117  1.0000
  H   H139      1.0  0.56544  0.20087  0.64670  1.0000
  C   C176      1.0  0.61705  0.18266  0.65062  1.0000
  H   H140      1.0  0.63735  0.19618  0.62485  1.0000
  C   C177      1.0  0.84098  0.44740  0.34796  1.0000
  C   C178      1.0  0.83291  0.43182  0.42714  1.0000
  C   C179      1.0  0.83308  0.40708  0.43163  1.0000
  C   C180      1.0  0.84127  0.39766  0.35714  1.0000
  N   N9        1.0  0.82436  0.39248  0.50837  1.0000
  C   C181      1.0  0.81571  0.40021  0.58097  1.0000
  C   C182      1.0  0.81481  0.42450  0.57558  1.0000
  N   N10       1.0  0.82357  0.43919  0.49920  1.0000
  C   C183      1.0  0.80682  0.38265  0.66109  1.0000
  H   H141      1.0  0.78724  0.36486  0.64659  1.0000
  C   C184      1.0  0.80544  0.43471  0.65046  1.0000
  H   H142      1.0  0.79194  0.44150  0.62465  1.0000
  C   C185      1.0  0.54075  0.39382  0.34818  1.0000
  C   C186      1.0  0.55633  0.40132  0.42734  1.0000
  C   C187      1.0  0.58105  0.42625  0.43181  1.0000
  C   C188      1.0  0.59045  0.44388  0.35732  1.0000
  N   N11       1.0  0.59565  0.43215  0.50856  1.0000
  C   C189      1.0  0.58793  0.41578  0.58118  1.0000
  C   C190      1.0  0.56365  0.39059  0.57584  1.0000
  N   N12       1.0  0.54896  0.38463  0.49946  1.0000
  C   C191      1.0  0.60547  0.42447  0.66134  1.0000
  H   H143      1.0  0.62323  0.42264  0.64700  1.0000
  C   C192      1.0  0.55342  0.37104  0.65082  1.0000
  H   H144      1.0  0.54667  0.35073  0.62514  1.0000
