data_image0
_chemical_formula_structural       C8H8C3HC2H3OCHC3HC2H3OCHC3NC3NC5NC5NC20H18N4CN2CHCN2CH
_chemical_formula_sum              "C60 H38 O2 N12"
_cell_length_a       25.6906
_cell_length_b       25.6885
_cell_length_c       14.7221
_cell_angle_alpha    90
_cell_angle_beta     90
_cell_angle_gamma    90.03

_space_group_name_H-M_alt    "P 1"
_space_group_IT_number       1

loop_
  _space_group_symop_operation_xyz
  'x, y, z'

loop_
  _atom_site_type_symbol
  _atom_site_label
  _atom_site_symmetry_multiplicity
  _atom_site_fract_x
  _atom_site_fract_y
  _atom_site_fract_z
  _atom_site_occupancy
  C   C1        1.0  0.23149  0.00070  0.28464  1.0000
  C   C2        1.0  0.28630  0.00079  0.28078  1.0000
  C   C3        1.0  0.00318  0.78972  0.28477  1.0000
  C   C4        1.0  0.00281  0.73491  0.28083  1.0000
  C   C5        1.0  0.73695  0.01929  0.29475  1.0000
  C   C6        1.0  0.79181  0.01875  0.29562  1.0000
  C   C7        1.0  0.02108  0.22925  0.29558  1.0000
  C   C8        1.0  0.02172  0.28411  0.29456  1.0000
  H   H1        1.0  0.02893  0.30254  0.23436  1.0000
  H   H2        1.0  0.02726  0.20949  0.23617  1.0000
  H   H3        1.0  0.81152  0.02590  0.23647  1.0000
  H   H4        1.0  0.71848  0.02732  0.23491  1.0000
  H   H5        1.0  0.99661  0.81048  0.22654  1.0000
  H   H6        1.0  0.99588  0.71722  0.21968  1.0000
  H   H7        1.0  0.30407  0.99470  0.21943  1.0000
  H   H8        1.0  0.21081  0.99464  0.22615  1.0000
  C   C9        1.0  0.00807  0.45353  0.33337  1.0000
  C   C10       1.0  0.99687  0.48994  0.26414  1.0000
  C   C11       1.0  0.99934  0.54420  0.28126  1.0000
  H   H9        1.0  0.98673  0.47687  0.20073  1.0000
  C   C12       1.0  0.98762  0.57871  0.21162  1.0000
  C   C13       1.0  0.02403  0.58447  0.13696  1.0000
  H   H10       1.0  0.06385  0.58817  0.16229  1.0000
  H   H11       1.0  0.01499  0.61956  0.09819  1.0000
  H   H12       1.0  0.02196  0.55095  0.09142  1.0000
  O   O1        1.0  0.94156  0.58150  0.19097  1.0000
  C   C14       1.0  0.00620  0.40018  0.31696  1.0000
  H   H13       1.0  0.99793  0.38841  0.25425  1.0000
  C   C15       1.0  0.56751  0.00561  0.33346  1.0000
  C   C16       1.0  0.53103  0.99536  0.26386  1.0000
  C   C17       1.0  0.47679  0.99762  0.28119  1.0000
  H   H14       1.0  0.54404  0.98601  0.20005  1.0000
  C   C18       1.0  0.44222  0.98683  0.21113  1.0000
  C   C19       1.0  0.43686  0.02326  0.13659  1.0000
  H   H15       1.0  0.43390  0.06312  0.16200  1.0000
  H   H16       1.0  0.40152  0.01473  0.09816  1.0000
  H   H17       1.0  0.47021  0.02065  0.09080  1.0000
  O   O2        1.0  0.43872  0.94065  0.19140  1.0000
  C   C20       1.0  0.62084  0.00387  0.31684  1.0000
  H   H18       1.0  0.63252  0.99664  0.25370  1.0000
  C   C21       1.0  0.10934  0.14359  0.37526  1.0000
  C   C22       1.0  0.14732  0.10557  0.37306  1.0000
  C   C23       1.0  0.12297  0.05691  0.37360  1.0000
  N   N1        1.0  0.07115  0.06745  0.37560  1.0000
  C   C24       1.0  0.06066  0.11928  0.37631  1.0000
  C   C25       1.0  0.01193  0.14585  0.37801  1.0000
  C   C26       1.0  0.96261  0.12059  0.37869  1.0000
  N   N2        1.0  0.95237  0.06887  0.37801  1.0000
  C   C27       1.0  0.90064  0.05870  0.37832  1.0000
  C   C28       1.0  0.87611  0.10721  0.37959  1.0000
  C   C29       1.0  0.91415  0.14521  0.37930  1.0000
  C   C30       1.0  0.87529  0.00941  0.37769  1.0000
  C   C31       1.0  0.90179  0.96062  0.37620  1.0000
  N   N3        1.0  0.95361  0.95006  0.37539  1.0000
  C   C32       1.0  0.96411  0.89823  0.37307  1.0000
  C   C33       1.0  0.91541  0.87394  0.37297  1.0000
  C   C34       1.0  0.87742  0.91198  0.37439  1.0000
  C   C35       1.0  0.01285  0.87167  0.37134  1.0000
  C   C36       1.0  0.06217  0.89694  0.37121  1.0000
  N   N4        1.0  0.07241  0.94865  0.37252  1.0000
  C   C37       1.0  0.12413  0.95886  0.37102  1.0000
  C   C38       1.0  0.14868  0.91037  0.36896  1.0000
  C   C39       1.0  0.11064  0.87235  0.36856  1.0000
  C   C40       1.0  0.14947  0.00815  0.37153  1.0000
  C   C41       1.0  0.20525  0.00860  0.36790  1.0000
  C   C42       1.0  0.31657  0.00898  0.35960  1.0000
  C   C43       1.0  0.29029  0.01710  0.44292  1.0000
  C   C44       1.0  0.23541  0.01683  0.44700  1.0000
  C   C45       1.0  0.01239  0.81587  0.36772  1.0000
  C   C46       1.0  0.01185  0.70453  0.35923  1.0000
  C   C47       1.0  0.02119  0.73072  0.44226  1.0000
  C   C48       1.0  0.02139  0.78560  0.44643  1.0000
  C   C49       1.0  0.81947  0.00909  0.37688  1.0000
  C   C50       1.0  0.79066  0.00014  0.45723  1.0000
  C   C51       1.0  0.73574  0.00061  0.45610  1.0000
  C   C52       1.0  0.70789  0.00971  0.37487  1.0000
  C   C53       1.0  0.01242  0.20167  0.37728  1.0000
  C   C54       1.0  0.00460  0.23054  0.45791  1.0000
  C   C55       1.0  0.01323  0.31323  0.37498  1.0000
  C   C56       1.0  0.00517  0.28546  0.45664  1.0000
  H   H19       1.0  0.99927  0.30519  0.51616  1.0000
  H   H20       1.0  0.99844  0.21171  0.51823  1.0000
  H   H21       1.0  0.11683  0.18267  0.37565  1.0000
  H   H22       1.0  0.18639  0.11302  0.37133  1.0000
  H   H23       1.0  0.04471  0.04102  0.37622  1.0000
  H   H24       1.0  0.98007  0.97647  0.37612  1.0000
  H   H25       1.0  0.90696  0.18433  0.37953  1.0000
  H   H26       1.0  0.83700  0.11447  0.38031  1.0000
  H   H27       1.0  0.80955  0.99339  0.51730  1.0000
  H   H28       1.0  0.71607  0.99398  0.51545  1.0000
  H   H29       1.0  0.83833  0.90457  0.37403  1.0000
  H   H30       1.0  0.90793  0.83487  0.37169  1.0000
  H   H31       1.0  0.18779  0.90314  0.36756  1.0000
  H   H32       1.0  0.11783  0.83325  0.36659  1.0000
  H   H33       1.0  0.02822  0.80342  0.50748  1.0000
  H   H34       1.0  0.02781  0.71013  0.50049  1.0000
  H   H35       1.0  0.21752  0.02263  0.50829  1.0000
  H   H36       1.0  0.31083  0.02303  0.50145  1.0000
  N   N5        1.0  0.01059  0.65285  0.34909  1.0000
  N   N6        1.0  0.65570  0.01010  0.37892  1.0000
  N   N7        1.0  0.01356  0.36542  0.37882  1.0000
  N   N8        1.0  0.36824  0.00799  0.34954  1.0000
  C   C57       1.0  0.01311  0.56136  0.37017  1.0000
  N   N9        1.0  0.02316  0.52340  0.43254  1.0000
  N   N10       1.0  0.02096  0.47331  0.41597  1.0000
  C   C58       1.0  0.01710  0.61289  0.40067  1.0000
  H   H37       1.0  0.02543  0.61890  0.46576  1.0000
  C   C59       1.0  0.45971  0.01026  0.37065  1.0000
  N   N11       1.0  0.49772  0.01946  0.43332  1.0000
  N   N12       1.0  0.54780  0.01744  0.41659  1.0000
  C   C60       1.0  0.40821  0.01385  0.40136  1.0000
  H   H38       1.0  0.40220  0.02127  0.46680  1.0000
