data_image0
_chemical_formula_structural       C2HC2HN2CNCNO2CHCNCNO2CHC4H2C4H2N3C2HCHNC2HCHC2HC2HN2CNCNO2CHCNCNO2CHC4H2C4H2N3C2HCHNC2HCHC2HC2HN2CNCNO2CHCNCNO2CHC4H2C4H2N3C2HCHNC2HCHC2HC2HN2CNCNO2CHCNCNO2CHC4H2C4H2N3C2HCHNC2HCH
_chemical_formula_sum              "C96 H48 N40 O16"
_cell_length_a       31.2358
_cell_length_b       31.2358
_cell_length_c       14.807
_cell_angle_alpha    90
_cell_angle_beta     90
_cell_angle_gamma    90

_space_group_name_H-M_alt    "P 1"
_space_group_IT_number       1

loop_
  _space_group_symop_operation_xyz
  'x, y, z'

loop_
  _atom_site_type_symbol
  _atom_site_label
  _atom_site_symmetry_multiplicity
  _atom_site_fract_x
  _atom_site_fract_y
  _atom_site_fract_z
  _atom_site_occupancy
  C   C1        1.0  0.00838  0.07262  0.32941  1.0000
  C   C2        1.0  0.04002  0.10503  0.32916  1.0000
  H   H1        1.0  0.47767  0.08306  0.32960  1.0000
  C   C3        1.0  0.46334  0.41778  0.32784  1.0000
  C   C4        1.0  0.49487  0.45029  0.32776  1.0000
  H   H2        1.0  0.02559  0.43994  0.32706  1.0000
  N   N1        1.0  0.47133  0.37508  0.32726  1.0000
  N   N2        1.0  0.03219  0.14774  0.32911  1.0000
  C   C5        1.0  0.50592  0.30636  0.32616  1.0000
  N   N3        1.0  0.03756  0.23680  0.32472  1.0000
  C   C6        1.0  0.54295  0.28014  0.32303  1.0000
  N   N4        1.0  0.58440  0.29783  0.31753  1.0000
  O   O1        1.0  0.10662  0.28611  0.38373  1.0000
  O   O2        1.0  0.60269  0.28554  0.24659  1.0000
  C   C7        1.0  0.50754  0.35139  0.32535  1.0000
  H   H3        1.0  0.53652  0.36649  0.32305  1.0000
  C   C8        1.0  0.20670  0.50713  0.32693  1.0000
  N   N5        1.0  0.27625  0.97548  0.32557  1.0000
  C   C9        1.0  0.23292  0.47010  0.32392  1.0000
  N   N6        1.0  0.21523  0.42865  0.31854  1.0000
  O   O3        1.0  0.22694  0.90647  0.38481  1.0000
  O   O4        1.0  0.22752  0.41030  0.24766  1.0000
  C   C10       1.0  0.16166  0.50551  0.32608  1.0000
  H   H4        1.0  0.14656  0.47653  0.32382  1.0000
  C   C11       1.0  0.01799  0.02784  0.32883  1.0000
  C   C12       1.0  0.08330  0.09300  0.32861  1.0000
  C   C13       1.0  0.09527  0.04971  0.32812  1.0000
  C   C14       1.0  0.06276  0.01818  0.32814  1.0000
  H   H5        1.0  0.07311  0.48747  0.32802  1.0000
  H   H6        1.0  0.10655  0.11621  0.32847  1.0000
  C   C15       1.0  0.48521  0.49506  0.32883  1.0000
  C   C16       1.0  0.44043  0.50468  0.32981  1.0000
  C   C17       1.0  0.40802  0.47303  0.32952  1.0000
  C   C18       1.0  0.42005  0.42975  0.32868  1.0000
  H   H7        1.0  0.43000  0.03538  0.33048  1.0000
  H   H8        1.0  0.39685  0.40651  0.32856  1.0000
  N   N7        1.0  0.36532  0.48087  0.32966  1.0000
  N   N8        1.0  0.13797  0.04172  0.32774  1.0000
  N   N9        1.0  0.46725  0.28628  0.33035  1.0000
  C   C19       1.0  0.96228  0.24313  0.33181  1.0000
  C   C20       1.0  0.99893  0.21680  0.32912  1.0000
  H   H9        1.0  0.93214  0.23049  0.33507  1.0000
  C   C21       1.0  0.99630  0.17189  0.33046  1.0000
  H   H10       1.0  0.96694  0.15746  0.33292  1.0000
  N   N10       1.0  0.22677  0.54580  0.33102  1.0000
  C   C22       1.0  0.26993  0.05077  0.33247  1.0000
  C   C23       1.0  0.29625  0.01412  0.32986  1.0000
  H   H11       1.0  0.28256  0.08091  0.33565  1.0000
  C   C24       1.0  0.34116  0.01675  0.33114  1.0000
  H   H12       1.0  0.35560  0.04611  0.33351  1.0000
  C   C25       1.0  0.00838  0.57263  0.32941  1.0000
  C   C26       1.0  0.04002  0.60503  0.32916  1.0000
  H   H13       1.0  0.47767  0.58305  0.32960  1.0000
  C   C27       1.0  0.46334  0.91778  0.32784  1.0000
  C   C28       1.0  0.49487  0.95029  0.32776  1.0000
  H   H14       1.0  0.02559  0.93994  0.32706  1.0000
  N   N11       1.0  0.47133  0.87508  0.32726  1.0000
  N   N12       1.0  0.03219  0.64774  0.32911  1.0000
  C   C29       1.0  0.50592  0.80636  0.32616  1.0000
  N   N13       1.0  0.03756  0.73681  0.32472  1.0000
  C   C30       1.0  0.54295  0.78014  0.32303  1.0000
  N   N14       1.0  0.58440  0.79783  0.31753  1.0000
  O   O5        1.0  0.10662  0.78611  0.38373  1.0000
  O   O6        1.0  0.60269  0.78554  0.24659  1.0000
  C   C31       1.0  0.50754  0.85139  0.32535  1.0000
  H   H15       1.0  0.53652  0.86649  0.32305  1.0000
  C   C32       1.0  0.20670  0.00713  0.32693  1.0000
  N   N15       1.0  0.27625  0.47548  0.32557  1.0000
  C   C33       1.0  0.23292  0.97010  0.32392  1.0000
  N   N16       1.0  0.21523  0.92865  0.31854  1.0000
  O   O7        1.0  0.22694  0.40647  0.38481  1.0000
  O   O8        1.0  0.22752  0.91031  0.24766  1.0000
  C   C34       1.0  0.16166  0.00551  0.32608  1.0000
  H   H16       1.0  0.14656  0.97653  0.32382  1.0000
  C   C35       1.0  0.01799  0.52784  0.32883  1.0000
  C   C36       1.0  0.08330  0.59300  0.32861  1.0000
  C   C37       1.0  0.09527  0.54971  0.32812  1.0000
  C   C38       1.0  0.06276  0.51818  0.32814  1.0000
  H   H17       1.0  0.07311  0.98747  0.32802  1.0000
  H   H18       1.0  0.10655  0.61621  0.32847  1.0000
  C   C39       1.0  0.48521  0.99507  0.32883  1.0000
  C   C40       1.0  0.44043  0.00468  0.32981  1.0000
  C   C41       1.0  0.40802  0.97303  0.32952  1.0000
  C   C42       1.0  0.42005  0.92975  0.32868  1.0000
  H   H19       1.0  0.43000  0.53538  0.33048  1.0000
  H   H20       1.0  0.39685  0.90651  0.32856  1.0000
  N   N17       1.0  0.36532  0.98087  0.32966  1.0000
  N   N18       1.0  0.13797  0.54172  0.32774  1.0000
  N   N19       1.0  0.46725  0.78628  0.33035  1.0000
  C   C43       1.0  0.96228  0.74313  0.33181  1.0000
  C   C44       1.0  0.99893  0.71680  0.32912  1.0000
  H   H21       1.0  0.93214  0.73049  0.33507  1.0000
  C   C45       1.0  0.99630  0.67190  0.33046  1.0000
  H   H22       1.0  0.96694  0.65746  0.33292  1.0000
  N   N20       1.0  0.22677  0.04580  0.33102  1.0000
  C   C46       1.0  0.26993  0.55077  0.33247  1.0000
  C   C47       1.0  0.29625  0.51411  0.32986  1.0000
  H   H23       1.0  0.28256  0.58091  0.33565  1.0000
  C   C48       1.0  0.34116  0.51675  0.33114  1.0000
  H   H24       1.0  0.35560  0.54611  0.33351  1.0000
  C   C49       1.0  0.50838  0.07262  0.32941  1.0000
  C   C50       1.0  0.54002  0.10503  0.32916  1.0000
  H   H25       1.0  0.97767  0.08306  0.32960  1.0000
  C   C51       1.0  0.96334  0.41778  0.32784  1.0000
  C   C52       1.0  0.99488  0.45029  0.32776  1.0000
  H   H26       1.0  0.52559  0.43994  0.32706  1.0000
  N   N21       1.0  0.97133  0.37508  0.32726  1.0000
  N   N22       1.0  0.53219  0.14774  0.32911  1.0000
  C   C53       1.0  0.00592  0.30636  0.32616  1.0000
  N   N23       1.0  0.53756  0.23680  0.32472  1.0000
  C   C54       1.0  0.04295  0.28014  0.32303  1.0000
  N   N24       1.0  0.08440  0.29783  0.31753  1.0000
  O   O9        1.0  0.60662  0.28611  0.38373  1.0000
  O   O10       1.0  0.10269  0.28554  0.24659  1.0000
  C   C55       1.0  0.00754  0.35139  0.32535  1.0000
  H   H27       1.0  0.03652  0.36649  0.32305  1.0000
  C   C56       1.0  0.70670  0.50713  0.32693  1.0000
  N   N25       1.0  0.77625  0.97548  0.32557  1.0000
  C   C57       1.0  0.73292  0.47010  0.32392  1.0000
  N   N26       1.0  0.71523  0.42865  0.31854  1.0000
  O   O11       1.0  0.72694  0.90647  0.38481  1.0000
  O   O12       1.0  0.72752  0.41030  0.24766  1.0000
  C   C58       1.0  0.66166  0.50551  0.32608  1.0000
  H   H28       1.0  0.64656  0.47653  0.32382  1.0000
  C   C59       1.0  0.51799  0.02784  0.32883  1.0000
  C   C60       1.0  0.58330  0.09300  0.32861  1.0000
  C   C61       1.0  0.59527  0.04971  0.32812  1.0000
  C   C62       1.0  0.56276  0.01818  0.32814  1.0000
  H   H29       1.0  0.57312  0.48747  0.32802  1.0000
  H   H30       1.0  0.60655  0.11621  0.32847  1.0000
  C   C63       1.0  0.98521  0.49506  0.32883  1.0000
  C   C64       1.0  0.94043  0.50468  0.32981  1.0000
  C   C65       1.0  0.90802  0.47303  0.32952  1.0000
  C   C66       1.0  0.92005  0.42975  0.32868  1.0000
  H   H31       1.0  0.93000  0.03538  0.33048  1.0000
  H   H32       1.0  0.89685  0.40651  0.32856  1.0000
  N   N27       1.0  0.86532  0.48087  0.32966  1.0000
  N   N28       1.0  0.63797  0.04172  0.32774  1.0000
  N   N29       1.0  0.96725  0.28628  0.33035  1.0000
  C   C67       1.0  0.46228  0.24313  0.33181  1.0000
  C   C68       1.0  0.49893  0.21680  0.32912  1.0000
  H   H33       1.0  0.43214  0.23049  0.33507  1.0000
  C   C69       1.0  0.49630  0.17189  0.33046  1.0000
  H   H34       1.0  0.46694  0.15746  0.33292  1.0000
  N   N30       1.0  0.72677  0.54580  0.33102  1.0000
  C   C70       1.0  0.76993  0.05077  0.33247  1.0000
  C   C71       1.0  0.79625  0.01412  0.32986  1.0000
  H   H35       1.0  0.78256  0.08091  0.33565  1.0000
  C   C72       1.0  0.84116  0.01675  0.33114  1.0000
  H   H36       1.0  0.85560  0.04611  0.33351  1.0000
  C   C73       1.0  0.50838  0.57263  0.32941  1.0000
  C   C74       1.0  0.54002  0.60503  0.32916  1.0000
  H   H37       1.0  0.97767  0.58305  0.32960  1.0000
  C   C75       1.0  0.96334  0.91778  0.32784  1.0000
  C   C76       1.0  0.99488  0.95029  0.32776  1.0000
  H   H38       1.0  0.52559  0.93994  0.32706  1.0000
  N   N31       1.0  0.97133  0.87508  0.32726  1.0000
  N   N32       1.0  0.53219  0.64774  0.32911  1.0000
  C   C77       1.0  0.00592  0.80636  0.32616  1.0000
  N   N33       1.0  0.53756  0.73681  0.32472  1.0000
  C   C78       1.0  0.04295  0.78014  0.32303  1.0000
  N   N34       1.0  0.08440  0.79783  0.31753  1.0000
  O   O13       1.0  0.60662  0.78611  0.38373  1.0000
  O   O14       1.0  0.10269  0.78554  0.24659  1.0000
  C   C79       1.0  0.00754  0.85139  0.32535  1.0000
  H   H39       1.0  0.03652  0.86649  0.32305  1.0000
  C   C80       1.0  0.70670  0.00713  0.32693  1.0000
  N   N35       1.0  0.77625  0.47548  0.32557  1.0000
  C   C81       1.0  0.73292  0.97010  0.32392  1.0000
  N   N36       1.0  0.71523  0.92865  0.31854  1.0000
  O   O15       1.0  0.72694  0.40647  0.38481  1.0000
  O   O16       1.0  0.72752  0.91031  0.24766  1.0000
  C   C82       1.0  0.66166  0.00551  0.32608  1.0000
  H   H40       1.0  0.64656  0.97653  0.32382  1.0000
  C   C83       1.0  0.51799  0.52784  0.32883  1.0000
  C   C84       1.0  0.58330  0.59300  0.32861  1.0000
  C   C85       1.0  0.59527  0.54971  0.32812  1.0000
  C   C86       1.0  0.56276  0.51818  0.32814  1.0000
  H   H41       1.0  0.57312  0.98747  0.32802  1.0000
  H   H42       1.0  0.60655  0.61621  0.32847  1.0000
  C   C87       1.0  0.98521  0.99507  0.32883  1.0000
  C   C88       1.0  0.94043  0.00468  0.32981  1.0000
  C   C89       1.0  0.90802  0.97303  0.32952  1.0000
  C   C90       1.0  0.92005  0.92975  0.32868  1.0000
  H   H43       1.0  0.93000  0.53538  0.33048  1.0000
  H   H44       1.0  0.89685  0.90651  0.32856  1.0000
  N   N37       1.0  0.86532  0.98087  0.32966  1.0000
  N   N38       1.0  0.63797  0.54172  0.32774  1.0000
  N   N39       1.0  0.96725  0.78628  0.33035  1.0000
  C   C91       1.0  0.46228  0.74313  0.33181  1.0000
  C   C92       1.0  0.49893  0.71680  0.32912  1.0000
  H   H45       1.0  0.43214  0.73049  0.33507  1.0000
  C   C93       1.0  0.49630  0.67190  0.33046  1.0000
  H   H46       1.0  0.46694  0.65746  0.33292  1.0000
  N   N40       1.0  0.72677  0.04580  0.33102  1.0000
  C   C94       1.0  0.76993  0.55077  0.33247  1.0000
  C   C95       1.0  0.79625  0.51411  0.32986  1.0000
  H   H47       1.0  0.78256  0.58091  0.33565  1.0000
  C   C96       1.0  0.84116  0.51675  0.33114  1.0000
  H   H48       1.0  0.85560  0.54611  0.33351  1.0000
