data_image0
_chemical_formula_structural       C4H2C4H2N2C4H2C4H2N2C4H2C4H2N3C3O2HCHNC3O2HCHNC3O2HCHNC3O2HCHNC3O2HCHNC3O2HCHC2HC2HN2C2HC2HN2C2HC2HN2CNC2O2HCHCNC2O2HCHCNC2O2HCHCNC2O2HCHCNC2O2HCHCNC2O2HCH
_chemical_formula_sum              "C84 H42 N24 O24"
_cell_length_a       31.7922
_cell_length_b       31.7921
_cell_length_c       15.031
_cell_angle_alpha    90
_cell_angle_beta     90
_cell_angle_gamma    120

_space_group_name_H-M_alt    "P 1"
_space_group_IT_number       1

loop_
  _space_group_symop_operation_xyz
  'x, y, z'

loop_
  _atom_site_type_symbol
  _atom_site_label
  _atom_site_symmetry_multiplicity
  _atom_site_fract_x
  _atom_site_fract_y
  _atom_site_fract_z
  _atom_site_occupancy
  C   C1        1.0  0.97245  0.48659  0.33171  1.0000
  C   C2        1.0  0.86896  0.43735  0.33147  1.0000
  C   C3        1.0  0.89293  0.41038  0.33787  1.0000
  C   C4        1.0  0.94384  0.43549  0.34607  1.0000
  H   H1        1.0  0.95966  0.41493  0.35779  1.0000
  H   H2        1.0  0.83179  0.41968  0.33082  1.0000
  C   C5        1.0  0.02445  0.51131  0.33172  1.0000
  C   C6        1.0  0.05306  0.56242  0.34604  1.0000
  C   C7        1.0  0.10397  0.58752  0.33787  1.0000
  C   C8        1.0  0.12794  0.56054  0.33157  1.0000
  H   H3        1.0  0.03723  0.58298  0.35769  1.0000
  H   H4        1.0  0.16511  0.57822  0.33094  1.0000
  N   N1        1.0  0.12875  0.63671  0.33678  1.0000
  N   N2        1.0  0.86814  0.36119  0.33688  1.0000
  C   C9        1.0  0.51083  0.48534  0.33158  1.0000
  C   C10       1.0  0.56008  0.43109  0.33146  1.0000
  C   C11       1.0  0.58705  0.48204  0.33781  1.0000
  C   C12       1.0  0.56194  0.50784  0.34585  1.0000
  H   H5        1.0  0.58248  0.54422  0.35769  1.0000
  H   H6        1.0  0.57775  0.41159  0.33090  1.0000
  C   C13       1.0  0.48611  0.51262  0.33155  1.0000
  C   C14       1.0  0.43500  0.49011  0.34578  1.0000
  C   C15       1.0  0.40988  0.51592  0.33770  1.0000
  C   C16       1.0  0.43686  0.56687  0.33136  1.0000
  H   H7        1.0  0.41445  0.45374  0.35764  1.0000
  H   H8        1.0  0.41919  0.58636  0.33079  1.0000
  N   N3        1.0  0.36069  0.49149  0.33666  1.0000
  N   N4        1.0  0.63624  0.50646  0.33678  1.0000
  C   C17       1.0  0.51208  0.02498  0.33157  1.0000
  C   C18       1.0  0.56633  0.12847  0.33134  1.0000
  C   C19       1.0  0.51538  0.10450  0.33769  1.0000
  C   C20       1.0  0.48957  0.05359  0.34579  1.0000
  H   H9        1.0  0.45320  0.03775  0.35766  1.0000
  H   H10       1.0  0.58583  0.16564  0.33076  1.0000
  C   C21       1.0  0.48480  0.97298  0.33164  1.0000
  C   C22       1.0  0.50730  0.94438  0.34601  1.0000
  C   C23       1.0  0.48150  0.89346  0.33799  1.0000
  C   C24       1.0  0.43055  0.86949  0.33155  1.0000
  H   H11       1.0  0.54367  0.96022  0.35791  1.0000
  H   H12       1.0  0.41106  0.83232  0.33098  1.0000
  N   N5        1.0  0.50590  0.86867  0.33705  1.0000
  N   N6        1.0  0.49096  0.12928  0.33666  1.0000
  N   N7        1.0  0.20933  0.48369  0.26984  1.0000
  C   C25       1.0  0.25113  0.48740  0.23837  1.0000
  C   C26       1.0  0.28405  0.48679  0.30149  1.0000
  C   C27       1.0  0.26018  0.49377  0.14742  1.0000
  O   O1        1.0  0.24539  0.51670  0.10536  1.0000
  O   O2        1.0  0.26615  0.46463  0.10230  1.0000
  H   H13       1.0  0.27244  0.44244  0.12396  1.0000
  C   C28       1.0  0.33288  0.50211  0.28350  1.0000
  H   H14       1.0  0.34820  0.52181  0.22683  1.0000
  N   N8        1.0  0.51365  0.72511  0.27001  1.0000
  C   C29       1.0  0.50989  0.76319  0.23866  1.0000
  C   C30       1.0  0.51044  0.79663  0.30192  1.0000
  C   C31       1.0  0.50355  0.76592  0.14767  1.0000
  O   O3        1.0  0.47995  0.72815  0.10605  1.0000
  O   O4        1.0  0.53276  0.80105  0.10273  1.0000
  H   H15       1.0  0.55514  0.82941  0.12450  1.0000
  C   C32       1.0  0.49532  0.83029  0.28380  1.0000
  H   H16       1.0  0.47568  0.82597  0.22707  1.0000
  N   N9        1.0  0.27235  0.78797  0.26955  1.0000
  C   C33       1.0  0.23423  0.74615  0.23821  1.0000
  C   C34       1.0  0.20076  0.71331  0.30147  1.0000
  C   C35       1.0  0.23141  0.73708  0.14726  1.0000
  O   O5        1.0  0.26908  0.75181  0.10503  1.0000
  O   O6        1.0  0.19627  0.73118  0.10232  1.0000
  H   H17       1.0  0.16784  0.72495  0.12411  1.0000
  C   C36       1.0  0.16715  0.66448  0.28353  1.0000
  H   H18       1.0  0.17147  0.64913  0.22684  1.0000
  N   N10       1.0  0.78756  0.51422  0.26966  1.0000
  C   C37       1.0  0.74577  0.51057  0.23828  1.0000
  C   C38       1.0  0.71286  0.51114  0.30148  1.0000
  C   C39       1.0  0.73674  0.50436  0.14732  1.0000
  O   O7        1.0  0.75151  0.48147  0.10506  1.0000
  O   O8        1.0  0.73083  0.53360  0.10241  1.0000
  H   H19       1.0  0.72457  0.55578  0.12423  1.0000
  C   C40       1.0  0.66404  0.49587  0.28353  1.0000
  H   H20       1.0  0.64871  0.47622  0.22680  1.0000
  N   N11       1.0  0.48317  0.27284  0.26984  1.0000
  C   C41       1.0  0.48688  0.23475  0.23837  1.0000
  C   C42       1.0  0.48628  0.20123  0.30149  1.0000
  C   C43       1.0  0.49321  0.23204  0.14742  1.0000
  O   O9        1.0  0.51613  0.26976  0.10532  1.0000
  O   O10       1.0  0.46405  0.19693  0.10233  1.0000
  H   H21       1.0  0.44186  0.16846  0.12402  1.0000
  C   C44       1.0  0.50158  0.16770  0.28349  1.0000
  H   H22       1.0  0.52127  0.17207  0.22681  1.0000
  N   N12       1.0  0.72458  0.20987  0.26992  1.0000
  C   C45       1.0  0.76266  0.25170  0.23854  1.0000
  C   C46       1.0  0.79610  0.28460  0.30178  1.0000
  C   C47       1.0  0.76539  0.26075  0.14754  1.0000
  O   O11       1.0  0.72762  0.24656  0.10592  1.0000
  O   O12       1.0  0.80052  0.26665  0.10262  1.0000
  H   H23       1.0  0.82887  0.27262  0.12440  1.0000
  C   C48       1.0  0.82976  0.33338  0.28363  1.0000
  H   H24       1.0  0.82544  0.34870  0.22690  1.0000
  C   C49       1.0  0.94629  0.51163  0.31705  1.0000
  C   C50       1.0  0.89544  0.48830  0.32501  1.0000
  H   H25       1.0  0.96387  0.54802  0.30447  1.0000
  C   C51       1.0  0.10145  0.50958  0.32518  1.0000
  C   C52       1.0  0.05061  0.48627  0.31709  1.0000
  H   H26       1.0  0.03303  0.44987  0.30462  1.0000
  N   N13       1.0  0.12464  0.48367  0.32231  1.0000
  N   N14       1.0  0.87224  0.51421  0.32211  1.0000
  C   C53       1.0  0.48579  0.43414  0.31700  1.0000
  C   C54       1.0  0.50912  0.40662  0.32501  1.0000
  H   H27       1.0  0.44940  0.41532  0.30445  1.0000
  C   C55       1.0  0.48782  0.59134  0.32499  1.0000
  C   C56       1.0  0.51114  0.56382  0.31692  1.0000
  H   H28       1.0  0.54755  0.58265  0.30450  1.0000
  N   N15       1.0  0.51373  0.64044  0.32219  1.0000
  N   N16       1.0  0.48319  0.35751  0.32222  1.0000
  C   C57       1.0  0.56327  0.05113  0.31689  1.0000
  C   C58       1.0  0.59080  0.10198  0.32495  1.0000
  H   H29       1.0  0.58210  0.03355  0.30454  1.0000
  C   C59       1.0  0.40609  0.89597  0.32500  1.0000
  C   C60       1.0  0.43360  0.94682  0.31698  1.0000
  H   H30       1.0  0.41480  0.96440  0.30433  1.0000
  N   N17       1.0  0.35698  0.87276  0.32201  1.0000
  N   N18       1.0  0.63990  0.12516  0.32216  1.0000
  C   C61       1.0  0.19687  0.47939  0.35714  1.0000
  N   N19       1.0  0.27077  0.48069  0.38849  1.0000
  C   C62       1.0  0.22895  0.47687  0.41976  1.0000
  C   C63       1.0  0.22240  0.47319  0.51121  1.0000
  O   O13       1.0  0.25107  0.50773  0.55622  1.0000
  O   O14       1.0  0.18303  0.44582  0.54716  1.0000
  H   H31       1.0  0.15896  0.41990  0.52137  1.0000
  C   C64       1.0  0.16030  0.48991  0.37928  1.0000
  H   H32       1.0  0.16218  0.50553  0.43988  1.0000
  C   C65       1.0  0.51798  0.71690  0.35727  1.0000
  N   N20       1.0  0.51665  0.78948  0.38887  1.0000
  C   C66       1.0  0.52048  0.75146  0.42000  1.0000
  C   C67       1.0  0.52433  0.74861  0.51142  1.0000
  O   O15       1.0  0.48989  0.74278  0.55668  1.0000
  O   O16       1.0  0.55177  0.73662  0.54713  1.0000
  H   H33       1.0  0.57763  0.73845  0.52115  1.0000
  C   C68       1.0  0.50754  0.66983  0.37932  1.0000
  H   H34       1.0  0.49190  0.65604  0.43989  1.0000
  C   C69       1.0  0.28060  0.80041  0.35684  1.0000
  N   N21       1.0  0.20794  0.72660  0.38846  1.0000
  C   C70       1.0  0.24601  0.76841  0.41959  1.0000
  C   C71       1.0  0.24879  0.77498  0.51102  1.0000
  O   O17       1.0  0.25828  0.74821  0.55421  1.0000
  O   O18       1.0  0.26056  0.81441  0.54638  1.0000
  H   H35       1.0  0.25693  0.83759  0.52126  1.0000
  C   C72       1.0  0.32756  0.83721  0.37915  1.0000
  H   H36       1.0  0.34129  0.83544  0.43984  1.0000
  C   C73       1.0  0.79995  0.51833  0.35696  1.0000
  N   N22       1.0  0.72614  0.51716  0.38848  1.0000
  C   C74       1.0  0.76794  0.52090  0.41970  1.0000
  C   C75       1.0  0.77456  0.52463  0.51119  1.0000
  O   O19       1.0  0.74550  0.49039  0.55632  1.0000
  O   O20       1.0  0.81394  0.55217  0.54694  1.0000
  H   H37       1.0  0.83804  0.57794  0.52085  1.0000
  C   C76       1.0  0.83668  0.50807  0.37923  1.0000
  H   H38       1.0  0.83481  0.49243  0.43982  1.0000
  C   C77       1.0  0.47889  0.28102  0.35714  1.0000
  N   N23       1.0  0.48020  0.20842  0.38850  1.0000
  C   C78       1.0  0.47639  0.24643  0.41977  1.0000
  C   C79       1.0  0.47273  0.24931  0.51122  1.0000
  O   O21       1.0  0.50725  0.25513  0.55622  1.0000
  O   O22       1.0  0.44538  0.26133  0.54719  1.0000
  H   H39       1.0  0.41947  0.25951  0.52141  1.0000
  C   C80       1.0  0.48938  0.32810  0.37927  1.0000
  H   H40       1.0  0.50509  0.34188  0.43981  1.0000
  C   C81       1.0  0.71638  0.19737  0.35720  1.0000
  N   N24       1.0  0.78895  0.27127  0.38874  1.0000
  C   C82       1.0  0.75093  0.22943  0.41990  1.0000
  C   C83       1.0  0.74808  0.22275  0.51132  1.0000
  O   O23       1.0  0.74229  0.25140  0.55656  1.0000
  O   O24       1.0  0.73608  0.18334  0.54708  1.0000
  H   H41       1.0  0.73790  0.15929  0.52112  1.0000
  C   C84       1.0  0.66929  0.16074  0.37926  1.0000
  H   H42       1.0  0.65551  0.16263  0.43982  1.0000
