data_image0
_chemical_formula_structural       C15H12C8H4C8H4C2NC2NC5NC3NC17H14N4C15H12C8H4C8H4C2NC2NC5NC3NC17H14N4C15H12C8H4C8H4C2NC2NC5NC3NC17H14N4C15H12C8H4C8H4C2NC2NC5NC3NC17H14N4
_chemical_formula_sum              "C240 H136 N32"
_cell_length_a       42.684
_cell_length_b       42.684
_cell_length_c       14.9308
_cell_angle_alpha    90
_cell_angle_beta     90
_cell_angle_gamma    90

_space_group_name_H-M_alt    "P 1"
_space_group_IT_number       1

loop_
  _space_group_symop_operation_xyz
  'x, y, z'

loop_
  _atom_site_type_symbol
  _atom_site_label
  _atom_site_symmetry_multiplicity
  _atom_site_fract_x
  _atom_site_fract_y
  _atom_site_fract_z
  _atom_site_occupancy
  C   C1        1.0  0.43579  0.47192  0.35724  1.0000
  C   C2        1.0  0.03283  0.43504  0.35676  1.0000
  C   C3        1.0  0.50031  0.08456  0.35498  1.0000
  C   C4        1.0  0.47094  0.06866  0.35648  1.0000
  C   C5        1.0  0.41905  0.05986  0.35244  1.0000
  C   C6        1.0  0.44151  0.08298  0.35590  1.0000
  C   C7        1.0  0.33838  0.48607  0.26222  1.0000
  C   C8        1.0  0.37117  0.48662  0.27137  1.0000
  C   C9        1.0  0.50008  0.11820  0.34644  1.0000
  C   C10       1.0  0.48618  0.16538  0.26116  1.0000
  C   C11       1.0  0.48665  0.13260  0.27028  1.0000
  C   C12       1.0  0.13257  0.01719  0.27144  1.0000
  C   C13       1.0  0.16536  0.01784  0.26230  1.0000
  C   C14       1.0  0.01720  0.37112  0.27055  1.0000
  C   C15       1.0  0.01771  0.33833  0.26142  1.0000
  H   H1        1.0  0.02989  0.32924  0.20860  1.0000
  H   H2        1.0  0.02768  0.38445  0.22210  1.0000
  H   H3        1.0  0.44022  0.39650  0.34969  1.0000
  H   H4        1.0  0.11919  0.02768  0.22311  1.0000
  H   H5        1.0  0.17441  0.03012  0.20961  1.0000
  H   H6        1.0  0.06356  0.10720  0.35020  1.0000
  H   H7        1.0  0.39559  0.06426  0.34865  1.0000
  H   H8        1.0  0.43655  0.10637  0.35549  1.0000
  H   H9        1.0  0.47621  0.11928  0.22172  1.0000
  H   H10       1.0  0.47406  0.17449  0.20825  1.0000
  H   H11       1.0  0.38453  0.47621  0.22285  1.0000
  H   H12       1.0  0.32929  0.47392  0.20933  1.0000
  C   C16       1.0  0.00016  0.28502  0.30960  1.0000
  C   C17       1.0  0.99959  0.26849  0.22643  1.0000
  C   C18       1.0  0.00439  0.23522  0.22643  1.0000
  C   C19       1.0  0.00373  0.21867  0.30957  1.0000
  C   C20       1.0  0.01044  0.22028  0.14323  1.0000
  C   C21       1.0  0.00698  0.23622  0.06163  1.0000
  C   C22       1.0  0.99716  0.26750  0.06160  1.0000
  C   C23       1.0  0.99362  0.28344  0.14317  1.0000
  H   H13       1.0  0.01792  0.19760  0.14044  1.0000
  H   H14       1.0  0.01070  0.22480  0.00238  1.0000
  H   H15       1.0  0.99349  0.27892  0.00234  1.0000
  H   H16       1.0  0.98613  0.30612  0.14035  1.0000
  C   C24       1.0  0.21872  0.00026  0.31012  1.0000
  C   C25       1.0  0.23527  0.99977  0.22696  1.0000
  C   C26       1.0  0.26856  0.00445  0.22706  1.0000
  C   C27       1.0  0.28507  0.00371  0.31024  1.0000
  C   C28       1.0  0.28356  0.01049  0.14393  1.0000
  C   C29       1.0  0.26762  0.00720  0.06228  1.0000
  C   C30       1.0  0.23628  0.99753  0.06211  1.0000
  C   C31       1.0  0.22031  0.99396  0.14362  1.0000
  H   H17       1.0  0.30628  0.01784  0.14124  1.0000
  H   H18       1.0  0.27908  0.01089  0.00309  1.0000
  H   H19       1.0  0.22486  0.99397  0.00279  1.0000
  H   H20       1.0  0.19761  0.98658  0.14067  1.0000
  C   C32       1.0  0.44476  0.41993  0.35354  1.0000
  C   C33       1.0  0.42164  0.44240  0.35703  1.0000
  N   N1        1.0  0.46708  0.46596  0.35879  1.0000
  C   C34       1.0  0.47390  0.43484  0.35639  1.0000
  C   C35       1.0  0.50346  0.41914  0.35525  1.0000
  N   N2        1.0  0.03859  0.46627  0.35800  1.0000
  C   C36       1.0  0.06965  0.47287  0.35606  1.0000
  C   C37       1.0  0.08472  0.44384  0.35273  1.0000
  C   C38       1.0  0.06226  0.42072  0.35630  1.0000
  C   C39       1.0  0.08461  0.50273  0.35555  1.0000
  C   C40       1.0  0.06798  0.03178  0.35734  1.0000
  N   N3        1.0  0.03668  0.03774  0.35869  1.0000
  C   C41       1.0  0.02987  0.06886  0.35636  1.0000
  C   C42       1.0  0.05901  0.08378  0.35387  1.0000
  C   C43       1.0  0.08213  0.06130  0.35749  1.0000
  N   N4        1.0  0.46518  0.03743  0.35785  1.0000
  C   C44       1.0  0.43412  0.03083  0.35598  1.0000
  C   C45       1.0  0.41916  0.50097  0.35546  1.0000
  C   C46       1.0  0.38552  0.50025  0.34730  1.0000
  C   C47       1.0  0.36565  0.01345  0.41319  1.0000
  C   C48       1.0  0.33297  0.01510  0.40001  1.0000
  C   C49       1.0  0.31851  0.50222  0.32274  1.0000
  C   C50       1.0  0.01320  0.13803  0.41251  1.0000
  C   C51       1.0  0.01498  0.17071  0.39935  1.0000
  C   C52       1.0  0.50225  0.18522  0.32195  1.0000
  C   C53       1.0  0.11825  0.50346  0.34728  1.0000
  C   C54       1.0  0.18527  0.50165  0.32261  1.0000
  C   C55       1.0  0.17084  0.48864  0.39976  1.0000
  C   C56       1.0  0.13816  0.49023  0.41299  1.0000
  C   C57       1.0  0.50370  0.38550  0.34664  1.0000
  C   C58       1.0  0.49051  0.36565  0.41256  1.0000
  C   C59       1.0  0.48876  0.33297  0.39933  1.0000
  C   C60       1.0  0.50157  0.31848  0.32201  1.0000
  H   H21       1.0  0.47765  0.31981  0.44699  1.0000
  H   H22       1.0  0.48083  0.37504  0.46922  1.0000
  H   H23       1.0  0.39827  0.43731  0.35723  1.0000
  H   H24       1.0  0.48277  0.48210  0.35962  1.0000
  H   H25       1.0  0.02099  0.02160  0.35877  1.0000
  H   H26       1.0  0.06722  0.39733  0.35608  1.0000
  H   H27       1.0  0.10818  0.43943  0.34896  1.0000
  H   H28       1.0  0.12880  0.48037  0.46945  1.0000
  H   H29       1.0  0.18403  0.47747  0.44720  1.0000
  H   H30       1.0  0.10550  0.06638  0.35796  1.0000
  H   H31       1.0  0.02281  0.12862  0.46924  1.0000
  H   H32       1.0  0.02604  0.18385  0.44713  1.0000
  H   H33       1.0  0.31980  0.02626  0.44754  1.0000
  H   H34       1.0  0.37504  0.02327  0.46965  1.0000
  N   N5        1.0  0.00233  0.23658  0.38470  1.0000
  N   N6        1.0  0.00141  0.26710  0.38472  1.0000
  N   N7        1.0  0.26715  0.00231  0.38532  1.0000
  N   N8        1.0  0.23663  0.00143  0.38526  1.0000
  C   C61       1.0  0.43579  0.97192  0.35724  1.0000
  C   C62       1.0  0.03283  0.93504  0.35676  1.0000
  C   C63       1.0  0.50031  0.58456  0.35498  1.0000
  C   C64       1.0  0.47094  0.56866  0.35648  1.0000
  C   C65       1.0  0.41905  0.55986  0.35244  1.0000
  C   C66       1.0  0.44151  0.58298  0.35590  1.0000
  C   C67       1.0  0.33838  0.98607  0.26222  1.0000
  C   C68       1.0  0.37117  0.98663  0.27137  1.0000
  C   C69       1.0  0.50008  0.61820  0.34644  1.0000
  C   C70       1.0  0.48618  0.66538  0.26116  1.0000
  C   C71       1.0  0.48665  0.63260  0.27028  1.0000
  C   C72       1.0  0.13257  0.51719  0.27144  1.0000
  C   C73       1.0  0.16536  0.51784  0.26230  1.0000
  C   C74       1.0  0.01720  0.87112  0.27055  1.0000
  C   C75       1.0  0.01771  0.83834  0.26142  1.0000
  H   H35       1.0  0.02989  0.82924  0.20860  1.0000
  H   H36       1.0  0.02768  0.88445  0.22210  1.0000
  H   H37       1.0  0.44022  0.89650  0.34969  1.0000
  H   H38       1.0  0.11919  0.52768  0.22311  1.0000
  H   H39       1.0  0.17441  0.53012  0.20961  1.0000
  H   H40       1.0  0.06356  0.60720  0.35020  1.0000
  H   H41       1.0  0.39559  0.56426  0.34865  1.0000
  H   H42       1.0  0.43655  0.60637  0.35549  1.0000
  H   H43       1.0  0.47621  0.61928  0.22172  1.0000
  H   H44       1.0  0.47406  0.67449  0.20825  1.0000
  H   H45       1.0  0.38453  0.97621  0.22285  1.0000
  H   H46       1.0  0.32929  0.97393  0.20933  1.0000
  C   C76       1.0  0.00016  0.78502  0.30960  1.0000
  C   C77       1.0  0.99959  0.76849  0.22643  1.0000
  C   C78       1.0  0.00439  0.73522  0.22643  1.0000
  C   C79       1.0  0.00373  0.71867  0.30957  1.0000
  C   C80       1.0  0.01044  0.72028  0.14323  1.0000
  C   C81       1.0  0.00698  0.73622  0.06163  1.0000
  C   C82       1.0  0.99716  0.76750  0.06160  1.0000
  C   C83       1.0  0.99362  0.78344  0.14317  1.0000
  H   H47       1.0  0.01792  0.69760  0.14044  1.0000
  H   H48       1.0  0.01070  0.72480  0.00238  1.0000
  H   H49       1.0  0.99349  0.77892  0.00234  1.0000
  H   H50       1.0  0.98613  0.80612  0.14035  1.0000
  C   C84       1.0  0.21872  0.50026  0.31012  1.0000
  C   C85       1.0  0.23527  0.49978  0.22696  1.0000
  C   C86       1.0  0.26856  0.50445  0.22706  1.0000
  C   C87       1.0  0.28507  0.50371  0.31024  1.0000
  C   C88       1.0  0.28356  0.51049  0.14393  1.0000
  C   C89       1.0  0.26762  0.50720  0.06228  1.0000
  C   C90       1.0  0.23628  0.49753  0.06211  1.0000
  C   C91       1.0  0.22031  0.49396  0.14362  1.0000
  H   H51       1.0  0.30628  0.51784  0.14124  1.0000
  H   H52       1.0  0.27908  0.51089  0.00309  1.0000
  H   H53       1.0  0.22486  0.49397  0.00279  1.0000
  H   H54       1.0  0.19761  0.48658  0.14067  1.0000
  C   C92       1.0  0.44476  0.91993  0.35354  1.0000
  C   C93       1.0  0.42164  0.94240  0.35703  1.0000
  N   N9        1.0  0.46708  0.96596  0.35879  1.0000
  C   C94       1.0  0.47390  0.93484  0.35639  1.0000
  C   C95       1.0  0.50346  0.91914  0.35525  1.0000
  N   N10       1.0  0.03859  0.96627  0.35800  1.0000
  C   C96       1.0  0.06965  0.97287  0.35606  1.0000
  C   C97       1.0  0.08472  0.94384  0.35273  1.0000
  C   C98       1.0  0.06226  0.92072  0.35630  1.0000
  C   C99       1.0  0.08461  0.00273  0.35555  1.0000
  C   C100      1.0  0.06798  0.53178  0.35734  1.0000
  N   N11       1.0  0.03668  0.53774  0.35869  1.0000
  C   C101      1.0  0.02987  0.56886  0.35636  1.0000
  C   C102      1.0  0.05901  0.58377  0.35387  1.0000
  C   C103      1.0  0.08213  0.56130  0.35749  1.0000
  N   N12       1.0  0.46518  0.53743  0.35785  1.0000
  C   C104      1.0  0.43412  0.53083  0.35598  1.0000
  C   C105      1.0  0.41916  0.00097  0.35546  1.0000
  C   C106      1.0  0.38552  0.00025  0.34730  1.0000
  C   C107      1.0  0.36565  0.51345  0.41319  1.0000
  C   C108      1.0  0.33297  0.51510  0.40001  1.0000
  C   C109      1.0  0.31851  0.00222  0.32274  1.0000
  C   C110      1.0  0.01320  0.63803  0.41251  1.0000
  C   C111      1.0  0.01498  0.67071  0.39935  1.0000
  C   C112      1.0  0.50225  0.68522  0.32195  1.0000
  C   C113      1.0  0.11825  0.00346  0.34728  1.0000
  C   C114      1.0  0.18527  0.00165  0.32261  1.0000
  C   C115      1.0  0.17084  0.98865  0.39976  1.0000
  C   C116      1.0  0.13816  0.99023  0.41299  1.0000
  C   C117      1.0  0.50370  0.88550  0.34664  1.0000
  C   C118      1.0  0.49051  0.86565  0.41256  1.0000
  C   C119      1.0  0.48876  0.83297  0.39933  1.0000
  C   C120      1.0  0.50157  0.81848  0.32201  1.0000
  H   H55       1.0  0.47765  0.81981  0.44699  1.0000
  H   H56       1.0  0.48083  0.87504  0.46922  1.0000
  H   H57       1.0  0.39827  0.93731  0.35723  1.0000
  H   H58       1.0  0.48277  0.98210  0.35962  1.0000
  H   H59       1.0  0.02099  0.52160  0.35877  1.0000
  H   H60       1.0  0.06722  0.89733  0.35608  1.0000
  H   H61       1.0  0.10818  0.93943  0.34896  1.0000
  H   H62       1.0  0.12880  0.98037  0.46945  1.0000
  H   H63       1.0  0.18403  0.97747  0.44720  1.0000
  H   H64       1.0  0.10550  0.56638  0.35796  1.0000
  H   H65       1.0  0.02281  0.62862  0.46924  1.0000
  H   H66       1.0  0.02604  0.68385  0.44713  1.0000
  H   H67       1.0  0.31980  0.52626  0.44754  1.0000
  H   H68       1.0  0.37504  0.52327  0.46965  1.0000
  N   N13       1.0  0.00233  0.73658  0.38470  1.0000
  N   N14       1.0  0.00141  0.76710  0.38472  1.0000
  N   N15       1.0  0.26715  0.50231  0.38532  1.0000
  N   N16       1.0  0.23663  0.50143  0.38526  1.0000
  C   C121      1.0  0.93579  0.47192  0.35724  1.0000
  C   C122      1.0  0.53283  0.43504  0.35676  1.0000
  C   C123      1.0  0.00031  0.08456  0.35498  1.0000
  C   C124      1.0  0.97094  0.06866  0.35648  1.0000
  C   C125      1.0  0.91905  0.05986  0.35244  1.0000
  C   C126      1.0  0.94151  0.08298  0.35590  1.0000
  C   C127      1.0  0.83838  0.48607  0.26222  1.0000
  C   C128      1.0  0.87116  0.48662  0.27137  1.0000
  C   C129      1.0  0.00007  0.11820  0.34644  1.0000
  C   C130      1.0  0.98618  0.16538  0.26116  1.0000
  C   C131      1.0  0.98665  0.13260  0.27028  1.0000
  C   C132      1.0  0.63257  0.01719  0.27144  1.0000
  C   C133      1.0  0.66536  0.01784  0.26230  1.0000
  C   C134      1.0  0.51720  0.37112  0.27055  1.0000
  C   C135      1.0  0.51771  0.33833  0.26142  1.0000
  H   H69       1.0  0.52989  0.32924  0.20860  1.0000
  H   H70       1.0  0.52768  0.38445  0.22210  1.0000
  H   H71       1.0  0.94022  0.39650  0.34969  1.0000
  H   H72       1.0  0.61919  0.02768  0.22311  1.0000
  H   H73       1.0  0.67441  0.03012  0.20961  1.0000
  H   H74       1.0  0.56356  0.10720  0.35020  1.0000
  H   H75       1.0  0.89559  0.06426  0.34865  1.0000
  H   H76       1.0  0.93655  0.10637  0.35549  1.0000
  H   H77       1.0  0.97621  0.11928  0.22172  1.0000
  H   H78       1.0  0.97406  0.17449  0.20825  1.0000
  H   H79       1.0  0.88452  0.47621  0.22285  1.0000
  H   H80       1.0  0.82929  0.47392  0.20933  1.0000
  C   C136      1.0  0.50016  0.28502  0.30960  1.0000
  C   C137      1.0  0.49959  0.26849  0.22643  1.0000
  C   C138      1.0  0.50439  0.23522  0.22643  1.0000
  C   C139      1.0  0.50372  0.21867  0.30957  1.0000
  C   C140      1.0  0.51044  0.22028  0.14323  1.0000
  C   C141      1.0  0.50698  0.23622  0.06163  1.0000
  C   C142      1.0  0.49716  0.26750  0.06160  1.0000
  C   C143      1.0  0.49362  0.28344  0.14317  1.0000
  H   H81       1.0  0.51792  0.19760  0.14044  1.0000
  H   H82       1.0  0.51070  0.22480  0.00238  1.0000
  H   H83       1.0  0.49349  0.27892  0.00234  1.0000
  H   H84       1.0  0.48613  0.30612  0.14035  1.0000
  C   C144      1.0  0.71872  0.00026  0.31012  1.0000
  C   C145      1.0  0.73527  0.99977  0.22696  1.0000
  C   C146      1.0  0.76856  0.00445  0.22706  1.0000
  C   C147      1.0  0.78507  0.00371  0.31024  1.0000
  C   C148      1.0  0.78356  0.01049  0.14393  1.0000
  C   C149      1.0  0.76762  0.00720  0.06228  1.0000
  C   C150      1.0  0.73628  0.99753  0.06211  1.0000
  C   C151      1.0  0.72031  0.99396  0.14362  1.0000
  H   H85       1.0  0.80628  0.01784  0.14124  1.0000
  H   H86       1.0  0.77908  0.01089  0.00309  1.0000
  H   H87       1.0  0.72486  0.99397  0.00279  1.0000
  H   H88       1.0  0.69761  0.98658  0.14067  1.0000
  C   C152      1.0  0.94476  0.41993  0.35354  1.0000
  C   C153      1.0  0.92164  0.44240  0.35703  1.0000
  N   N17       1.0  0.96708  0.46596  0.35879  1.0000
  C   C154      1.0  0.97390  0.43484  0.35639  1.0000
  C   C155      1.0  0.00346  0.41914  0.35525  1.0000
  N   N18       1.0  0.53859  0.46627  0.35800  1.0000
  C   C156      1.0  0.56965  0.47287  0.35606  1.0000
  C   C157      1.0  0.58472  0.44384  0.35273  1.0000
  C   C158      1.0  0.56225  0.42072  0.35630  1.0000
  C   C159      1.0  0.58461  0.50273  0.35555  1.0000
  C   C160      1.0  0.56798  0.03178  0.35734  1.0000
  N   N19       1.0  0.53668  0.03774  0.35869  1.0000
  C   C161      1.0  0.52987  0.06886  0.35636  1.0000
  C   C162      1.0  0.55901  0.08378  0.35387  1.0000
  C   C163      1.0  0.58213  0.06130  0.35749  1.0000
  N   N20       1.0  0.96518  0.03743  0.35785  1.0000
  C   C164      1.0  0.93412  0.03083  0.35598  1.0000
  C   C165      1.0  0.91916  0.50097  0.35546  1.0000
  C   C166      1.0  0.88552  0.50025  0.34730  1.0000
  C   C167      1.0  0.86565  0.01345  0.41319  1.0000
  C   C168      1.0  0.83297  0.01510  0.40001  1.0000
  C   C169      1.0  0.81852  0.50222  0.32274  1.0000
  C   C170      1.0  0.51320  0.13803  0.41251  1.0000
  C   C171      1.0  0.51498  0.17071  0.39935  1.0000
  C   C172      1.0  0.00224  0.18522  0.32195  1.0000
  C   C173      1.0  0.61825  0.50346  0.34728  1.0000
  C   C174      1.0  0.68527  0.50165  0.32261  1.0000
  C   C175      1.0  0.67084  0.48864  0.39976  1.0000
  C   C176      1.0  0.63816  0.49023  0.41299  1.0000
  C   C177      1.0  0.00370  0.38550  0.34664  1.0000
  C   C178      1.0  0.99051  0.36565  0.41256  1.0000
  C   C179      1.0  0.98876  0.33297  0.39933  1.0000
  C   C180      1.0  0.00157  0.31848  0.32201  1.0000
  H   H89       1.0  0.97765  0.31981  0.44699  1.0000
  H   H90       1.0  0.98083  0.37504  0.46922  1.0000
  H   H91       1.0  0.89827  0.43731  0.35723  1.0000
  H   H92       1.0  0.98277  0.48210  0.35962  1.0000
  H   H93       1.0  0.52099  0.02160  0.35877  1.0000
  H   H94       1.0  0.56722  0.39733  0.35608  1.0000
  H   H95       1.0  0.60818  0.43943  0.34896  1.0000
  H   H96       1.0  0.62880  0.48037  0.46945  1.0000
  H   H97       1.0  0.68403  0.47747  0.44720  1.0000
  H   H98       1.0  0.60550  0.06638  0.35796  1.0000
  H   H99       1.0  0.52281  0.12862  0.46924  1.0000
  H   H100      1.0  0.52604  0.18385  0.44713  1.0000
  H   H101      1.0  0.81980  0.02626  0.44754  1.0000
  H   H102      1.0  0.87504  0.02327  0.46965  1.0000
  N   N21       1.0  0.50233  0.23658  0.38470  1.0000
  N   N22       1.0  0.50141  0.26710  0.38472  1.0000
  N   N23       1.0  0.76715  0.00231  0.38532  1.0000
  N   N24       1.0  0.73663  0.00143  0.38526  1.0000
  C   C181      1.0  0.93579  0.97192  0.35724  1.0000
  C   C182      1.0  0.53283  0.93504  0.35676  1.0000
  C   C183      1.0  0.00031  0.58456  0.35498  1.0000
  C   C184      1.0  0.97094  0.56866  0.35648  1.0000
  C   C185      1.0  0.91905  0.55986  0.35244  1.0000
  C   C186      1.0  0.94151  0.58298  0.35590  1.0000
  C   C187      1.0  0.83838  0.98607  0.26222  1.0000
  C   C188      1.0  0.87116  0.98663  0.27137  1.0000
  C   C189      1.0  0.00007  0.61820  0.34644  1.0000
  C   C190      1.0  0.98618  0.66538  0.26116  1.0000
  C   C191      1.0  0.98665  0.63260  0.27028  1.0000
  C   C192      1.0  0.63257  0.51719  0.27144  1.0000
  C   C193      1.0  0.66536  0.51784  0.26230  1.0000
  C   C194      1.0  0.51720  0.87112  0.27055  1.0000
  C   C195      1.0  0.51771  0.83834  0.26142  1.0000
  H   H103      1.0  0.52989  0.82924  0.20860  1.0000
  H   H104      1.0  0.52768  0.88445  0.22210  1.0000
  H   H105      1.0  0.94022  0.89650  0.34969  1.0000
  H   H106      1.0  0.61919  0.52768  0.22311  1.0000
  H   H107      1.0  0.67441  0.53012  0.20961  1.0000
  H   H108      1.0  0.56356  0.60720  0.35020  1.0000
  H   H109      1.0  0.89559  0.56426  0.34865  1.0000
  H   H110      1.0  0.93655  0.60637  0.35549  1.0000
  H   H111      1.0  0.97621  0.61928  0.22172  1.0000
  H   H112      1.0  0.97406  0.67449  0.20825  1.0000
  H   H113      1.0  0.88452  0.97621  0.22285  1.0000
  H   H114      1.0  0.82929  0.97393  0.20933  1.0000
  C   C196      1.0  0.50016  0.78502  0.30960  1.0000
  C   C197      1.0  0.49959  0.76849  0.22643  1.0000
  C   C198      1.0  0.50439  0.73522  0.22643  1.0000
  C   C199      1.0  0.50372  0.71867  0.30957  1.0000
  C   C200      1.0  0.51044  0.72028  0.14323  1.0000
  C   C201      1.0  0.50698  0.73622  0.06163  1.0000
  C   C202      1.0  0.49716  0.76750  0.06160  1.0000
  C   C203      1.0  0.49362  0.78344  0.14317  1.0000
  H   H115      1.0  0.51792  0.69760  0.14044  1.0000
  H   H116      1.0  0.51070  0.72480  0.00238  1.0000
  H   H117      1.0  0.49349  0.77892  0.00234  1.0000
  H   H118      1.0  0.48613  0.80612  0.14035  1.0000
  C   C204      1.0  0.71872  0.50026  0.31012  1.0000
  C   C205      1.0  0.73527  0.49978  0.22696  1.0000
  C   C206      1.0  0.76856  0.50445  0.22706  1.0000
  C   C207      1.0  0.78507  0.50371  0.31024  1.0000
  C   C208      1.0  0.78356  0.51049  0.14393  1.0000
  C   C209      1.0  0.76762  0.50720  0.06228  1.0000
  C   C210      1.0  0.73628  0.49753  0.06211  1.0000
  C   C211      1.0  0.72031  0.49396  0.14362  1.0000
  H   H119      1.0  0.80628  0.51784  0.14124  1.0000
  H   H120      1.0  0.77908  0.51089  0.00309  1.0000
  H   H121      1.0  0.72486  0.49397  0.00279  1.0000
  H   H122      1.0  0.69761  0.48658  0.14067  1.0000
  C   C212      1.0  0.94476  0.91993  0.35354  1.0000
  C   C213      1.0  0.92164  0.94240  0.35703  1.0000
  N   N25       1.0  0.96708  0.96596  0.35879  1.0000
  C   C214      1.0  0.97390  0.93484  0.35639  1.0000
  C   C215      1.0  0.00346  0.91914  0.35525  1.0000
  N   N26       1.0  0.53859  0.96627  0.35800  1.0000
  C   C216      1.0  0.56965  0.97287  0.35606  1.0000
  C   C217      1.0  0.58472  0.94384  0.35273  1.0000
  C   C218      1.0  0.56225  0.92072  0.35630  1.0000
  C   C219      1.0  0.58461  0.00273  0.35555  1.0000
  C   C220      1.0  0.56798  0.53178  0.35734  1.0000
  N   N27       1.0  0.53668  0.53774  0.35869  1.0000
  C   C221      1.0  0.52987  0.56886  0.35636  1.0000
  C   C222      1.0  0.55901  0.58377  0.35387  1.0000
  C   C223      1.0  0.58213  0.56130  0.35749  1.0000
  N   N28       1.0  0.96518  0.53743  0.35785  1.0000
  C   C224      1.0  0.93412  0.53083  0.35598  1.0000
  C   C225      1.0  0.91916  0.00097  0.35546  1.0000
  C   C226      1.0  0.88552  0.00025  0.34730  1.0000
  C   C227      1.0  0.86565  0.51345  0.41319  1.0000
  C   C228      1.0  0.83297  0.51510  0.40001  1.0000
  C   C229      1.0  0.81852  0.00222  0.32274  1.0000
  C   C230      1.0  0.51320  0.63803  0.41251  1.0000
  C   C231      1.0  0.51498  0.67071  0.39935  1.0000
  C   C232      1.0  0.00224  0.68522  0.32195  1.0000
  C   C233      1.0  0.61825  0.00346  0.34728  1.0000
  C   C234      1.0  0.68527  0.00165  0.32261  1.0000
  C   C235      1.0  0.67084  0.98865  0.39976  1.0000
  C   C236      1.0  0.63816  0.99023  0.41299  1.0000
  C   C237      1.0  0.00370  0.88550  0.34664  1.0000
  C   C238      1.0  0.99051  0.86565  0.41256  1.0000
  C   C239      1.0  0.98876  0.83297  0.39933  1.0000
  C   C240      1.0  0.00157  0.81848  0.32201  1.0000
  H   H123      1.0  0.97765  0.81981  0.44699  1.0000
  H   H124      1.0  0.98083  0.87504  0.46922  1.0000
  H   H125      1.0  0.89827  0.93731  0.35723  1.0000
  H   H126      1.0  0.98277  0.98210  0.35962  1.0000
  H   H127      1.0  0.52099  0.52160  0.35877  1.0000
  H   H128      1.0  0.56722  0.89733  0.35608  1.0000
  H   H129      1.0  0.60818  0.93943  0.34896  1.0000
  H   H130      1.0  0.62880  0.98037  0.46945  1.0000
  H   H131      1.0  0.68403  0.97747  0.44720  1.0000
  H   H132      1.0  0.60550  0.56638  0.35796  1.0000
  H   H133      1.0  0.52281  0.62862  0.46924  1.0000
  H   H134      1.0  0.52604  0.68385  0.44713  1.0000
  H   H135      1.0  0.81980  0.52626  0.44754  1.0000
  H   H136      1.0  0.87504  0.52327  0.46965  1.0000
  N   N29       1.0  0.50233  0.73658  0.38470  1.0000
  N   N30       1.0  0.50141  0.76710  0.38472  1.0000
  N   N31       1.0  0.76715  0.50231  0.38532  1.0000
  N   N32       1.0  0.73663  0.50143  0.38526  1.0000
