data_image0
_chemical_formula_structural       C7H2NHC3H2NHC3H2NHC5H3C2O3C5H3C2O3C3HOHNHC3HOHNHC3HOHNHC7H2NHC3H2NHC3H2NHC5H3C2O3C5H3C2O3C3HOHNHC3HOHNHC3HOHNHC7H2NHC3H2NHC3H2NHC5H3C2O3C5H3C2O3C3HOHNHC3HOHNHC3HOHNHC7H2NHC3H2NHC3H2NHC5H3C2O3C5H3C2O3C3HOHNHC3HOHNHC3HOHNH
_chemical_formula_sum              "C144 H96 N24 O36"
_cell_length_a       43.8518
_cell_length_b       43.8517
_cell_length_c       15.0562
_cell_angle_alpha    90
_cell_angle_beta     90
_cell_angle_gamma    120

_space_group_name_H-M_alt    "P 1"
_space_group_IT_number       1

loop_
  _space_group_symop_operation_xyz
  'x, y, z'

loop_
  _atom_site_type_symbol
  _atom_site_label
  _atom_site_symmetry_multiplicity
  _atom_site_fract_x
  _atom_site_fract_y
  _atom_site_fract_z
  _atom_site_occupancy
  C   C1        1.0  0.18991  0.32074  0.24122  1.0000
  C   C2        1.0  0.21579  0.31064  0.25362  1.0000
  C   C3        1.0  0.30345  0.17414  0.41466  1.0000
  C   C4        1.0  0.27650  0.18292  0.40427  1.0000
  C   C5        1.0  0.22761  0.26290  0.28922  1.0000
  C   C6        1.0  0.22173  0.22953  0.26191  1.0000
  C   C7        1.0  0.23909  0.21365  0.30272  1.0000
  H   H1        1.0  0.23571  0.19090  0.27508  1.0000
  H   H2        1.0  0.20550  0.21693  0.20916  1.0000
  N   N1        1.0  0.20924  0.27679  0.24918  1.0000
  H   H3        1.0  0.18952  0.26082  0.21181  1.0000
  C   C8        1.0  0.23242  0.46377  0.28926  1.0000
  C   C9        1.0  0.26580  0.49125  0.26196  1.0000
  C   C10       1.0  0.28172  0.02448  0.30284  1.0000
  H   H4        1.0  0.30442  0.04385  0.27507  1.0000
  H   H5        1.0  0.27838  0.48762  0.20918  1.0000
  N   N2        1.0  0.21853  0.43150  0.24923  1.0000
  H   H6        1.0  0.23449  0.42777  0.21181  1.0000
  C   C11       1.0  0.03155  0.26772  0.28925  1.0000
  C   C12       1.0  0.00408  0.27364  0.26204  1.0000
  C   C13       1.0  0.47084  0.25631  0.30292  1.0000
  H   H7        1.0  0.45147  0.25964  0.27516  1.0000
  H   H8        1.0  0.00768  0.28982  0.20919  1.0000
  N   N3        1.0  0.06380  0.28608  0.24917  1.0000
  H   H9        1.0  0.06754  0.30578  0.21175  1.0000
  C   C14       1.0  0.17456  0.36822  0.24130  1.0000
  C   C15       1.0  0.13855  0.34186  0.24075  1.0000
  C   C16       1.0  0.12709  0.30540  0.24122  1.0000
  C   C17       1.0  0.15344  0.29575  0.24072  1.0000
  C   C18       1.0  0.19957  0.35677  0.24063  1.0000
  H   H10       1.0  0.14570  0.26968  0.24651  1.0000
  H   H11       1.0  0.22563  0.37507  0.24660  1.0000
  H   H12       1.0  0.12023  0.34961  0.24655  1.0000
  C   C19       1.0  0.18468  0.40421  0.25369  1.0000
  C   C20       1.0  0.09109  0.27952  0.25361  1.0000
  O   O1        1.0  0.24969  0.33628  0.26709  1.0000
  O   O2        1.0  0.15904  0.41246  0.26733  1.0000
  O   O3        1.0  0.08284  0.24562  0.26714  1.0000
  C   C21       1.0  0.32120  0.12839  0.41453  1.0000
  C   C22       1.0  0.35682  0.15573  0.41480  1.0000
  C   C23       1.0  0.36695  0.19188  0.41466  1.0000
  C   C24       1.0  0.33961  0.20016  0.41482  1.0000
  C   C25       1.0  0.29517  0.13852  0.41478  1.0000
  H   H13       1.0  0.34641  0.22598  0.40926  1.0000
  H   H14       1.0  0.26935  0.11950  0.40916  1.0000
  H   H15       1.0  0.37584  0.14893  0.40911  1.0000
  C   C26       1.0  0.31241  0.09266  0.40413  1.0000
  C   C27       1.0  0.40268  0.21883  0.40424  1.0000
  O   O4        1.0  0.24296  0.15645  0.39103  1.0000
  O   O5        1.0  0.33888  0.08559  0.39105  1.0000
  O   O6        1.0  0.40975  0.25238  0.39118  1.0000
  C   C28       1.0  0.26243  0.22977  0.37507  1.0000
  C   C29       1.0  0.26763  0.26285  0.40436  1.0000
  C   C30       1.0  0.25063  0.27891  0.36207  1.0000
  H   H16       1.0  0.25392  0.30176  0.38881  1.0000
  O   O7        1.0  0.28896  0.28026  0.47441  1.0000
  H   H17       1.0  0.27489  0.26961  0.52826  1.0000
  N   N4        1.0  0.28172  0.21622  0.41190  1.0000
  H   H18       1.0  0.30156  0.23221  0.44869  1.0000
  C   C31       1.0  0.26558  0.03172  0.37513  1.0000
  C   C32       1.0  0.23251  0.00384  0.40447  1.0000
  C   C33       1.0  0.21646  0.47077  0.36223  1.0000
  H   H19       1.0  0.19359  0.45122  0.38893  1.0000
  O   O8        1.0  0.21510  0.00777  0.47450  1.0000
  H   H20       1.0  0.22577  0.00438  0.52836  1.0000
  N   N5        1.0  0.27912  0.06457  0.41186  1.0000
  H   H21       1.0  0.26312  0.06842  0.44861  1.0000
  C   C34       1.0  0.46361  0.23294  0.37520  1.0000
  C   C35       1.0  0.49150  0.22774  0.40449  1.0000
  C   C36       1.0  0.02457  0.24476  0.36223  1.0000
  H   H22       1.0  0.04411  0.24141  0.38884  1.0000
  O   O9        1.0  0.48757  0.20638  0.47449  1.0000
  H   H23       1.0  0.49097  0.22043  0.52837  1.0000
  N   N6        1.0  0.43077  0.21363  0.41195  1.0000
  H   H24       1.0  0.42691  0.19377  0.44869  1.0000
  C   C37       1.0  0.18991  0.82074  0.24122  1.0000
  C   C38       1.0  0.21579  0.81064  0.25362  1.0000
  C   C39       1.0  0.30345  0.67414  0.41466  1.0000
  C   C40       1.0  0.27650  0.68292  0.40427  1.0000
  C   C41       1.0  0.22761  0.76290  0.28922  1.0000
  C   C42       1.0  0.22173  0.72953  0.26191  1.0000
  C   C43       1.0  0.23909  0.71364  0.30272  1.0000
  H   H25       1.0  0.23571  0.69090  0.27508  1.0000
  H   H26       1.0  0.20550  0.71693  0.20916  1.0000
  N   N7        1.0  0.20924  0.77679  0.24918  1.0000
  H   H27       1.0  0.18952  0.76082  0.21181  1.0000
  C   C44       1.0  0.23242  0.96377  0.28926  1.0000
  C   C45       1.0  0.26580  0.99125  0.26196  1.0000
  C   C46       1.0  0.28172  0.52448  0.30284  1.0000
  H   H28       1.0  0.30442  0.54385  0.27507  1.0000
  H   H29       1.0  0.27838  0.98762  0.20918  1.0000
  N   N8        1.0  0.21853  0.93150  0.24923  1.0000
  H   H30       1.0  0.23449  0.92777  0.21181  1.0000
  C   C47       1.0  0.03155  0.76772  0.28925  1.0000
  C   C48       1.0  0.00408  0.77364  0.26204  1.0000
  C   C49       1.0  0.47084  0.75631  0.30292  1.0000
  H   H31       1.0  0.45147  0.75965  0.27516  1.0000
  H   H32       1.0  0.00768  0.78982  0.20919  1.0000
  N   N9        1.0  0.06380  0.78608  0.24917  1.0000
  H   H33       1.0  0.06754  0.80578  0.21175  1.0000
  C   C50       1.0  0.17456  0.86822  0.24130  1.0000
  C   C51       1.0  0.13855  0.84186  0.24075  1.0000
  C   C52       1.0  0.12709  0.80540  0.24122  1.0000
  C   C53       1.0  0.15345  0.79575  0.24072  1.0000
  C   C54       1.0  0.19957  0.85677  0.24063  1.0000
  H   H34       1.0  0.14570  0.76968  0.24651  1.0000
  H   H35       1.0  0.22563  0.87507  0.24660  1.0000
  H   H36       1.0  0.12024  0.84961  0.24655  1.0000
  C   C55       1.0  0.18468  0.90421  0.25369  1.0000
  C   C56       1.0  0.09109  0.77951  0.25361  1.0000
  O   O10       1.0  0.24969  0.83628  0.26709  1.0000
  O   O11       1.0  0.15904  0.91246  0.26733  1.0000
  O   O12       1.0  0.08284  0.74562  0.26714  1.0000
  C   C57       1.0  0.32120  0.62839  0.41453  1.0000
  C   C58       1.0  0.35682  0.65573  0.41480  1.0000
  C   C59       1.0  0.36695  0.69188  0.41466  1.0000
  C   C60       1.0  0.33961  0.70015  0.41482  1.0000
  C   C61       1.0  0.29517  0.63852  0.41478  1.0000
  H   H37       1.0  0.34641  0.72598  0.40926  1.0000
  H   H38       1.0  0.26935  0.61950  0.40916  1.0000
  H   H39       1.0  0.37584  0.64893  0.40911  1.0000
  C   C62       1.0  0.31241  0.59266  0.40413  1.0000
  C   C63       1.0  0.40268  0.71883  0.40424  1.0000
  O   O13       1.0  0.24297  0.65645  0.39103  1.0000
  O   O14       1.0  0.33888  0.58559  0.39105  1.0000
  O   O15       1.0  0.40975  0.75237  0.39118  1.0000
  C   C64       1.0  0.26243  0.72977  0.37507  1.0000
  C   C65       1.0  0.26763  0.76285  0.40436  1.0000
  C   C66       1.0  0.25063  0.77891  0.36207  1.0000
  H   H40       1.0  0.25392  0.80176  0.38881  1.0000
  O   O16       1.0  0.28897  0.78026  0.47441  1.0000
  H   H41       1.0  0.27489  0.76961  0.52826  1.0000
  N   N10       1.0  0.28172  0.71622  0.41190  1.0000
  H   H42       1.0  0.30156  0.73221  0.44869  1.0000
  C   C67       1.0  0.26558  0.53172  0.37513  1.0000
  C   C68       1.0  0.23251  0.50384  0.40447  1.0000
  C   C69       1.0  0.21646  0.97077  0.36223  1.0000
  H   H43       1.0  0.19359  0.95122  0.38893  1.0000
  O   O17       1.0  0.21510  0.50777  0.47450  1.0000
  H   H44       1.0  0.22577  0.50438  0.52836  1.0000
  N   N11       1.0  0.27912  0.56457  0.41186  1.0000
  H   H45       1.0  0.26312  0.56842  0.44861  1.0000
  C   C70       1.0  0.46361  0.73294  0.37520  1.0000
  C   C71       1.0  0.49150  0.72774  0.40449  1.0000
  C   C72       1.0  0.02457  0.74476  0.36223  1.0000
  H   H46       1.0  0.04411  0.74141  0.38884  1.0000
  O   O18       1.0  0.48757  0.70638  0.47449  1.0000
  H   H47       1.0  0.49097  0.72043  0.52837  1.0000
  N   N12       1.0  0.43077  0.71363  0.41195  1.0000
  H   H48       1.0  0.42692  0.69378  0.44869  1.0000
  C   C73       1.0  0.68991  0.32074  0.24122  1.0000
  C   C74       1.0  0.71579  0.31064  0.25362  1.0000
  C   C75       1.0  0.80345  0.17414  0.41466  1.0000
  C   C76       1.0  0.77650  0.18292  0.40427  1.0000
  C   C77       1.0  0.72761  0.26290  0.28922  1.0000
  C   C78       1.0  0.72173  0.22953  0.26191  1.0000
  C   C79       1.0  0.73909  0.21365  0.30272  1.0000
  H   H49       1.0  0.73571  0.19090  0.27508  1.0000
  H   H50       1.0  0.70550  0.21693  0.20916  1.0000
  N   N13       1.0  0.70924  0.27679  0.24918  1.0000
  H   H51       1.0  0.68953  0.26082  0.21181  1.0000
  C   C80       1.0  0.73242  0.46377  0.28926  1.0000
  C   C81       1.0  0.76580  0.49125  0.26196  1.0000
  C   C82       1.0  0.78172  0.02448  0.30284  1.0000
  H   H52       1.0  0.80442  0.04385  0.27507  1.0000
  H   H53       1.0  0.77838  0.48762  0.20918  1.0000
  N   N14       1.0  0.71853  0.43150  0.24923  1.0000
  H   H54       1.0  0.73449  0.42777  0.21181  1.0000
  C   C83       1.0  0.53155  0.26772  0.28925  1.0000
  C   C84       1.0  0.50408  0.27364  0.26204  1.0000
  C   C85       1.0  0.97084  0.25631  0.30292  1.0000
  H   H55       1.0  0.95147  0.25964  0.27516  1.0000
  H   H56       1.0  0.50768  0.28982  0.20919  1.0000
  N   N15       1.0  0.56380  0.28608  0.24917  1.0000
  H   H57       1.0  0.56754  0.30578  0.21175  1.0000
  C   C86       1.0  0.67456  0.36822  0.24130  1.0000
  C   C87       1.0  0.63855  0.34186  0.24075  1.0000
  C   C88       1.0  0.62708  0.30540  0.24122  1.0000
  C   C89       1.0  0.65345  0.29575  0.24072  1.0000
  C   C90       1.0  0.69957  0.35677  0.24063  1.0000
  H   H58       1.0  0.64570  0.26968  0.24651  1.0000
  H   H59       1.0  0.72563  0.37507  0.24660  1.0000
  H   H60       1.0  0.62023  0.34961  0.24655  1.0000
  C   C91       1.0  0.68468  0.40421  0.25369  1.0000
  C   C92       1.0  0.59109  0.27952  0.25361  1.0000
  O   O19       1.0  0.74969  0.33628  0.26709  1.0000
  O   O20       1.0  0.65904  0.41246  0.26733  1.0000
  O   O21       1.0  0.58284  0.24562  0.26714  1.0000
  C   C93       1.0  0.82120  0.12839  0.41453  1.0000
  C   C94       1.0  0.85682  0.15573  0.41480  1.0000
  C   C95       1.0  0.86695  0.19188  0.41466  1.0000
  C   C96       1.0  0.83961  0.20016  0.41482  1.0000
  C   C97       1.0  0.79517  0.13852  0.41478  1.0000
  H   H61       1.0  0.84641  0.22598  0.40926  1.0000
  H   H62       1.0  0.76935  0.11950  0.40916  1.0000
  H   H63       1.0  0.87584  0.14893  0.40911  1.0000
  C   C98       1.0  0.81241  0.09266  0.40413  1.0000
  C   C99       1.0  0.90268  0.21883  0.40424  1.0000
  O   O22       1.0  0.74296  0.15645  0.39103  1.0000
  O   O23       1.0  0.83888  0.08559  0.39105  1.0000
  O   O24       1.0  0.90975  0.25238  0.39118  1.0000
  C   C100      1.0  0.76243  0.22977  0.37507  1.0000
  C   C101      1.0  0.76763  0.26285  0.40436  1.0000
  C   C102      1.0  0.75063  0.27891  0.36207  1.0000
  H   H64       1.0  0.75392  0.30176  0.38881  1.0000
  O   O25       1.0  0.78896  0.28026  0.47441  1.0000
  H   H65       1.0  0.77489  0.26961  0.52826  1.0000
  N   N16       1.0  0.78172  0.21622  0.41190  1.0000
  H   H66       1.0  0.80156  0.23221  0.44869  1.0000
  C   C103      1.0  0.76558  0.03172  0.37513  1.0000
  C   C104      1.0  0.73251  0.00384  0.40447  1.0000
  C   C105      1.0  0.71646  0.47077  0.36223  1.0000
  H   H67       1.0  0.69359  0.45122  0.38893  1.0000
  O   O26       1.0  0.71510  0.00777  0.47450  1.0000
  H   H68       1.0  0.72577  0.00438  0.52836  1.0000
  N   N17       1.0  0.77912  0.06457  0.41186  1.0000
  H   H69       1.0  0.76312  0.06842  0.44861  1.0000
  C   C106      1.0  0.96361  0.23294  0.37520  1.0000
  C   C107      1.0  0.99149  0.22774  0.40449  1.0000
  C   C108      1.0  0.52456  0.24476  0.36223  1.0000
  H   H70       1.0  0.54411  0.24141  0.38884  1.0000
  O   O27       1.0  0.98757  0.20638  0.47449  1.0000
  H   H71       1.0  0.99097  0.22043  0.52837  1.0000
  N   N18       1.0  0.93077  0.21363  0.41195  1.0000
  H   H72       1.0  0.92692  0.19377  0.44869  1.0000
  C   C109      1.0  0.68991  0.82074  0.24122  1.0000
  C   C110      1.0  0.71579  0.81064  0.25362  1.0000
  C   C111      1.0  0.80345  0.67414  0.41466  1.0000
  C   C112      1.0  0.77650  0.68292  0.40427  1.0000
  C   C113      1.0  0.72761  0.76290  0.28922  1.0000
  C   C114      1.0  0.72173  0.72953  0.26191  1.0000
  C   C115      1.0  0.73909  0.71364  0.30272  1.0000
  H   H73       1.0  0.73571  0.69090  0.27508  1.0000
  H   H74       1.0  0.70550  0.71693  0.20916  1.0000
  N   N19       1.0  0.70924  0.77679  0.24918  1.0000
  H   H75       1.0  0.68952  0.76082  0.21181  1.0000
  C   C116      1.0  0.73242  0.96377  0.28926  1.0000
  C   C117      1.0  0.76580  0.99125  0.26196  1.0000
  C   C118      1.0  0.78172  0.52448  0.30284  1.0000
  H   H76       1.0  0.80442  0.54385  0.27507  1.0000
  H   H77       1.0  0.77838  0.98762  0.20918  1.0000
  N   N20       1.0  0.71853  0.93150  0.24923  1.0000
  H   H78       1.0  0.73449  0.92777  0.21181  1.0000
  C   C119      1.0  0.53155  0.76772  0.28925  1.0000
  C   C120      1.0  0.50408  0.77364  0.26204  1.0000
  C   C121      1.0  0.97084  0.75631  0.30292  1.0000
  H   H79       1.0  0.95147  0.75965  0.27516  1.0000
  H   H80       1.0  0.50768  0.78982  0.20919  1.0000
  N   N21       1.0  0.56380  0.78608  0.24917  1.0000
  H   H81       1.0  0.56754  0.80578  0.21175  1.0000
  C   C122      1.0  0.67456  0.86822  0.24130  1.0000
  C   C123      1.0  0.63855  0.84186  0.24075  1.0000
  C   C124      1.0  0.62709  0.80540  0.24122  1.0000
  C   C125      1.0  0.65345  0.79575  0.24072  1.0000
  C   C126      1.0  0.69957  0.85677  0.24063  1.0000
  H   H82       1.0  0.64570  0.76968  0.24651  1.0000
  H   H83       1.0  0.72563  0.87507  0.24660  1.0000
  H   H84       1.0  0.62023  0.84961  0.24655  1.0000
  C   C127      1.0  0.68468  0.90421  0.25369  1.0000
  C   C128      1.0  0.59109  0.77951  0.25361  1.0000
  O   O28       1.0  0.74969  0.83628  0.26709  1.0000
  O   O29       1.0  0.65904  0.91246  0.26733  1.0000
  O   O30       1.0  0.58284  0.74562  0.26714  1.0000
  C   C129      1.0  0.82120  0.62839  0.41453  1.0000
  C   C130      1.0  0.85681  0.65573  0.41480  1.0000
  C   C131      1.0  0.86695  0.69188  0.41466  1.0000
  C   C132      1.0  0.83961  0.70015  0.41482  1.0000
  C   C133      1.0  0.79517  0.63852  0.41478  1.0000
  H   H85       1.0  0.84641  0.72598  0.40926  1.0000
  H   H86       1.0  0.76935  0.61950  0.40916  1.0000
  H   H87       1.0  0.87584  0.64893  0.40911  1.0000
  C   C134      1.0  0.81241  0.59266  0.40413  1.0000
  C   C135      1.0  0.90268  0.71883  0.40424  1.0000
  O   O31       1.0  0.74297  0.65645  0.39103  1.0000
  O   O32       1.0  0.83888  0.58559  0.39105  1.0000
  O   O33       1.0  0.90975  0.75237  0.39118  1.0000
  C   C136      1.0  0.76243  0.72977  0.37507  1.0000
  C   C137      1.0  0.76763  0.76285  0.40436  1.0000
  C   C138      1.0  0.75063  0.77891  0.36207  1.0000
  H   H88       1.0  0.75392  0.80176  0.38881  1.0000
  O   O34       1.0  0.78897  0.78026  0.47441  1.0000
  H   H89       1.0  0.77489  0.76961  0.52826  1.0000
  N   N22       1.0  0.78172  0.71622  0.41190  1.0000
  H   H90       1.0  0.80156  0.73221  0.44869  1.0000
  C   C139      1.0  0.76558  0.53172  0.37513  1.0000
  C   C140      1.0  0.73251  0.50384  0.40447  1.0000
  C   C141      1.0  0.71646  0.97077  0.36223  1.0000
  H   H91       1.0  0.69359  0.95122  0.38893  1.0000
  O   O35       1.0  0.71510  0.50777  0.47450  1.0000
  H   H92       1.0  0.72577  0.50438  0.52836  1.0000
  N   N23       1.0  0.77912  0.56457  0.41186  1.0000
  H   H93       1.0  0.76312  0.56842  0.44861  1.0000
  C   C142      1.0  0.96361  0.73294  0.37520  1.0000
  C   C143      1.0  0.99150  0.72774  0.40449  1.0000
  C   C144      1.0  0.52456  0.74476  0.36223  1.0000
  H   H94       1.0  0.54411  0.74141  0.38884  1.0000
  O   O36       1.0  0.98757  0.70638  0.47449  1.0000
  H   H95       1.0  0.99097  0.72043  0.52837  1.0000
  N   N24       1.0  0.93077  0.71363  0.41195  1.0000
  H   H96       1.0  0.92692  0.69378  0.44869  1.0000
