data_image0
_chemical_formula_structural       CHC2H4CH4C3H2CH4CH3NHC3H2CH4CH3NHC2HCH4CH3NHC29H17C3O3C29H17C3O3C3NC2NCHCH2NHC3NC2NCHCH2NHC2NC2NCHCH2NH
_chemical_formula_sum              "C102 H84 N12 O6"
_cell_length_a       45.0301
_cell_length_b       45.0302
_cell_length_c       14.9823
_cell_angle_alpha    90
_cell_angle_beta     90
_cell_angle_gamma    120

_space_group_name_H-M_alt    "P 1"
_space_group_IT_number       1

loop_
  _space_group_symop_operation_xyz
  'x, y, z'

loop_
  _atom_site_type_symbol
  _atom_site_label
  _atom_site_symmetry_multiplicity
  _atom_site_fract_x
  _atom_site_fract_y
  _atom_site_fract_z
  _atom_site_occupancy
  C   C1        1.0  0.01567  0.48571  0.26952  1.0000
  H   H1        1.0  0.02546  0.48229  0.21130  1.0000
  C   C2        1.0  0.02328  0.51017  0.41777  1.0000
  C   C3        1.0  0.40198  0.85332  0.34176  1.0000
  H   H2        1.0  0.39110  0.86733  0.36272  1.0000
  H   H3        1.0  0.35503  0.80695  0.34761  1.0000
  H   H4        1.0  0.47740  0.61035  0.36274  1.0000
  H   H5        1.0  0.13419  0.52399  0.36286  1.0000
  C   C4        1.0  0.58481  0.14498  0.33090  1.0000
  H   H6        1.0  0.59435  0.12875  0.32344  1.0000
  H   H7        1.0  0.63372  0.18871  0.32039  1.0000
  H   H8        1.0  0.53561  0.40718  0.32354  1.0000
  H   H9        1.0  0.87271  0.46597  0.32299  1.0000
  C   C5        1.0  0.49514  0.53189  0.33799  1.0000
  C   C6        1.0  0.53087  0.50955  0.27868  1.0000
  C   C7        1.0  0.51577  0.53019  0.26952  1.0000
  H   H10       1.0  0.51922  0.54339  0.21125  1.0000
  H   H11       1.0  0.54453  0.50805  0.22617  1.0000
  C   C8        1.0  0.51394  0.47222  0.04324  1.0000
  H   H12       1.0  0.45887  0.44811  0.02717  1.0000
  H   H13       1.0  0.51899  0.49721  0.06711  1.0000
  H   H14       1.0  0.53601  0.47569  0.00455  1.0000
  H   H15       1.0  0.51088  0.45605  0.10077  1.0000
  C   C9        1.0  0.44320  0.49601  0.06457  1.0000
  H   H16       1.0  0.42446  0.46871  0.06812  1.0000
  H   H17       1.0  0.43270  0.50962  0.10140  1.0000
  H   H18       1.0  0.46700  0.50128  0.09700  1.0000
  N   N1        1.0  0.48096  0.55244  0.32677  1.0000
  H   H19       1.0  0.49570  0.57488  0.30017  1.0000
  C   C10       1.0  0.46959  0.96354  0.33796  1.0000
  C   C11       1.0  0.49194  0.02161  0.27857  1.0000
  C   C12       1.0  0.47129  0.98587  0.26945  1.0000
  H   H20       1.0  0.45811  0.97612  0.21118  1.0000
  H   H21       1.0  0.49345  0.03676  0.22603  1.0000
  C   C13       1.0  0.52895  0.04176  0.04345  1.0000
  H   H22       1.0  0.55351  0.01122  0.02694  1.0000
  H   H23       1.0  0.50402  0.02164  0.06719  1.0000
  H   H24       1.0  0.52528  0.06027  0.00495  1.0000
  H   H25       1.0  0.54505  0.05489  0.10105  1.0000
  C   C14       1.0  0.50590  0.94753  0.06422  1.0000
  H   H26       1.0  0.53321  0.95606  0.06669  1.0000
  H   H27       1.0  0.49244  0.92340  0.10107  1.0000
  H   H28       1.0  0.50082  0.96607  0.09736  1.0000
  N   N2        1.0  0.44905  0.92882  0.32671  1.0000
  H   H29       1.0  0.42659  0.92111  0.30025  1.0000
  C   C15       1.0  0.03796  0.50626  0.33819  1.0000
  C   C16       1.0  0.97993  0.47069  0.27839  1.0000
  H   H30       1.0  0.96481  0.45705  0.22581  1.0000
  C   C17       1.0  0.96001  0.48737  0.04382  1.0000
  H   H31       1.0  0.98991  0.54251  0.02657  1.0000
  H   H32       1.0  0.98039  0.48293  0.06741  1.0000
  H   H33       1.0  0.94162  0.46502  0.00564  1.0000
  H   H34       1.0  0.94684  0.49023  0.10151  1.0000
  C   C18       1.0  0.05377  0.55912  0.06395  1.0000
  H   H35       1.0  0.04526  0.57794  0.06484  1.0000
  H   H36       1.0  0.07788  0.57002  0.10087  1.0000
  H   H37       1.0  0.03521  0.53577  0.09807  1.0000
  N   N3        1.0  0.07269  0.52040  0.32724  1.0000
  H   H38       1.0  0.08036  0.50566  0.30054  1.0000
  C   C19       1.0  0.43766  0.86934  0.32465  1.0000
  C   C20       1.0  0.45117  0.84805  0.29993  1.0000
  C   C21       1.0  0.42993  0.81231  0.29206  1.0000
  C   C22       1.0  0.39443  0.79665  0.30957  1.0000
  C   C23       1.0  0.38063  0.81759  0.33375  1.0000
  C   C24       1.0  0.37317  0.76148  0.30269  1.0000
  C   C25       1.0  0.37669  0.73899  0.35431  1.0000
  C   C26       1.0  0.35545  0.70360  0.34969  1.0000
  C   C27       1.0  0.31929  0.68817  0.35044  1.0000
  C   C28       1.0  0.29788  0.65213  0.34979  1.0000
  C   C29       1.0  0.31331  0.63140  0.35046  1.0000
  C   C30       1.0  0.34935  0.64603  0.34975  1.0000
  C   C31       1.0  0.37007  0.68218  0.35038  1.0000
  C   C32       1.0  0.36350  0.62479  0.35433  1.0000
  C   C33       1.0  0.38949  0.62830  0.30264  1.0000
  C   C34       1.0  0.40341  0.60704  0.30948  1.0000
  C   C35       1.0  0.43813  0.62083  0.33376  1.0000
  C   C36       1.0  0.38357  0.57154  0.29189  1.0000
  C   C37       1.0  0.39807  0.55030  0.29977  1.0000
  C   C38       1.0  0.43286  0.56381  0.32453  1.0000
  C   C39       1.0  0.45252  0.59949  0.34167  1.0000
  C   C40       1.0  0.26249  0.63797  0.35443  1.0000
  C   C41       1.0  0.24000  0.61196  0.30278  1.0000
  C   C42       1.0  0.20483  0.59803  0.30970  1.0000
  C   C43       1.0  0.18915  0.61786  0.29225  1.0000
  C   C44       1.0  0.18391  0.56329  0.33390  1.0000
  C   C45       1.0  0.14818  0.54888  0.34192  1.0000
  C   C46       1.0  0.13214  0.56853  0.32488  1.0000
  C   C47       1.0  0.15340  0.60333  0.30019  1.0000
  H   H39       1.0  0.47675  0.85837  0.28664  1.0000
  H   H40       1.0  0.44063  0.79781  0.27370  1.0000
  H   H41       1.0  0.39624  0.69309  0.35266  1.0000
  H   H42       1.0  0.30838  0.70342  0.35274  1.0000
  H   H43       1.0  0.29805  0.60523  0.35276  1.0000
  H   H44       1.0  0.20362  0.64306  0.27390  1.0000
  H   H45       1.0  0.45309  0.64643  0.34762  1.0000
  H   H46       1.0  0.38281  0.52472  0.28642  1.0000
  H   H47       1.0  0.35837  0.56084  0.27348  1.0000
  H   H48       1.0  0.14306  0.61858  0.28694  1.0000
  H   H49       1.0  0.19457  0.54834  0.34764  1.0000
  H   H50       1.0  0.40016  0.64746  0.25892  1.0000
  H   H51       1.0  0.35316  0.60550  0.39791  1.0000
  H   H52       1.0  0.35398  0.75299  0.25905  1.0000
  H   H53       1.0  0.39599  0.74792  0.39783  1.0000
  H   H54       1.0  0.24850  0.60129  0.25907  1.0000
  H   H55       1.0  0.25355  0.64832  0.39800  1.0000
  C   C48       1.0  0.09602  0.55448  0.33582  1.0000
  C   C49       1.0  0.44689  0.54172  0.33544  1.0000
  C   C50       1.0  0.45975  0.90545  0.33550  1.0000
  O   O1        1.0  0.42478  0.50804  0.35132  1.0000
  O   O2        1.0  0.49342  0.91701  0.35158  1.0000
  O   O3        1.0  0.08445  0.57658  0.35191  1.0000
  C   C51       1.0  0.54907  0.13202  0.33961  1.0000
  C   C52       1.0  0.53768  0.15618  0.34429  1.0000
  C   C53       1.0  0.56094  0.19168  0.34136  1.0000
  C   C54       1.0  0.59659  0.20440  0.33369  1.0000
  C   C55       1.0  0.60814  0.18049  0.32783  1.0000
  C   C56       1.0  0.62000  0.23933  0.32720  1.0000
  C   C57       1.0  0.62035  0.26318  0.38203  1.0000
  C   C58       1.0  0.64386  0.29805  0.37592  1.0000
  C   C59       1.0  0.67961  0.31055  0.37648  1.0000
  C   C60       1.0  0.70345  0.34613  0.37588  1.0000
  C   C61       1.0  0.69095  0.36938  0.37650  1.0000
  C   C62       1.0  0.65537  0.35763  0.37597  1.0000
  C   C63       1.0  0.63212  0.32189  0.37654  1.0000
  C   C64       1.0  0.64400  0.38114  0.38211  1.0000
  C   C65       1.0  0.62052  0.38150  0.32725  1.0000
  C   C66       1.0  0.60900  0.40491  0.33371  1.0000
  C   C67       1.0  0.57354  0.39337  0.32790  1.0000
  C   C68       1.0  0.63194  0.44056  0.34138  1.0000
  C   C69       1.0  0.61971  0.46383  0.34434  1.0000
  C   C70       1.0  0.58417  0.45245  0.33968  1.0000
  C   C71       1.0  0.56138  0.41671  0.33100  1.0000
  C   C72       1.0  0.73832  0.35750  0.38191  1.0000
  C   C73       1.0  0.76215  0.38101  0.32707  1.0000
  C   C74       1.0  0.79709  0.39255  0.33346  1.0000
  C   C75       1.0  0.80983  0.36963  0.34112  1.0000
  C   C76       1.0  0.82098  0.42801  0.32749  1.0000
  C   C77       1.0  0.85650  0.44020  0.33046  1.0000
  C   C78       1.0  0.86947  0.41744  0.33921  1.0000
  C   C79       1.0  0.84533  0.38189  0.34398  1.0000
  H   H56       1.0  0.51213  0.14821  0.34973  1.0000
  H   H57       1.0  0.55149  0.20815  0.34348  1.0000
  H   H58       1.0  0.60628  0.31310  0.37918  1.0000
  H   H59       1.0  0.68839  0.29349  0.37903  1.0000
  H   H60       1.0  0.70800  0.39522  0.37911  1.0000
  H   H61       1.0  0.79336  0.34371  0.34333  1.0000
  H   H62       1.0  0.55619  0.36780  0.32047  1.0000
  H   H63       1.0  0.63731  0.48939  0.34978  1.0000
  H   H64       1.0  0.65787  0.45001  0.34351  1.0000
  H   H65       1.0  0.85331  0.36431  0.34943  1.0000
  H   H66       1.0  0.81274  0.44535  0.32009  1.0000
  H   H67       1.0  0.61005  0.36360  0.28005  1.0000
  H   H68       1.0  0.65443  0.39892  0.42954  1.0000
  H   H69       1.0  0.63790  0.24676  0.28002  1.0000
  H   H70       1.0  0.60257  0.25582  0.42948  1.0000
  H   H71       1.0  0.75470  0.39148  0.27993  1.0000
  H   H72       1.0  0.74569  0.34707  0.42932  1.0000
  C   C80       1.0  0.90549  0.42936  0.33761  1.0000
  C   C81       1.0  0.57228  0.47657  0.33819  1.0000
  C   C82       1.0  0.52495  0.09601  0.33809  1.0000
  O   O4        1.0  0.59494  0.50921  0.31353  1.0000
  O   O5        1.0  0.49232  0.08604  0.31344  1.0000
  O   O6        1.0  0.91546  0.40667  0.31315  1.0000
  C   C83       1.0  0.49119  0.51334  0.41765  1.0000
  C   C84       1.0  0.50634  0.49251  0.42673  1.0000
  C   C85       1.0  0.52667  0.49046  0.35741  1.0000
  N   N4        1.0  0.50123  0.47548  0.50501  1.0000
  C   C86       1.0  0.48303  0.47695  0.57587  1.0000
  C   C87       1.0  0.46878  0.49892  0.56839  1.0000
  N   N5        1.0  0.47384  0.51552  0.48898  1.0000
  C   C88       1.0  0.48111  0.45508  0.65229  1.0000
  H   H73       1.0  0.47776  0.43081  0.62688  1.0000
  C   C89       1.0  0.44971  0.50842  0.63334  1.0000
  H   H74       1.0  0.42462  0.50065  0.60400  1.0000
  H   H75       1.0  0.46354  0.53646  0.63693  1.0000
  N   N6        1.0  0.54018  0.46904  0.36424  1.0000
  H   H76       1.0  0.52599  0.44728  0.39453  1.0000
  C   C90       1.0  0.48813  0.97817  0.41761  1.0000
  C   C91       1.0  0.50900  0.01414  0.42660  1.0000
  C   C92       1.0  0.51105  0.03651  0.35725  1.0000
  N   N7        1.0  0.52605  0.02608  0.50485  1.0000
  C   C93       1.0  0.52459  0.00643  0.57574  1.0000
  C   C94       1.0  0.50255  0.97021  0.56839  1.0000
  N   N8        1.0  0.48592  0.95865  0.48902  1.0000
  C   C95       1.0  0.54635  0.02639  0.65228  1.0000
  H   H77       1.0  0.57053  0.04750  0.62701  1.0000
  C   C96       1.0  0.49299  0.94166  0.63344  1.0000
  H   H78       1.0  0.50034  0.92408  0.60367  1.0000
  H   H79       1.0  0.46498  0.92776  0.63789  1.0000
  N   N9        1.0  0.53250  0.07144  0.36400  1.0000
  H   H80       1.0  0.55425  0.07901  0.39433  1.0000
  C   C97       1.0  0.98731  0.49518  0.42646  1.0000
  C   C98       1.0  0.96499  0.47493  0.35695  1.0000
  N   N10       1.0  0.97532  0.50029  0.50462  1.0000
  C   C99       1.0  0.99492  0.51840  0.57565  1.0000
  C   C100      1.0  0.03113  0.53244  0.56863  1.0000
  N   N11       1.0  0.04274  0.52738  0.48934  1.0000
  C   C101      1.0  0.97489  0.52002  0.65229  1.0000
  H   H81       1.0  0.95352  0.52267  0.62715  1.0000
  C   C102      1.0  0.05962  0.55136  0.63386  1.0000
  H   H82       1.0  0.07757  0.57606  0.60355  1.0000
  H   H83       1.0  0.07311  0.53687  0.63958  1.0000
  N   N12       1.0  0.93006  0.46147  0.36354  1.0000
  H   H84       1.0  0.92248  0.47566  0.39381  1.0000
