data_image0
_chemical_formula_structural       CHCNH2C2HC4HNHC2HCHC15H10C17H12CNC4H2NH2CNC4H2NH2C4HNHC9H7C13H9C4HCNHNH2C4HCNHNH2CNH2
_chemical_formula_sum              "C90 H66 N12"
_cell_length_a       44.7646
_cell_length_b       44.7393
_cell_length_c       14.8384
_cell_angle_alpha    90
_cell_angle_beta     90
_cell_angle_gamma    120.03

_space_group_name_H-M_alt    "P 1"
_space_group_IT_number       1

loop_
  _space_group_symop_operation_xyz
  'x, y, z'

loop_
  _atom_site_type_symbol
  _atom_site_label
  _atom_site_symmetry_multiplicity
  _atom_site_fract_x
  _atom_site_fract_y
  _atom_site_fract_z
  _atom_site_occupancy
  C   C1        1.0  0.15333  0.54402  0.32054  1.0000
  H   H1        1.0  0.13946  0.51825  0.30568  1.0000
  C   C2        1.0  0.07908  0.52294  0.27348  1.0000
  N   N1        1.0  0.04424  0.50803  0.27489  1.0000
  H   H2        1.0  0.09026  0.51790  0.22000  1.0000
  H   H3        1.0  0.01392  0.53766  0.18817  1.0000
  C   C3        1.0  0.13623  0.56252  0.34195  1.0000
  C   C4        1.0  0.15693  0.59791  0.36444  1.0000
  H   H4        1.0  0.14575  0.61242  0.37945  1.0000
  C   C5        1.0  0.09933  0.54585  0.34266  1.0000
  C   C6        1.0  0.02630  0.51330  0.34087  1.0000
  C   C7        1.0  0.04482  0.53565  0.41370  1.0000
  C   C8        1.0  0.08129  0.55152  0.41282  1.0000
  H   H5        1.0  0.09501  0.56750  0.46499  1.0000
  N   N2        1.0  0.02930  0.54317  0.48182  1.0000
  H   H6        1.0  0.04277  0.55915  0.52968  1.0000
  C   C9        1.0  0.21006  0.59534  0.34587  1.0000
  C   C10       1.0  0.18958  0.56005  0.32319  1.0000
  H   H7        1.0  0.20088  0.54556  0.30904  1.0000
  C   C11       1.0  0.19320  0.61408  0.36643  1.0000
  H   H8        1.0  0.20716  0.63953  0.38458  1.0000
  C   C12       1.0  0.24570  0.61016  0.35284  1.0000
  C   C13       1.0  0.45610  0.85467  0.32364  1.0000
  C   C14       1.0  0.43677  0.81831  0.32698  1.0000
  C   C15       1.0  0.38270  0.74216  0.30331  1.0000
  C   C16       1.0  0.36209  0.70647  0.31150  1.0000
  C   C17       1.0  0.32565  0.69031  0.31382  1.0000
  C   C18       1.0  0.30446  0.65390  0.31381  1.0000
  C   C19       1.0  0.32070  0.63367  0.31001  1.0000
  C   C20       1.0  0.35703  0.64901  0.30859  1.0000
  C   C21       1.0  0.37739  0.68546  0.30842  1.0000
  C   C22       1.0  0.37205  0.62842  0.29973  1.0000
  C   C23       1.0  0.41191  0.60964  0.34926  1.0000
  C   C24       1.0  0.39409  0.57435  0.32423  1.0000
  C   C25       1.0  0.41110  0.55503  0.32131  1.0000
  C   C26       1.0  0.26860  0.63910  0.30942  1.0000
  H   H9        1.0  0.48167  0.86620  0.30690  1.0000
  H   H10       1.0  0.44896  0.80471  0.31250  1.0000
  H   H11       1.0  0.40371  0.69683  0.30382  1.0000
  H   H12       1.0  0.31435  0.70538  0.31309  1.0000
  H   H13       1.0  0.30585  0.60732  0.30621  1.0000
  H   H14       1.0  0.39705  0.52940  0.30509  1.0000
  H   H15       1.0  0.36828  0.56211  0.30984  1.0000
  H   H16       1.0  0.36458  0.61229  0.24762  1.0000
  H   H17       1.0  0.39878  0.75091  0.25112  1.0000
  H   H18       1.0  0.25948  0.65107  0.27130  1.0000
  C   C27       1.0  0.56259  0.15182  0.31905  1.0000
  C   C28       1.0  0.58144  0.18809  0.32571  1.0000
  C   C29       1.0  0.63413  0.26443  0.30543  1.0000
  C   C30       1.0  0.65439  0.30012  0.31445  1.0000
  C   C31       1.0  0.69084  0.31654  0.31584  1.0000
  C   C32       1.0  0.71175  0.35296  0.31604  1.0000
  C   C33       1.0  0.69526  0.37296  0.31348  1.0000
  C   C34       1.0  0.65886  0.35736  0.31274  1.0000
  C   C35       1.0  0.63880  0.32088  0.31222  1.0000
  C   C36       1.0  0.64354  0.37769  0.30313  1.0000
  C   C37       1.0  0.60185  0.39494  0.34722  1.0000
  C   C38       1.0  0.61963  0.43027  0.32276  1.0000
  C   C39       1.0  0.60228  0.44920  0.31670  1.0000
  C   C40       1.0  0.74755  0.36787  0.30982  1.0000
  C   C41       1.0  0.80620  0.41086  0.34616  1.0000
  C   C42       1.0  0.82643  0.44597  0.32172  1.0000
  C   C43       1.0  0.86259  0.46178  0.31553  1.0000
  H   H19       1.0  0.53694  0.14023  0.30315  1.0000
  H   H20       1.0  0.56885  0.20151  0.31402  1.0000
  H   H21       1.0  0.61246  0.30927  0.30767  1.0000
  H   H22       1.0  0.70235  0.30168  0.31398  1.0000
  H   H23       1.0  0.70998  0.39933  0.30962  1.0000
  H   H24       1.0  0.61637  0.47487  0.30087  1.0000
  H   H25       1.0  0.64562  0.44286  0.31086  1.0000
  H   H26       1.0  0.87630  0.48744  0.29932  1.0000
  H   H27       1.0  0.81503  0.46044  0.30857  1.0000
  H   H28       1.0  0.65188  0.39455  0.25257  1.0000
  H   H29       1.0  0.61757  0.25578  0.25421  1.0000
  H   H30       1.0  0.75647  0.35640  0.26911  1.0000
  C   C44       1.0  0.45975  0.52756  0.27483  1.0000
  N   N3        1.0  0.47762  0.51045  0.27566  1.0000
  C   C45       1.0  0.51668  0.49384  0.33337  1.0000
  C   C46       1.0  0.53913  0.49760  0.26090  1.0000
  C   C47       1.0  0.55504  0.47701  0.26247  1.0000
  C   C48       1.0  0.54928  0.45337  0.33293  1.0000
  H   H31       1.0  0.57128  0.47938  0.21093  1.0000
  H   H32       1.0  0.44439  0.52440  0.22055  1.0000
  N   N4        1.0  0.54680  0.52063  0.19269  1.0000
  H   H33       1.0  0.53787  0.53643  0.19128  1.0000
  H   H34       1.0  0.56285  0.52312  0.14509  1.0000
  C   C49       1.0  0.48369  0.93077  0.27656  1.0000
  N   N5        1.0  0.50091  0.96579  0.27712  1.0000
  C   C50       1.0  0.51783  0.02160  0.33457  1.0000
  C   C51       1.0  0.51427  0.04040  0.26202  1.0000
  C   C52       1.0  0.53495  0.07690  0.26379  1.0000
  C   C53       1.0  0.55849  0.09467  0.33448  1.0000
  H   H35       1.0  0.53269  0.09086  0.21228  1.0000
  H   H36       1.0  0.48676  0.91848  0.22238  1.0000
  N   N6        1.0  0.49128  0.02513  0.19367  1.0000
  H   H37       1.0  0.47553  0.00038  0.19189  1.0000
  H   H38       1.0  0.48903  0.03875  0.14582  1.0000
  C   C54       1.0  0.98987  0.49602  0.33199  1.0000
  C   C55       1.0  0.97236  0.50099  0.25859  1.0000
  C   C56       1.0  0.93579  0.48258  0.25997  1.0000
  C   C57       1.0  0.91672  0.45994  0.33115  1.0000
  H   H39       1.0  0.92274  0.48597  0.20797  1.0000
  N   N7        1.0  0.98897  0.52333  0.18974  1.0000
  H   H40       1.0  0.97622  0.52661  0.14134  1.0000
  C   C58       1.0  0.44115  0.87499  0.34709  1.0000
  C   C59       1.0  0.40157  0.80087  0.35266  1.0000
  C   C60       1.0  0.38650  0.82116  0.37497  1.0000
  C   C61       1.0  0.40588  0.85745  0.37207  1.0000
  C   C62       1.0  0.38194  0.76499  0.36101  1.0000
  C   C63       1.0  0.39567  0.62925  0.35738  1.0000
  C   C64       1.0  0.44727  0.62479  0.37154  1.0000
  C   C65       1.0  0.44639  0.57007  0.34479  1.0000
  C   C66       1.0  0.46416  0.60542  0.36918  1.0000
  H   H41       1.0  0.39376  0.87099  0.38819  1.0000
  H   H42       1.0  0.36115  0.80966  0.39413  1.0000
  H   H43       1.0  0.46115  0.65020  0.39030  1.0000
  H   H44       1.0  0.48982  0.61759  0.38526  1.0000
  H   H45       1.0  0.40294  0.64577  0.40876  1.0000
  H   H46       1.0  0.36546  0.75576  0.41244  1.0000
  H   H47       1.0  0.25439  0.59785  0.39098  1.0000
  C   C67       1.0  0.57808  0.13160  0.33802  1.0000
  C   C68       1.0  0.61672  0.20563  0.35041  1.0000
  C   C69       1.0  0.63226  0.18548  0.36924  1.0000
  C   C70       1.0  0.61332  0.14920  0.36322  1.0000
  C   C71       1.0  0.63594  0.24146  0.36049  1.0000
  C   C72       1.0  0.61839  0.37563  0.35717  1.0000
  C   C73       1.0  0.56618  0.37946  0.36645  1.0000
  C   C74       1.0  0.56659  0.43375  0.33604  1.0000
  C   C75       1.0  0.54892  0.39847  0.36102  1.0000
  C   C76       1.0  0.77065  0.39613  0.35517  1.0000
  C   C77       1.0  0.82320  0.39213  0.36529  1.0000
  C   C78       1.0  0.87985  0.44325  0.33467  1.0000
  C   C79       1.0  0.85943  0.40812  0.35982  1.0000
  H   H48       1.0  0.62571  0.13572  0.37681  1.0000
  H   H49       1.0  0.65768  0.19707  0.38782  1.0000
  H   H50       1.0  0.80937  0.36679  0.38453  1.0000
  H   H51       1.0  0.55231  0.35402  0.38494  1.0000
  H   H52       1.0  0.52307  0.38608  0.37483  1.0000
  H   H53       1.0  0.87077  0.39368  0.37384  1.0000
  H   H54       1.0  0.61018  0.35837  0.40692  1.0000
  H   H55       1.0  0.65292  0.25056  0.41083  1.0000
  H   H56       1.0  0.76222  0.40801  0.39581  1.0000
  C   C80       1.0  0.46358  0.55034  0.34560  1.0000
  C   C81       1.0  0.49968  0.51326  0.34251  1.0000
  C   C82       1.0  0.50437  0.53518  0.41713  1.0000
  C   C83       1.0  0.48591  0.55327  0.41691  1.0000
  H   H57       1.0  0.48894  0.56910  0.47018  1.0000
  C   C84       1.0  0.52623  0.45075  0.40163  1.0000
  N   N8        1.0  0.51133  0.47068  0.39958  1.0000
  H   H58       1.0  0.52121  0.43472  0.45555  1.0000
  N   N9        1.0  0.52641  0.54041  0.48634  1.0000
  H   H59       1.0  0.52954  0.55613  0.53547  1.0000
  H   H60       1.0  0.54097  0.53005  0.48703  1.0000
  C   C85       1.0  0.46092  0.91195  0.34746  1.0000
  C   C86       1.0  0.49821  0.98516  0.34379  1.0000
  C   C87       1.0  0.47629  0.96807  0.41851  1.0000
  C   C88       1.0  0.45809  0.93149  0.41858  1.0000
  H   H61       1.0  0.44229  0.91879  0.47194  1.0000
  C   C89       1.0  0.56098  0.07414  0.40315  1.0000
  N   N10       1.0  0.54094  0.03931  0.40095  1.0000
  H   H62       1.0  0.57691  0.08509  0.45726  1.0000
  N   N11       1.0  0.47115  0.98503  0.48750  1.0000
  H   H63       1.0  0.45546  0.97252  0.53677  1.0000
  H   H64       1.0  0.48161  0.00998  0.48805  1.0000
  C   C90       1.0  0.93596  0.45582  0.40055  1.0000
  N   N12       1.0  0.97093  0.47374  0.39878  1.0000
  H   H65       1.0  0.92404  0.44044  0.45502  1.0000
  H   H66       1.0  0.00458  0.53427  0.48279  1.0000
