data_image0
_chemical_formula_structural       C3HNO2COC3HNO2COC3HNO2COC3HNO2COC3HNO2COC3HNO2COC24H15NHNHNHC24H15NHNHNHC24H15NHNHNHC24H15NHNHNHC3HNO2COC3HNO2COC3HNO2COC3HNO2COC3HNO2COC3HNO2CO
_chemical_formula_sum              "C144 H84 N24 O36"
_cell_length_a       56.4961
_cell_length_b       56.4963
_cell_length_c       15.0117
_cell_angle_alpha    90
_cell_angle_beta     90
_cell_angle_gamma    119.999

_space_group_name_H-M_alt    "P 1"
_space_group_IT_number       1

loop_
  _space_group_symop_operation_xyz
  'x, y, z'

loop_
  _atom_site_type_symbol
  _atom_site_label
  _atom_site_symmetry_multiplicity
  _atom_site_fract_x
  _atom_site_fract_y
  _atom_site_fract_z
  _atom_site_occupancy
  C   C1        1.0  0.18284  0.09229  0.29407  1.0000
  C   C2        1.0  0.20212  0.10772  0.22665  1.0000
  C   C3        1.0  0.23037  0.12065  0.24605  1.0000
  H   H1        1.0  0.24402  0.13127  0.19628  1.0000
  N   N1        1.0  0.19320  0.11049  0.14100  1.0000
  O   O1        1.0  0.20111  0.13502  0.12240  1.0000
  O   O2        1.0  0.20137  0.10066  0.08132  1.0000
  C   C4        1.0  0.15406  0.07775  0.27798  1.0000
  O   O3        1.0  0.14532  0.06644  0.19644  1.0000
  C   C5        1.0  0.89950  0.09356  0.29919  1.0000
  C   C6        1.0  0.89055  0.10325  0.22700  1.0000
  C   C7        1.0  0.87565  0.11670  0.24515  1.0000
  H   H2        1.0  0.86950  0.12396  0.19274  1.0000
  N   N2        1.0  0.89622  0.09896  0.13837  1.0000
  O   O4        1.0  0.87463  0.08467  0.09497  1.0000
  O   O5        1.0  0.91031  0.12120  0.09800  1.0000
  C   C8        1.0  0.91564  0.08117  0.28578  1.0000
  O   O6        1.0  0.93972  0.09601  0.24249  1.0000
  C   C9        1.0  0.89167  0.80523  0.32792  1.0000
  C   C10       1.0  0.88403  0.78864  0.25051  1.0000
  C   C11       1.0  0.87048  0.75991  0.26024  1.0000
  H   H3        1.0  0.86470  0.74802  0.20403  1.0000
  N   N3        1.0  0.89052  0.80094  0.16502  1.0000
  O   O7        1.0  0.90610  0.79502  0.12302  1.0000
  O   O8        1.0  0.86939  0.79377  0.11916  1.0000
  C   C12       1.0  0.90443  0.83408  0.32270  1.0000
  O   O9        1.0  0.89213  0.84469  0.27207  1.0000
  C   C13       1.0  0.58250  0.13242  0.34171  1.0000
  C   C14       1.0  0.56826  0.13678  0.27155  1.0000
  C   C15       1.0  0.54386  0.13673  0.29127  1.0000
  H   H4        1.0  0.53484  0.14162  0.24091  1.0000
  N   N4        1.0  0.57653  0.14119  0.18109  1.0000
  O   O10       1.0  0.59829  0.16334  0.16859  1.0000
  O   O11       1.0  0.57906  0.12191  0.15010  1.0000
  C   C16       1.0  0.60914  0.13658  0.33007  1.0000
  O   O12       1.0  0.61214  0.11429  0.33253  1.0000
  C   C17       1.0  0.85514  0.44918  0.34261  1.0000
  C   C18       1.0  0.85087  0.43064  0.27233  1.0000
  C   C19       1.0  0.85096  0.40630  0.29192  1.0000
  H   H5        1.0  0.84616  0.39245  0.24141  1.0000
  N   N5        1.0  0.84649  0.43456  0.18188  1.0000
  O   O13       1.0  0.82434  0.43417  0.16943  1.0000
  O   O14       1.0  0.86577  0.45638  0.15104  1.0000
  C   C20       1.0  0.85100  0.47167  0.33097  1.0000
  O   O15       1.0  0.87335  0.49694  0.33244  1.0000
  C   C21       1.0  0.53913  0.40613  0.34153  1.0000
  C   C22       1.0  0.55773  0.42049  0.27149  1.0000
  C   C23       1.0  0.58202  0.44493  0.29149  1.0000
  H   H6        1.0  0.59591  0.45408  0.24116  1.0000
  N   N6        1.0  0.55392  0.41232  0.18094  1.0000
  O   O16       1.0  0.55439  0.39062  0.16814  1.0000
  O   O17       1.0  0.53209  0.40975  0.15002  1.0000
  C   C24       1.0  0.51674  0.37945  0.32968  1.0000
  O   O18       1.0  0.49139  0.37630  0.33302  1.0000
  C   C25       1.0  0.01976  0.01091  0.33239  1.0000
  C   C26       1.0  0.00674  0.98232  0.34521  1.0000
  C   C27       1.0  0.97797  0.96547  0.34448  1.0000
  C   C28       1.0  0.96210  0.97831  0.33430  1.0000
  C   C29       1.0  0.97411  0.00692  0.32347  1.0000
  C   C30       1.0  0.00299  0.02268  0.32076  1.0000
  C   C31       1.0  0.96549  0.93641  0.35310  1.0000
  C   C32       1.0  0.97666  0.92194  0.30941  1.0000
  C   C33       1.0  0.96432  0.89337  0.31630  1.0000
  C   C34       1.0  0.93998  0.87838  0.36525  1.0000
  C   C35       1.0  0.92862  0.89243  0.40927  1.0000
  C   C36       1.0  0.94134  0.92105  0.40381  1.0000
  C   C37       1.0  0.04893  0.02738  0.33218  1.0000
  C   C38       1.0  0.06537  0.01820  0.29053  1.0000
  C   C39       1.0  0.09404  0.03396  0.29255  1.0000
  C   C40       1.0  0.10747  0.05988  0.33431  1.0000
  C   C41       1.0  0.09109  0.06892  0.37693  1.0000
  C   C42       1.0  0.06240  0.05306  0.37564  1.0000
  C   C43       1.0  0.95769  0.01969  0.31881  1.0000
  C   C44       1.0  0.96577  0.04460  0.36419  1.0000
  C   C45       1.0  0.94953  0.05698  0.36250  1.0000
  C   C46       1.0  0.92441  0.04460  0.31641  1.0000
  C   C47       1.0  0.91579  0.01952  0.27257  1.0000
  C   C48       1.0  0.93241  0.00750  0.27256  1.0000
  H   H7        1.0  0.10499  0.02585  0.26525  1.0000
  H   H8        1.0  0.05665  0.99979  0.25822  1.0000
  H   H9        1.0  0.10004  0.08726  0.40969  1.0000
  H   H10       1.0  0.05146  0.06024  0.40899  1.0000
  H   H11       1.0  0.98332  0.05374  0.40125  1.0000
  H   H12       1.0  0.95573  0.07469  0.39736  1.0000
  H   H13       1.0  0.92580  0.98968  0.23802  1.0000
  H   H14       1.0  0.89758  0.01016  0.23907  1.0000
  H   H15       1.0  0.93279  0.93057  0.43806  1.0000
  H   H16       1.0  0.91112  0.88186  0.44599  1.0000
  H   H17       1.0  0.97266  0.88345  0.28311  1.0000
  H   H18       1.0  0.99368  0.93200  0.27022  1.0000
  H   H19       1.0  0.01851  0.97359  0.35749  1.0000
  H   H20       1.0  0.01205  0.04323  0.30877  1.0000
  H   H21       1.0  0.94126  0.96652  0.33538  1.0000
  N   N7        1.0  0.92746  0.85068  0.36962  1.0000
  H   H22       1.0  0.93775  0.84283  0.39622  1.0000
  N   N8        1.0  0.90810  0.05597  0.31872  1.0000
  H   H23       1.0  0.88951  0.04464  0.34106  1.0000
  N   N9        1.0  0.13547  0.07530  0.34071  1.0000
  H   H24       1.0  0.14264  0.08677  0.39365  1.0000
  C   C49       1.0  0.40145  0.20335  0.32685  1.0000
  C   C50       1.0  0.41348  0.18664  0.33397  1.0000
  C   C51       1.0  0.44209  0.19780  0.33190  1.0000
  C   C52       1.0  0.45895  0.22644  0.32507  1.0000
  C   C53       1.0  0.44783  0.24395  0.32002  1.0000
  C   C54       1.0  0.41905  0.23196  0.32016  1.0000
  C   C55       1.0  0.45363  0.18048  0.33355  1.0000
  C   C56       1.0  0.44742  0.16121  0.40267  1.0000
  C   C57       1.0  0.45942  0.14456  0.40438  1.0000
  C   C58       1.0  0.47740  0.14639  0.33593  1.0000
  C   C59       1.0  0.48294  0.16498  0.26541  1.0000
  C   C60       1.0  0.47145  0.18203  0.26473  1.0000
  C   C61       1.0  0.37239  0.19158  0.32473  1.0000
  C   C62       1.0  0.35580  0.16740  0.27566  1.0000
  C   C63       1.0  0.32723  0.15552  0.27425  1.0000
  C   C64       1.0  0.31433  0.16759  0.32130  1.0000
  C   C65       1.0  0.33069  0.19219  0.36781  1.0000
  C   C66       1.0  0.35926  0.20378  0.37058  1.0000
  C   C67       1.0  0.46517  0.27293  0.31623  1.0000
  C   C68       1.0  0.46023  0.29034  0.37138  1.0000
  C   C69       1.0  0.47819  0.31877  0.37194  1.0000
  C   C70       1.0  0.50164  0.33079  0.31693  1.0000
  C   C71       1.0  0.50654  0.31344  0.26162  1.0000
  C   C72       1.0  0.48852  0.28505  0.26064  1.0000
  H   H25       1.0  0.31588  0.13820  0.23739  1.0000
  H   H26       1.0  0.36436  0.15832  0.23908  1.0000
  H   H27       1.0  0.32178  0.20135  0.40218  1.0000
  H   H28       1.0  0.37036  0.22107  0.40779  1.0000
  H   H29       1.0  0.44412  0.28235  0.41489  1.0000
  H   H30       1.0  0.47478  0.33042  0.41651  1.0000
  H   H31       1.0  0.49283  0.27326  0.21942  1.0000
  H   H32       1.0  0.52354  0.32143  0.22192  1.0000
  H   H33       1.0  0.47610  0.19551  0.21313  1.0000
  H   H34       1.0  0.49614  0.16685  0.21560  1.0000
  H   H35       1.0  0.45515  0.13122  0.45607  1.0000
  H   H36       1.0  0.43476  0.15974  0.45378  1.0000
  H   H37       1.0  0.40121  0.16589  0.33935  1.0000
  H   H38       1.0  0.41077  0.24434  0.31237  1.0000
  H   H39       1.0  0.47974  0.23468  0.32639  1.0000
  N   N10       1.0  0.49051  0.13161  0.33820  1.0000
  H   H40       1.0  0.48967  0.12187  0.28362  1.0000
  N   N11       1.0  0.52109  0.35790  0.32233  1.0000
  H   H41       1.0  0.54008  0.36207  0.31931  1.0000
  N   N12       1.0  0.28663  0.15636  0.31851  1.0000
  H   H42       1.0  0.27955  0.16853  0.30430  1.0000
  C   C73       1.0  0.78543  0.19738  0.32387  1.0000
  C   C74       1.0  0.80200  0.22610  0.33219  1.0000
  C   C75       1.0  0.79073  0.24346  0.33124  1.0000
  C   C76       1.0  0.76208  0.23159  0.32458  1.0000
  C   C77       1.0  0.74468  0.20296  0.31856  1.0000
  C   C78       1.0  0.75679  0.18628  0.31745  1.0000
  C   C79       1.0  0.80791  0.27234  0.33319  1.0000
  C   C80       1.0  0.82714  0.28544  0.40236  1.0000
  C   C81       1.0  0.84362  0.31411  0.40431  1.0000
  C   C82       1.0  0.84164  0.33024  0.33609  1.0000
  C   C83       1.0  0.82308  0.31715  0.26554  1.0000
  C   C84       1.0  0.80619  0.28859  0.26465  1.0000
  C   C85       1.0  0.79734  0.18019  0.32006  1.0000
  C   C86       1.0  0.82186  0.18837  0.27212  1.0000
  C   C87       1.0  0.83386  0.17179  0.26901  1.0000
  C   C88       1.0  0.82142  0.14627  0.31261  1.0000
  C   C89       1.0  0.79662  0.13747  0.35837  1.0000
  C   C90       1.0  0.78498  0.15438  0.36306  1.0000
  C   C91       1.0  0.71568  0.19125  0.31487  1.0000
  C   C92       1.0  0.69831  0.16876  0.36958  1.0000
  C   C93       1.0  0.66989  0.15837  0.37073  1.0000
  C   C94       1.0  0.65785  0.16999  0.31665  1.0000
  C   C95       1.0  0.67516  0.19231  0.26152  1.0000
  C   C96       1.0  0.70354  0.20262  0.26003  1.0000
  H   H43       1.0  0.85153  0.17824  0.23364  1.0000
  H   H44       1.0  0.83114  0.20640  0.23766  1.0000
  H   H45       1.0  0.78735  0.11903  0.39057  1.0000
  H   H46       1.0  0.76749  0.14774  0.39959  1.0000
  H   H47       1.0  0.70634  0.16058  0.41267  1.0000
  H   H48       1.0  0.65828  0.14326  0.41520  1.0000
  H   H49       1.0  0.71530  0.21881  0.21910  1.0000
  H   H50       1.0  0.66716  0.20144  0.22246  1.0000
  H   H51       1.0  0.79272  0.27974  0.21303  1.0000
  H   H52       1.0  0.82108  0.32847  0.21595  1.0000
  H   H53       1.0  0.85697  0.32321  0.45598  1.0000
  H   H54       1.0  0.82876  0.27425  0.45321  1.0000
  H   H55       1.0  0.82277  0.23470  0.33752  1.0000
  H   H56       1.0  0.74446  0.16565  0.30868  1.0000
  H   H57       1.0  0.75374  0.24405  0.32674  1.0000
  N   N13       1.0  0.85627  0.35814  0.33849  1.0000
  H   H58       1.0  0.86602  0.36710  0.28399  1.0000
  N   N14       1.0  0.63077  0.16244  0.32276  1.0000
  H   H59       1.0  0.62669  0.17733  0.32019  1.0000
  N   N15       1.0  0.83300  0.13020  0.30859  1.0000
  H   H60       1.0  0.82232  0.11222  0.28116  1.0000
  C   C97       1.0  0.79050  0.58743  0.31928  1.0000
  C   C98       1.0  0.76181  0.57535  0.32838  1.0000
  C   C99       1.0  0.74444  0.54673  0.32913  1.0000
  C   C100      1.0  0.75626  0.52990  0.32328  1.0000
  C   C101      1.0  0.78487  0.54107  0.31647  1.0000
  C   C102      1.0  0.80158  0.56985  0.31381  1.0000
  C   C103      1.0  0.71557  0.53511  0.33204  1.0000
  C   C104      1.0  0.70277  0.54176  0.40085  1.0000
  C   C105      1.0  0.67414  0.52983  0.40341  1.0000
  C   C106      1.0  0.65775  0.51147  0.33611  1.0000
  C   C107      1.0  0.67053  0.50542  0.26599  1.0000
  C   C108      1.0  0.69906  0.51686  0.26449  1.0000
  C   C109      1.0  0.80765  0.61649  0.31455  1.0000
  C   C110      1.0  0.79941  0.63265  0.26583  1.0000
  C   C111      1.0  0.81564  0.66126  0.26367  1.0000
  C   C112      1.0  0.84086  0.67456  0.30900  1.0000
  C   C113      1.0  0.84983  0.65873  0.35500  1.0000
  C   C114      1.0  0.83327  0.63011  0.35863  1.0000
  C   C115      1.0  0.79652  0.52372  0.31356  1.0000
  C   C116      1.0  0.81913  0.52902  0.36797  1.0000
  C   C117      1.0  0.82944  0.51092  0.36998  1.0000
  C   C118      1.0  0.81767  0.48705  0.31693  1.0000
  C   C119      1.0  0.79523  0.48186  0.26214  1.0000
  C   C120      1.0  0.78497  0.49995  0.25986  1.0000
  H   H61       1.0  0.80902  0.67239  0.22856  1.0000
  H   H62       1.0  0.78146  0.62375  0.23087  1.0000
  H   H63       1.0  0.86798  0.66806  0.38892  1.0000
  H   H64       1.0  0.83988  0.61938  0.39590  1.0000
  H   H65       1.0  0.82746  0.54543  0.41026  1.0000
  H   H66       1.0  0.84468  0.51461  0.41413  1.0000
  H   H67       1.0  0.76868  0.49538  0.21923  1.0000
  H   H68       1.0  0.78595  0.46454  0.22391  1.0000
  H   H69       1.0  0.70770  0.51190  0.21307  1.0000
  H   H70       1.0  0.65902  0.49196  0.21698  1.0000
  H   H71       1.0  0.66524  0.53446  0.45476  1.0000
  H   H72       1.0  0.71416  0.55478  0.45096  1.0000
  H   H73       1.0  0.75325  0.58757  0.33317  1.0000
  H   H74       1.0  0.82219  0.57811  0.30487  1.0000
  H   H75       1.0  0.74378  0.50911  0.32653  1.0000
  N   N16       1.0  0.62989  0.49855  0.33903  1.0000
  H   H76       1.0  0.62082  0.49924  0.28470  1.0000
  N   N17       1.0  0.82516  0.46749  0.32385  1.0000
  H   H77       1.0  0.81025  0.44852  0.32167  1.0000
  N   N18       1.0  0.85616  0.70232  0.30853  1.0000
  H   H78       1.0  0.87480  0.71051  0.28572  1.0000
  C   C121      1.0  0.24008  0.11842  0.33053  1.0000
  C   C122      1.0  0.22099  0.10307  0.39802  1.0000
  C   C123      1.0  0.19274  0.09033  0.37883  1.0000
  H   H79       1.0  0.17929  0.07878  0.42782  1.0000
  N   N19       1.0  0.23035  0.10134  0.48407  1.0000
  O   O19       1.0  0.22237  0.11180  0.54214  1.0000
  O   O20       1.0  0.22245  0.07702  0.50568  1.0000
  C   C124      1.0  0.26864  0.13024  0.34352  1.0000
  O   O21       1.0  0.27772  0.11405  0.37796  1.0000
  C   C125      1.0  0.87033  0.12144  0.33339  1.0000
  C   C126      1.0  0.87954  0.11199  0.40559  1.0000
  C   C127      1.0  0.89365  0.09774  0.38738  1.0000
  H   H80       1.0  0.90050  0.09118  0.43981  1.0000
  N   N20       1.0  0.87413  0.11652  0.49429  1.0000
  O   O22       1.0  0.85970  0.09439  0.53488  1.0000
  O   O23       1.0  0.89585  0.13047  0.53747  1.0000
  C   C128      1.0  0.85738  0.13706  0.34706  1.0000
  O   O24       1.0  0.87099  0.16018  0.39612  1.0000
  C   C129      1.0  0.86370  0.74740  0.34505  1.0000
  C   C130      1.0  0.87119  0.76397  0.42244  1.0000
  C   C131      1.0  0.88545  0.79271  0.41275  1.0000
  H   H81       1.0  0.89057  0.80455  0.46897  1.0000
  N   N21       1.0  0.86486  0.75163  0.50787  1.0000
  O   O25       1.0  0.88610  0.75839  0.55266  1.0000
  O   O26       1.0  0.84977  0.75796  0.55100  1.0000
  C   C132      1.0  0.84818  0.71855  0.35013  1.0000
  O   O27       1.0  0.82424  0.70753  0.39539  1.0000
  C   C133      1.0  0.53311  0.13261  0.37884  1.0000
  C   C134      1.0  0.54695  0.12719  0.44796  1.0000
  C   C135      1.0  0.57136  0.12700  0.42836  1.0000
  H   H82       1.0  0.58175  0.12417  0.47939  1.0000
  N   N22       1.0  0.53639  0.12220  0.53593  1.0000
  O   O28       1.0  0.53055  0.09880  0.56248  1.0000
  O   O29       1.0  0.55295  0.13961  0.58999  1.0000
  C   C136      1.0  0.51097  0.13727  0.39748  1.0000
  O   O30       1.0  0.51422  0.15340  0.46866  1.0000
  C   C137      1.0  0.85505  0.39964  0.37946  1.0000
  C   C138      1.0  0.86033  0.41881  0.44874  1.0000
  C   C139      1.0  0.86045  0.44338  0.42929  1.0000
  H   H83       1.0  0.86325  0.45657  0.48037  1.0000
  N   N23       1.0  0.86527  0.41318  0.53670  1.0000
  O   O31       1.0  0.88862  0.43077  0.56351  1.0000
  O   O32       1.0  0.84779  0.41223  0.59063  1.0000
  C   C140      1.0  0.85052  0.37287  0.39782  1.0000
  O   O33       1.0  0.83433  0.35983  0.46873  1.0000
  C   C141      1.0  0.58854  0.45561  0.37914  1.0000
  C   C142      1.0  0.56931  0.44163  0.44817  1.0000
  C   C143      1.0  0.54480  0.41715  0.42834  1.0000
  H   H84       1.0  0.53157  0.40668  0.47925  1.0000
  N   N24       1.0  0.57480  0.45211  0.53623  1.0000
  O   O34       1.0  0.55713  0.45779  0.56285  1.0000
  O   O35       1.0  0.57574  0.43556  0.59011  1.0000
  C   C144      1.0  0.61527  0.47787  0.39788  1.0000
  O   O36       1.0  0.62826  0.47477  0.46903  1.0000
