data_image0
_chemical_formula_structural       C15H12C2NC2O2CH3C2NC2O2CH3C2NC2NC5NC3NC17H14NCHNCHC15H12C2NC2O2CH3C2NC2O2CH3C2NC2NC5NC3NC17H14NCHNCHC15H12C2NC2O2CH3C2NC2O2CH3C2NC2NC5NC3NC17H14NCHNCHC15H12C2NC2O2CH3C2NC2O2CH3C2NC2NC5NC3NC17H14NCHNCH
_chemical_formula_sum              "C224 H136 N32 O16"
_cell_length_a       42.6324
_cell_length_b       42.6324
_cell_length_c       14.9196
_cell_angle_alpha    90
_cell_angle_beta     90
_cell_angle_gamma    90

_space_group_name_H-M_alt    "P 1"
_space_group_IT_number       1

loop_
  _space_group_symop_operation_xyz
  'x, y, z'

loop_
  _atom_site_type_symbol
  _atom_site_label
  _atom_site_symmetry_multiplicity
  _atom_site_fract_x
  _atom_site_fract_y
  _atom_site_fract_z
  _atom_site_occupancy
  C   C1        1.0  0.43747  0.47529  0.33296  1.0000
  C   C2        1.0  0.03426  0.43763  0.33197  1.0000
  C   C3        1.0  0.50269  0.08708  0.33884  1.0000
  C   C4        1.0  0.47310  0.07179  0.33799  1.0000
  C   C5        1.0  0.42109  0.06342  0.33877  1.0000
  C   C6        1.0  0.44382  0.08649  0.33847  1.0000
  C   C7        1.0  0.33783  0.50623  0.25531  1.0000
  C   C8        1.0  0.37086  0.50606  0.25478  1.0000
  C   C9        1.0  0.50279  0.12058  0.33873  1.0000
  C   C10       1.0  0.50492  0.17029  0.25683  1.0000
  C   C11       1.0  0.50467  0.13727  0.25724  1.0000
  C   C12       1.0  0.13593  0.01623  0.25575  1.0000
  C   C13       1.0  0.16894  0.01665  0.25320  1.0000
  C   C14       1.0  0.01440  0.37220  0.25047  1.0000
  C   C15       1.0  0.01452  0.33917  0.24856  1.0000
  H   H1        1.0  0.02292  0.32831  0.19239  1.0000
  H   H2        1.0  0.02202  0.38425  0.19527  1.0000
  H   H3        1.0  0.44166  0.39988  0.31543  1.0000
  H   H4        1.0  0.12369  0.02393  0.20096  1.0000
  H   H5        1.0  0.17961  0.02534  0.19708  1.0000
  H   H6        1.0  0.06543  0.10976  0.35266  1.0000
  H   H7        1.0  0.39748  0.06757  0.33882  1.0000
  H   H8        1.0  0.43934  0.11004  0.33908  1.0000
  H   H9        1.0  0.50591  0.12548  0.19756  1.0000
  H   H10       1.0  0.50660  0.18137  0.19619  1.0000
  H   H11       1.0  0.38247  0.50756  0.19487  1.0000
  H   H12       1.0  0.32653  0.50810  0.19505  1.0000
  C   C16       1.0  0.50322  0.28777  0.32135  1.0000
  C   C17       1.0  0.50380  0.22152  0.33526  1.0000
  N   N1        1.0  0.49459  0.23686  0.25967  1.0000
  C   C18       1.0  0.49395  0.26856  0.24802  1.0000
  C   C19       1.0  0.48219  0.27998  0.16834  1.0000
  O   O1        1.0  0.49073  0.26674  0.09969  1.0000
  O   O2        1.0  0.45166  0.28734  0.17037  1.0000
  C   C20       1.0  0.44388  0.31538  0.12143  1.0000
  H   H13       1.0  0.41871  0.31925  0.12758  1.0000
  H   H14       1.0  0.44944  0.31305  0.05019  1.0000
  H   H15       1.0  0.95588  0.33590  0.14870  1.0000
  C   C21       1.0  0.22058  0.50500  0.32391  1.0000
  C   C22       1.0  0.28687  0.50516  0.33539  1.0000
  N   N2        1.0  0.27116  0.49616  0.26021  1.0000
  C   C23       1.0  0.23940  0.49575  0.24973  1.0000
  C   C24       1.0  0.22746  0.48415  0.17031  1.0000
  O   O3        1.0  0.24029  0.49333  0.10175  1.0000
  O   O4        1.0  0.22042  0.45359  0.17302  1.0000
  C   C25       1.0  0.19221  0.44557  0.12521  1.0000
  H   H16       1.0  0.18855  0.42038  0.13169  1.0000
  H   H17       1.0  0.19416  0.45109  0.05385  1.0000
  H   H18       1.0  0.17173  0.95745  0.15320  1.0000
  C   C26       1.0  0.44600  0.42331  0.32268  1.0000
  C   C27       1.0  0.42296  0.44605  0.32482  1.0000
  N   N3        1.0  0.46869  0.46913  0.33624  1.0000
  C   C28       1.0  0.47520  0.43801  0.33045  1.0000
  C   C29       1.0  0.50467  0.42219  0.33055  1.0000
  N   N4        1.0  0.04014  0.46883  0.33340  1.0000
  C   C30       1.0  0.07125  0.47519  0.33290  1.0000
  C   C31       1.0  0.08629  0.44610  0.33038  1.0000
  C   C32       1.0  0.06360  0.42303  0.33147  1.0000
  C   C33       1.0  0.08622  0.50501  0.33472  1.0000
  C   C34       1.0  0.06997  0.03420  0.33793  1.0000
  N   N5        1.0  0.03872  0.04024  0.33498  1.0000
  C   C35       1.0  0.03215  0.07135  0.33976  1.0000
  C   C36       1.0  0.06124  0.08625  0.34660  1.0000
  C   C37       1.0  0.08432  0.06355  0.34616  1.0000
  N   N6        1.0  0.46728  0.04061  0.33750  1.0000
  C   C38       1.0  0.43619  0.03434  0.33775  1.0000
  C   C39       1.0  0.42133  0.50453  0.33591  1.0000
  C   C40       1.0  0.38783  0.50407  0.33580  1.0000
  C   C41       1.0  0.37102  0.00214  0.41708  1.0000
  C   C42       1.0  0.33798  0.00245  0.41726  1.0000
  C   C43       1.0  0.32053  0.50472  0.33650  1.0000
  C   C44       1.0  0.00113  0.13766  0.41961  1.0000
  C   C45       1.0  0.00149  0.17070  0.41885  1.0000
  C   C46       1.0  0.50354  0.18787  0.33754  1.0000
  C   C47       1.0  0.11982  0.50565  0.33281  1.0000
  C   C48       1.0  0.18702  0.50556  0.32628  1.0000
  C   C49       1.0  0.17069  0.49564  0.40403  1.0000
  C   C50       1.0  0.13767  0.49581  0.40751  1.0000
  C   C51       1.0  0.50455  0.38859  0.32787  1.0000
  C   C52       1.0  0.49472  0.37098  0.40304  1.0000
  C   C53       1.0  0.49422  0.33796  0.40018  1.0000
  C   C54       1.0  0.50372  0.32135  0.32250  1.0000
  H   H19       1.0  0.48636  0.32614  0.45550  1.0000
  H   H20       1.0  0.48756  0.38212  0.46028  1.0000
  H   H21       1.0  0.39948  0.44158  0.31951  1.0000
  H   H22       1.0  0.48443  0.48502  0.34415  1.0000
  H   H23       1.0  0.02302  0.02432  0.32675  1.0000
  H   H24       1.0  0.06824  0.39953  0.33067  1.0000
  H   H25       1.0  0.10987  0.44183  0.32892  1.0000
  H   H26       1.0  0.12671  0.48820  0.46454  1.0000
  H   H27       1.0  0.18272  0.48760  0.45875  1.0000
  H   H28       1.0  0.10775  0.06819  0.35176  1.0000
  H   H29       1.0  0.99956  0.12613  0.47963  1.0000
  H   H30       1.0  0.99957  0.18200  0.47898  1.0000
  H   H31       1.0  0.32689  0.00040  0.47768  1.0000
  H   H32       1.0  0.38273  0.00055  0.47680  1.0000
  N   N7        1.0  0.01243  0.27256  0.39723  1.0000
  C   C55       1.0  0.01313  0.24094  0.40724  1.0000
  H   H33       1.0  0.02110  0.23197  0.46639  1.0000
  N   N8        1.0  0.23616  0.01398  0.39937  1.0000
  C   C56       1.0  0.26782  0.01451  0.40816  1.0000
  H   H34       1.0  0.27710  0.02231  0.46712  1.0000
  C   C57       1.0  0.43747  0.97529  0.33296  1.0000
  C   C58       1.0  0.03426  0.93763  0.33197  1.0000
  C   C59       1.0  0.50269  0.58708  0.33884  1.0000
  C   C60       1.0  0.47310  0.57179  0.33799  1.0000
  C   C61       1.0  0.42109  0.56342  0.33877  1.0000
  C   C62       1.0  0.44382  0.58649  0.33847  1.0000
  C   C63       1.0  0.33783  0.00623  0.25531  1.0000
  C   C64       1.0  0.37086  0.00606  0.25478  1.0000
  C   C65       1.0  0.50279  0.62058  0.33873  1.0000
  C   C66       1.0  0.50492  0.67029  0.25683  1.0000
  C   C67       1.0  0.50467  0.63727  0.25724  1.0000
  C   C68       1.0  0.13593  0.51623  0.25575  1.0000
  C   C69       1.0  0.16894  0.51665  0.25320  1.0000
  C   C70       1.0  0.01440  0.87220  0.25047  1.0000
  C   C71       1.0  0.01452  0.83917  0.24856  1.0000
  H   H35       1.0  0.02292  0.82831  0.19239  1.0000
  H   H36       1.0  0.02202  0.88425  0.19527  1.0000
  H   H37       1.0  0.44166  0.89988  0.31543  1.0000
  H   H38       1.0  0.12369  0.52393  0.20096  1.0000
  H   H39       1.0  0.17961  0.52534  0.19708  1.0000
  H   H40       1.0  0.06543  0.60976  0.35266  1.0000
  H   H41       1.0  0.39748  0.56756  0.33882  1.0000
  H   H42       1.0  0.43934  0.61004  0.33908  1.0000
  H   H43       1.0  0.50591  0.62548  0.19756  1.0000
  H   H44       1.0  0.50660  0.68137  0.19619  1.0000
  H   H45       1.0  0.38247  0.00756  0.19487  1.0000
  H   H46       1.0  0.32653  0.00810  0.19505  1.0000
  C   C72       1.0  0.50322  0.78777  0.32135  1.0000
  C   C73       1.0  0.50380  0.72152  0.33526  1.0000
  N   N9        1.0  0.49459  0.73686  0.25967  1.0000
  C   C74       1.0  0.49395  0.76856  0.24802  1.0000
  C   C75       1.0  0.48219  0.77998  0.16834  1.0000
  O   O5        1.0  0.49073  0.76674  0.09969  1.0000
  O   O6        1.0  0.45166  0.78734  0.17037  1.0000
  C   C76       1.0  0.44388  0.81538  0.12143  1.0000
  H   H47       1.0  0.41871  0.81925  0.12758  1.0000
  H   H48       1.0  0.44944  0.81305  0.05019  1.0000
  H   H49       1.0  0.95588  0.83590  0.14870  1.0000
  C   C77       1.0  0.22058  0.00500  0.32391  1.0000
  C   C78       1.0  0.28687  0.00516  0.33539  1.0000
  N   N10       1.0  0.27116  0.99616  0.26021  1.0000
  C   C79       1.0  0.23940  0.99575  0.24973  1.0000
  C   C80       1.0  0.22746  0.98415  0.17031  1.0000
  O   O7        1.0  0.24029  0.99333  0.10175  1.0000
  O   O8        1.0  0.22042  0.95359  0.17302  1.0000
  C   C81       1.0  0.19221  0.94557  0.12521  1.0000
  H   H50       1.0  0.18855  0.92038  0.13169  1.0000
  H   H51       1.0  0.19416  0.95109  0.05385  1.0000
  H   H52       1.0  0.17173  0.45745  0.15320  1.0000
  C   C82       1.0  0.44600  0.92331  0.32268  1.0000
  C   C83       1.0  0.42296  0.94605  0.32482  1.0000
  N   N11       1.0  0.46869  0.96913  0.33624  1.0000
  C   C84       1.0  0.47520  0.93801  0.33045  1.0000
  C   C85       1.0  0.50467  0.92219  0.33055  1.0000
  N   N12       1.0  0.04014  0.96883  0.33340  1.0000
  C   C86       1.0  0.07125  0.97519  0.33290  1.0000
  C   C87       1.0  0.08629  0.94610  0.33038  1.0000
  C   C88       1.0  0.06360  0.92303  0.33147  1.0000
  C   C89       1.0  0.08622  0.00501  0.33472  1.0000
  C   C90       1.0  0.06997  0.53420  0.33793  1.0000
  N   N13       1.0  0.03872  0.54024  0.33498  1.0000
  C   C91       1.0  0.03215  0.57135  0.33976  1.0000
  C   C92       1.0  0.06124  0.58625  0.34660  1.0000
  C   C93       1.0  0.08432  0.56355  0.34616  1.0000
  N   N14       1.0  0.46728  0.54061  0.33750  1.0000
  C   C94       1.0  0.43619  0.53434  0.33775  1.0000
  C   C95       1.0  0.42133  0.00452  0.33591  1.0000
  C   C96       1.0  0.38783  0.00407  0.33580  1.0000
  C   C97       1.0  0.37102  0.50214  0.41708  1.0000
  C   C98       1.0  0.33798  0.50245  0.41726  1.0000
  C   C99       1.0  0.32053  0.00472  0.33650  1.0000
  C   C100      1.0  0.00113  0.63766  0.41961  1.0000
  C   C101      1.0  0.00149  0.67070  0.41885  1.0000
  C   C102      1.0  0.50354  0.68787  0.33754  1.0000
  C   C103      1.0  0.11982  0.00564  0.33281  1.0000
  C   C104      1.0  0.18702  0.00556  0.32628  1.0000
  C   C105      1.0  0.17069  0.99564  0.40403  1.0000
  C   C106      1.0  0.13767  0.99581  0.40751  1.0000
  C   C107      1.0  0.50455  0.88858  0.32787  1.0000
  C   C108      1.0  0.49472  0.87098  0.40304  1.0000
  C   C109      1.0  0.49422  0.83796  0.40018  1.0000
  C   C110      1.0  0.50372  0.82135  0.32250  1.0000
  H   H53       1.0  0.48636  0.82613  0.45550  1.0000
  H   H54       1.0  0.48756  0.88212  0.46028  1.0000
  H   H55       1.0  0.39948  0.94158  0.31951  1.0000
  H   H56       1.0  0.48443  0.98502  0.34415  1.0000
  H   H57       1.0  0.02302  0.52432  0.32675  1.0000
  H   H58       1.0  0.06824  0.89953  0.33067  1.0000
  H   H59       1.0  0.10987  0.94183  0.32892  1.0000
  H   H60       1.0  0.12671  0.98820  0.46454  1.0000
  H   H61       1.0  0.18272  0.98760  0.45875  1.0000
  H   H62       1.0  0.10775  0.56819  0.35176  1.0000
  H   H63       1.0  0.99956  0.62613  0.47963  1.0000
  H   H64       1.0  0.99957  0.68201  0.47898  1.0000
  H   H65       1.0  0.32689  0.50040  0.47768  1.0000
  H   H66       1.0  0.38273  0.50055  0.47680  1.0000
  N   N15       1.0  0.01243  0.77256  0.39723  1.0000
  C   C111      1.0  0.01313  0.74094  0.40724  1.0000
  H   H67       1.0  0.02110  0.73196  0.46639  1.0000
  N   N16       1.0  0.23616  0.51398  0.39937  1.0000
  C   C112      1.0  0.26782  0.51451  0.40816  1.0000
  H   H68       1.0  0.27710  0.52231  0.46712  1.0000
  C   C113      1.0  0.93747  0.47529  0.33296  1.0000
  C   C114      1.0  0.53426  0.43763  0.33197  1.0000
  C   C115      1.0  0.00269  0.08708  0.33884  1.0000
  C   C116      1.0  0.97310  0.07179  0.33799  1.0000
  C   C117      1.0  0.92109  0.06342  0.33877  1.0000
  C   C118      1.0  0.94382  0.08649  0.33847  1.0000
  C   C119      1.0  0.83783  0.50623  0.25531  1.0000
  C   C120      1.0  0.87086  0.50606  0.25478  1.0000
  C   C121      1.0  0.00279  0.12058  0.33873  1.0000
  C   C122      1.0  0.00492  0.17029  0.25683  1.0000
  C   C123      1.0  0.00467  0.13727  0.25724  1.0000
  C   C124      1.0  0.63593  0.01623  0.25575  1.0000
  C   C125      1.0  0.66894  0.01665  0.25320  1.0000
  C   C126      1.0  0.51440  0.37220  0.25047  1.0000
  C   C127      1.0  0.51452  0.33917  0.24856  1.0000
  H   H69       1.0  0.52292  0.32831  0.19239  1.0000
  H   H70       1.0  0.52202  0.38425  0.19527  1.0000
  H   H71       1.0  0.94166  0.39988  0.31543  1.0000
  H   H72       1.0  0.62369  0.02393  0.20096  1.0000
  H   H73       1.0  0.67961  0.02534  0.19708  1.0000
  H   H74       1.0  0.56543  0.10976  0.35266  1.0000
  H   H75       1.0  0.89748  0.06757  0.33882  1.0000
  H   H76       1.0  0.93934  0.11004  0.33908  1.0000
  H   H77       1.0  0.00591  0.12548  0.19756  1.0000
  H   H78       1.0  0.00660  0.18137  0.19619  1.0000
  H   H79       1.0  0.88247  0.50756  0.19487  1.0000
  H   H80       1.0  0.82653  0.50810  0.19505  1.0000
  C   C128      1.0  0.00322  0.28777  0.32135  1.0000
  C   C129      1.0  0.00380  0.22152  0.33526  1.0000
  N   N17       1.0  0.99458  0.23686  0.25967  1.0000
  C   C130      1.0  0.99395  0.26856  0.24802  1.0000
  C   C131      1.0  0.98219  0.27998  0.16834  1.0000
  O   O9        1.0  0.99073  0.26674  0.09969  1.0000
  O   O10       1.0  0.95166  0.28734  0.17037  1.0000
  C   C132      1.0  0.94388  0.31538  0.12143  1.0000
  H   H81       1.0  0.91870  0.31925  0.12758  1.0000
  H   H82       1.0  0.94944  0.31305  0.05019  1.0000
  H   H83       1.0  0.45588  0.33590  0.14870  1.0000
  C   C133      1.0  0.72058  0.50500  0.32391  1.0000
  C   C134      1.0  0.78687  0.50516  0.33539  1.0000
  N   N18       1.0  0.77116  0.49616  0.26021  1.0000
  C   C135      1.0  0.73940  0.49575  0.24973  1.0000
  C   C136      1.0  0.72746  0.48415  0.17031  1.0000
  O   O11       1.0  0.74029  0.49333  0.10175  1.0000
  O   O12       1.0  0.72042  0.45359  0.17302  1.0000
  C   C137      1.0  0.69221  0.44557  0.12521  1.0000
  H   H84       1.0  0.68855  0.42038  0.13169  1.0000
  H   H85       1.0  0.69417  0.45109  0.05385  1.0000
  H   H86       1.0  0.67173  0.95745  0.15320  1.0000
  C   C138      1.0  0.94600  0.42331  0.32268  1.0000
  C   C139      1.0  0.92296  0.44605  0.32482  1.0000
  N   N19       1.0  0.96869  0.46913  0.33624  1.0000
  C   C140      1.0  0.97520  0.43801  0.33045  1.0000
  C   C141      1.0  0.00467  0.42219  0.33055  1.0000
  N   N20       1.0  0.54014  0.46883  0.33340  1.0000
  C   C142      1.0  0.57125  0.47519  0.33290  1.0000
  C   C143      1.0  0.58629  0.44610  0.33038  1.0000
  C   C144      1.0  0.56360  0.42303  0.33147  1.0000
  C   C145      1.0  0.58622  0.50501  0.33472  1.0000
  C   C146      1.0  0.56997  0.03420  0.33793  1.0000
  N   N21       1.0  0.53872  0.04024  0.33498  1.0000
  C   C147      1.0  0.53215  0.07135  0.33976  1.0000
  C   C148      1.0  0.56124  0.08625  0.34660  1.0000
  C   C149      1.0  0.58432  0.06355  0.34616  1.0000
  N   N22       1.0  0.96728  0.04061  0.33750  1.0000
  C   C150      1.0  0.93619  0.03434  0.33775  1.0000
  C   C151      1.0  0.92133  0.50453  0.33591  1.0000
  C   C152      1.0  0.88783  0.50407  0.33580  1.0000
  C   C153      1.0  0.87101  0.00214  0.41708  1.0000
  C   C154      1.0  0.83798  0.00245  0.41726  1.0000
  C   C155      1.0  0.82053  0.50472  0.33650  1.0000
  C   C156      1.0  0.50113  0.13766  0.41961  1.0000
  C   C157      1.0  0.50149  0.17070  0.41885  1.0000
  C   C158      1.0  0.00354  0.18787  0.33754  1.0000
  C   C159      1.0  0.61982  0.50565  0.33281  1.0000
  C   C160      1.0  0.68702  0.50556  0.32628  1.0000
  C   C161      1.0  0.67069  0.49564  0.40403  1.0000
  C   C162      1.0  0.63767  0.49581  0.40751  1.0000
  C   C163      1.0  0.00455  0.38859  0.32787  1.0000
  C   C164      1.0  0.99472  0.37098  0.40304  1.0000
  C   C165      1.0  0.99422  0.33796  0.40018  1.0000
  C   C166      1.0  0.00372  0.32135  0.32250  1.0000
  H   H87       1.0  0.98636  0.32614  0.45550  1.0000
  H   H88       1.0  0.98756  0.38212  0.46028  1.0000
  H   H89       1.0  0.89948  0.44158  0.31951  1.0000
  H   H90       1.0  0.98443  0.48502  0.34415  1.0000
  H   H91       1.0  0.52302  0.02432  0.32675  1.0000
  H   H92       1.0  0.56824  0.39953  0.33067  1.0000
  H   H93       1.0  0.60987  0.44183  0.32892  1.0000
  H   H94       1.0  0.62671  0.48820  0.46454  1.0000
  H   H95       1.0  0.68272  0.48760  0.45875  1.0000
  H   H96       1.0  0.60775  0.06819  0.35176  1.0000
  H   H97       1.0  0.49956  0.12613  0.47963  1.0000
  H   H98       1.0  0.49957  0.18200  0.47898  1.0000
  H   H99       1.0  0.82689  0.00040  0.47768  1.0000
  H   H100      1.0  0.88274  0.00055  0.47680  1.0000
  N   N23       1.0  0.51243  0.27256  0.39723  1.0000
  C   C167      1.0  0.51313  0.24094  0.40724  1.0000
  H   H101      1.0  0.52110  0.23197  0.46639  1.0000
  N   N24       1.0  0.73616  0.01398  0.39937  1.0000
  C   C168      1.0  0.76782  0.01451  0.40816  1.0000
  H   H102      1.0  0.77710  0.02231  0.46712  1.0000
  C   C169      1.0  0.93747  0.97529  0.33296  1.0000
  C   C170      1.0  0.53426  0.93763  0.33197  1.0000
  C   C171      1.0  0.00269  0.58708  0.33884  1.0000
  C   C172      1.0  0.97310  0.57179  0.33799  1.0000
  C   C173      1.0  0.92109  0.56342  0.33877  1.0000
  C   C174      1.0  0.94382  0.58649  0.33847  1.0000
  C   C175      1.0  0.83783  0.00623  0.25531  1.0000
  C   C176      1.0  0.87086  0.00606  0.25478  1.0000
  C   C177      1.0  0.00279  0.62058  0.33873  1.0000
  C   C178      1.0  0.00492  0.67029  0.25683  1.0000
  C   C179      1.0  0.00467  0.63727  0.25724  1.0000
  C   C180      1.0  0.63593  0.51623  0.25575  1.0000
  C   C181      1.0  0.66894  0.51665  0.25320  1.0000
  C   C182      1.0  0.51440  0.87220  0.25047  1.0000
  C   C183      1.0  0.51452  0.83917  0.24856  1.0000
  H   H103      1.0  0.52292  0.82831  0.19239  1.0000
  H   H104      1.0  0.52202  0.88425  0.19527  1.0000
  H   H105      1.0  0.94166  0.89988  0.31543  1.0000
  H   H106      1.0  0.62369  0.52393  0.20096  1.0000
  H   H107      1.0  0.67961  0.52534  0.19708  1.0000
  H   H108      1.0  0.56543  0.60976  0.35266  1.0000
  H   H109      1.0  0.89748  0.56756  0.33882  1.0000
  H   H110      1.0  0.93934  0.61004  0.33908  1.0000
  H   H111      1.0  0.00591  0.62548  0.19756  1.0000
  H   H112      1.0  0.00660  0.68137  0.19619  1.0000
  H   H113      1.0  0.88247  0.00756  0.19487  1.0000
  H   H114      1.0  0.82653  0.00810  0.19505  1.0000
  C   C184      1.0  0.00322  0.78777  0.32135  1.0000
  C   C185      1.0  0.00380  0.72152  0.33526  1.0000
  N   N25       1.0  0.99458  0.73686  0.25967  1.0000
  C   C186      1.0  0.99395  0.76856  0.24802  1.0000
  C   C187      1.0  0.98219  0.77998  0.16834  1.0000
  O   O13       1.0  0.99073  0.76674  0.09969  1.0000
  O   O14       1.0  0.95166  0.78734  0.17037  1.0000
  C   C188      1.0  0.94388  0.81538  0.12143  1.0000
  H   H115      1.0  0.91870  0.81925  0.12758  1.0000
  H   H116      1.0  0.94944  0.81305  0.05019  1.0000
  H   H117      1.0  0.45588  0.83590  0.14870  1.0000
  C   C189      1.0  0.72058  0.00500  0.32391  1.0000
  C   C190      1.0  0.78687  0.00516  0.33539  1.0000
  N   N26       1.0  0.77116  0.99616  0.26021  1.0000
  C   C191      1.0  0.73940  0.99575  0.24973  1.0000
  C   C192      1.0  0.72746  0.98415  0.17031  1.0000
  O   O15       1.0  0.74029  0.99333  0.10175  1.0000
  O   O16       1.0  0.72042  0.95359  0.17302  1.0000
  C   C193      1.0  0.69221  0.94557  0.12521  1.0000
  H   H118      1.0  0.68855  0.92038  0.13169  1.0000
  H   H119      1.0  0.69417  0.95109  0.05385  1.0000
  H   H120      1.0  0.67173  0.45745  0.15320  1.0000
  C   C194      1.0  0.94600  0.92331  0.32268  1.0000
  C   C195      1.0  0.92296  0.94605  0.32482  1.0000
  N   N27       1.0  0.96869  0.96913  0.33624  1.0000
  C   C196      1.0  0.97520  0.93801  0.33045  1.0000
  C   C197      1.0  0.00467  0.92219  0.33055  1.0000
  N   N28       1.0  0.54014  0.96883  0.33340  1.0000
  C   C198      1.0  0.57125  0.97519  0.33290  1.0000
  C   C199      1.0  0.58629  0.94610  0.33038  1.0000
  C   C200      1.0  0.56360  0.92303  0.33147  1.0000
  C   C201      1.0  0.58622  0.00501  0.33472  1.0000
  C   C202      1.0  0.56997  0.53420  0.33793  1.0000
  N   N29       1.0  0.53872  0.54024  0.33498  1.0000
  C   C203      1.0  0.53215  0.57135  0.33976  1.0000
  C   C204      1.0  0.56124  0.58625  0.34660  1.0000
  C   C205      1.0  0.58432  0.56355  0.34616  1.0000
  N   N30       1.0  0.96728  0.54061  0.33750  1.0000
  C   C206      1.0  0.93619  0.53434  0.33775  1.0000
  C   C207      1.0  0.92133  0.00452  0.33591  1.0000
  C   C208      1.0  0.88783  0.00407  0.33580  1.0000
  C   C209      1.0  0.87101  0.50214  0.41708  1.0000
  C   C210      1.0  0.83798  0.50245  0.41726  1.0000
  C   C211      1.0  0.82053  0.00472  0.33650  1.0000
  C   C212      1.0  0.50113  0.63766  0.41961  1.0000
  C   C213      1.0  0.50149  0.67070  0.41885  1.0000
  C   C214      1.0  0.00354  0.68787  0.33754  1.0000
  C   C215      1.0  0.61982  0.00564  0.33281  1.0000
  C   C216      1.0  0.68702  0.00556  0.32628  1.0000
  C   C217      1.0  0.67069  0.99564  0.40403  1.0000
  C   C218      1.0  0.63767  0.99581  0.40751  1.0000
  C   C219      1.0  0.00455  0.88858  0.32787  1.0000
  C   C220      1.0  0.99472  0.87098  0.40304  1.0000
  C   C221      1.0  0.99422  0.83796  0.40018  1.0000
  C   C222      1.0  0.00372  0.82135  0.32250  1.0000
  H   H121      1.0  0.98636  0.82613  0.45550  1.0000
  H   H122      1.0  0.98756  0.88212  0.46028  1.0000
  H   H123      1.0  0.89948  0.94158  0.31951  1.0000
  H   H124      1.0  0.98443  0.98502  0.34415  1.0000
  H   H125      1.0  0.52302  0.52432  0.32675  1.0000
  H   H126      1.0  0.56824  0.89953  0.33067  1.0000
  H   H127      1.0  0.60987  0.94183  0.32892  1.0000
  H   H128      1.0  0.62671  0.98820  0.46454  1.0000
  H   H129      1.0  0.68272  0.98760  0.45875  1.0000
  H   H130      1.0  0.60775  0.56819  0.35176  1.0000
  H   H131      1.0  0.49956  0.62613  0.47963  1.0000
  H   H132      1.0  0.49957  0.68201  0.47898  1.0000
  H   H133      1.0  0.82689  0.50040  0.47768  1.0000
  H   H134      1.0  0.88274  0.50055  0.47680  1.0000
  N   N31       1.0  0.51243  0.77256  0.39723  1.0000
  C   C223      1.0  0.51313  0.74094  0.40724  1.0000
  H   H135      1.0  0.52110  0.73196  0.46639  1.0000
  N   N32       1.0  0.73616  0.51398  0.39937  1.0000
  C   C224      1.0  0.76782  0.51451  0.40816  1.0000
  H   H136      1.0  0.77710  0.52231  0.46712  1.0000
