data_image0
_chemical_formula_structural       C17H12C17H12C4H2C4H2C4H2C13H9C13H9C2NOCHC2NOCHC2NOCH
_chemical_formula_sum              "C81 H51 N3 O3"
_cell_length_a       37.4197
_cell_length_b       37.3945
_cell_length_c       14.8589
_cell_angle_alpha    90
_cell_angle_beta     90
_cell_angle_gamma    120.036

_space_group_name_H-M_alt    "P 1"
_space_group_IT_number       1

loop_
  _space_group_symop_operation_xyz
  'x, y, z'

loop_
  _atom_site_type_symbol
  _atom_site_label
  _atom_site_symmetry_multiplicity
  _atom_site_fract_x
  _atom_site_fract_y
  _atom_site_fract_z
  _atom_site_occupancy
  C   C1        1.0  0.47339  0.89246  0.29664  1.0000
  C   C2        1.0  0.45130  0.84898  0.30090  1.0000
  C   C3        1.0  0.38787  0.75770  0.29446  1.0000
  C   C4        1.0  0.36445  0.71511  0.30388  1.0000
  C   C5        1.0  0.32089  0.69510  0.30750  1.0000
  C   C6        1.0  0.29627  0.65145  0.30728  1.0000
  C   C7        1.0  0.31644  0.62796  0.30233  1.0000
  C   C8        1.0  0.35998  0.64724  0.29979  1.0000
  C   C9        1.0  0.38366  0.69085  0.29956  1.0000
  C   C10       1.0  0.37898  0.62374  0.28904  1.0000
  C   C11       1.0  0.42294  0.59754  0.34500  1.0000
  C   C12       1.0  0.40735  0.56058  0.29438  1.0000
  C   C13       1.0  0.42864  0.53841  0.29036  1.0000
  C   C14       1.0  0.25333  0.63321  0.30364  1.0000
  C   C15       1.0  0.18372  0.58101  0.34118  1.0000
  C   C16       1.0  0.15906  0.53988  0.31103  1.0000
  C   C17       1.0  0.11575  0.52127  0.30780  1.0000
  H   H1        1.0  0.50028  0.90669  0.26050  1.0000
  H   H2        1.0  0.46303  0.83315  0.26773  1.0000
  H   H3        1.0  0.41517  0.70509  0.29390  1.0000
  H   H4        1.0  0.30687  0.71267  0.30773  1.0000
  H   H5        1.0  0.29923  0.59640  0.29825  1.0000
  H   H6        1.0  0.41590  0.51145  0.25443  1.0000
  H   H7        1.0  0.37979  0.54883  0.26117  1.0000
  H   H8        1.0  0.09892  0.49121  0.28700  1.0000
  H   H9        1.0  0.17243  0.52302  0.29139  1.0000
  H   H10       1.0  0.37527  0.60981  0.23001  1.0000
  H   H11       1.0  0.40156  0.76826  0.23533  1.0000
  H   H12       1.0  0.24201  0.64748  0.26663  1.0000
  C   C18       1.0  0.54064  0.11685  0.29607  1.0000
  C   C19       1.0  0.56275  0.16033  0.29998  1.0000
  C   C20       1.0  0.62609  0.25164  0.29270  1.0000
  C   C21       1.0  0.64967  0.29422  0.30185  1.0000
  C   C22       1.0  0.69326  0.31407  0.30254  1.0000
  C   C23       1.0  0.71777  0.35766  0.30283  1.0000
  C   C24       1.0  0.69789  0.38141  0.30096  1.0000
  C   C25       1.0  0.65433  0.36224  0.30046  1.0000
  C   C26       1.0  0.63055  0.31861  0.30005  1.0000
  C   C27       1.0  0.63546  0.38589  0.29041  1.0000
  C   C28       1.0  0.59136  0.41190  0.34634  1.0000
  C   C29       1.0  0.60709  0.44899  0.29606  1.0000
  C   C30       1.0  0.58579  0.47113  0.29182  1.0000
  C   C31       1.0  0.76043  0.37615  0.29510  1.0000
  C   C32       1.0  0.83032  0.42331  0.34583  1.0000
  C   C33       1.0  0.85505  0.46578  0.36657  1.0000
  C   C34       1.0  0.89844  0.48556  0.36312  1.0000
  H   H13       1.0  0.51362  0.10256  0.26038  1.0000
  H   H14       1.0  0.55094  0.17611  0.26689  1.0000
  H   H15       1.0  0.59900  0.30446  0.29592  1.0000
  H   H16       1.0  0.70732  0.29655  0.30031  1.0000
  H   H17       1.0  0.71533  0.41298  0.29729  1.0000
  H   H18       1.0  0.59861  0.49815  0.25606  1.0000
  H   H19       1.0  0.63474  0.46081  0.26321  1.0000
  H   H20       1.0  0.91518  0.51640  0.37801  1.0000
  H   H21       1.0  0.84166  0.48283  0.38461  1.0000
  H   H22       1.0  0.63939  0.40014  0.23172  1.0000
  H   H23       1.0  0.61215  0.24103  0.23381  1.0000
  H   H24       1.0  0.77113  0.36739  0.24334  1.0000
  C   C35       1.0  0.52781  0.48090  0.33832  1.0000
  C   C36       1.0  0.48641  0.52846  0.33777  1.0000
  C   C37       1.0  0.49681  0.51609  0.25636  1.0000
  C   C38       1.0  0.51756  0.49322  0.25661  1.0000
  H   H25       1.0  0.52451  0.48498  0.19623  1.0000
  H   H26       1.0  0.49000  0.52432  0.19582  1.0000
  C   C39       1.0  0.53088  0.04918  0.34328  1.0000
  C   C40       1.0  0.48323  0.96021  0.34344  1.0000
  C   C41       1.0  0.49556  0.98284  0.26184  1.0000
  C   C42       1.0  0.51847  0.02648  0.26174  1.0000
  H   H27       1.0  0.52671  0.04158  0.20124  1.0000
  H   H28       1.0  0.48728  0.96767  0.20141  1.0000
  C   C43       1.0  0.96260  0.48343  0.33718  1.0000
  C   C44       1.0  0.05160  0.52342  0.33568  1.0000
  C   C45       1.0  0.02771  0.50026  0.26083  1.0000
  C   C46       1.0  0.98416  0.48059  0.26160  1.0000
  H   H29       1.0  0.96827  0.46463  0.20556  1.0000
  H   H30       1.0  0.04192  0.49790  0.20413  1.0000
  C   C47       1.0  0.45989  0.91620  0.34454  1.0000
  C   C48       1.0  0.41439  0.82762  0.35164  1.0000
  C   C49       1.0  0.40081  0.85155  0.39882  1.0000
  C   C50       1.0  0.42317  0.89501  0.39554  1.0000
  C   C51       1.0  0.39215  0.78456  0.35966  1.0000
  C   C52       1.0  0.40214  0.61978  0.35330  1.0000
  C   C53       1.0  0.46042  0.61109  0.39228  1.0000
  C   C54       1.0  0.46582  0.55185  0.33850  1.0000
  C   C55       1.0  0.48141  0.58865  0.38930  1.0000
  C   C56       1.0  0.22632  0.59844  0.34703  1.0000
  C   C57       1.0  0.16386  0.60289  0.36880  1.0000
  C   C58       1.0  0.09562  0.54288  0.33609  1.0000
  C   C59       1.0  0.12053  0.58409  0.36620  1.0000
  H   H31       1.0  0.41218  0.91109  0.43048  1.0000
  H   H32       1.0  0.37441  0.83750  0.43671  1.0000
  H   H33       1.0  0.18077  0.63257  0.39203  1.0000
  H   H34       1.0  0.47283  0.63752  0.43013  1.0000
  H   H35       1.0  0.50845  0.59964  0.42436  1.0000
  H   H36       1.0  0.10732  0.60103  0.38610  1.0000
  H   H37       1.0  0.40559  0.63470  0.41110  1.0000
  H   H38       1.0  0.37750  0.77293  0.41763  1.0000
  H   H39       1.0  0.23687  0.58361  0.38431  1.0000
  C   C60       1.0  0.55423  0.09318  0.34398  1.0000
  C   C61       1.0  0.59979  0.18178  0.35024  1.0000
  C   C62       1.0  0.61347  0.15792  0.39738  1.0000
  C   C63       1.0  0.59108  0.11446  0.39451  1.0000
  C   C64       1.0  0.62209  0.22486  0.35785  1.0000
  C   C65       1.0  0.61208  0.38958  0.35454  1.0000
  C   C66       1.0  0.55373  0.39825  0.39311  1.0000
  C   C67       1.0  0.54844  0.45755  0.33936  1.0000
  C   C68       1.0  0.53273  0.42067  0.38991  1.0000
  C   C69       1.0  0.78743  0.40428  0.35331  1.0000
  C   C70       1.0  0.85060  0.40127  0.32198  1.0000
  C   C71       1.0  0.91866  0.46359  0.33873  1.0000
  C   C72       1.0  0.89399  0.42117  0.31762  1.0000
  H   H40       1.0  0.60213  0.09843  0.42944  1.0000
  H   H41       1.0  0.63997  0.17203  0.43493  1.0000
  H   H42       1.0  0.83397  0.37027  0.30877  1.0000
  H   H43       1.0  0.54122  0.37174  0.43069  1.0000
  H   H44       1.0  0.50559  0.40961  0.42459  1.0000
  H   H45       1.0  0.90748  0.40402  0.30144  1.0000
  H   H46       1.0  0.60834  0.37432  0.41198  1.0000
  H   H47       1.0  0.63705  0.23659  0.41548  1.0000
  H   H48       1.0  0.77626  0.41293  0.40445  1.0000
  C   C73       1.0  0.51696  0.49297  0.41927  1.0000
  C   C74       1.0  0.49721  0.51620  0.41846  1.0000
  N   N1        1.0  0.49115  0.52250  0.50397  1.0000
  O   O1        1.0  0.52434  0.48522  0.50488  1.0000
  C   C75       1.0  0.50728  0.50401  0.55337  1.0000
  H   H49       1.0  0.50704  0.50415  0.62209  1.0000
  C   C76       1.0  0.51887  0.02641  0.42443  1.0000
  C   C77       1.0  0.49557  0.98339  0.42396  1.0000
  N   N2        1.0  0.48932  0.97116  0.50956  1.0000
  O   O2        1.0  0.52667  0.04168  0.50992  1.0000
  C   C78       1.0  0.50788  0.00589  0.55870  1.0000
  H   H50       1.0  0.50781  0.00562  0.62742  1.0000
  C   C79       1.0  0.98650  0.50637  0.41183  1.0000
  C   C80       1.0  0.02946  0.52540  0.41080  1.0000
  N   N3        1.0  0.04264  0.54268  0.49137  1.0000
  O   O3        1.0  0.97231  0.51146  0.49255  1.0000
  C   C81       1.0  0.00862  0.53440  0.53783  1.0000
  H   H51       1.0  0.00971  0.54375  0.60283  1.0000
