data_image0
_chemical_formula_structural       C14H12C7NC12H12C2NC3NC3NC15H14NCHNCHNCHNCHNCHNCHC3NC2NC5NC3NC17H14CNC2NC4NC18H14C2NC19H12C2NC2O2CH3C2NC2O2CH3C2NC2O2CH3C2NC2O2CH3C2NC2O2CH3C2NC2O2CH3
_chemical_formula_sum              "C168 H102 N24 O12"
_cell_length_a       41.6375
_cell_length_b       41.6375
_cell_length_c       14.9811
_cell_angle_alpha    90.0374
_cell_angle_beta     89.9626
_cell_angle_gamma    120

_space_group_name_H-M_alt    "P 1"
_space_group_IT_number       1

loop_
  _space_group_symop_operation_xyz
  'x, y, z'

loop_
  _atom_site_type_symbol
  _atom_site_label
  _atom_site_symmetry_multiplicity
  _atom_site_fract_x
  _atom_site_fract_y
  _atom_site_fract_z
  _atom_site_occupancy
  C   C1        1.0  0.95121  0.55015  0.32791  1.0000
  C   C2        1.0  0.09936  0.53669  0.33484  1.0000
  C   C3        1.0  0.11171  0.57511  0.32743  1.0000
  C   C4        1.0  0.14881  0.63669  0.31550  1.0000
  C   C5        1.0  0.14829  0.60333  0.31409  1.0000
  C   C6        1.0  0.16662  0.75522  0.27720  1.0000
  C   C7        1.0  0.13658  0.71864  0.27417  1.0000
  C   C8        1.0  0.12709  0.52622  0.33644  1.0000
  C   C9        1.0  0.17012  0.51256  0.25662  1.0000
  C   C10       1.0  0.13942  0.51808  0.25638  1.0000
  C   C11       1.0  0.92661  0.40661  0.27411  1.0000
  C   C12       1.0  0.89669  0.36997  0.27709  1.0000
  C   C13       1.0  0.92353  0.60726  0.25681  1.0000
  C   C14       1.0  0.89271  0.61259  0.25712  1.0000
  H   H1        1.0  0.88448  0.61811  0.19758  1.0000
  H   H2        1.0  0.93610  0.60808  0.19739  1.0000
  H   H3        1.0  0.99769  0.66617  0.37173  1.0000
  H   H4        1.0  0.94297  0.41550  0.21825  1.0000
  H   H5        1.0  0.89235  0.35303  0.22344  1.0000
  H   H6        1.0  0.06525  0.45920  0.37245  1.0000
  H   H7        1.0  0.17213  0.66203  0.30761  1.0000
  H   H8        1.0  0.17118  0.60060  0.30559  1.0000
  H   H9        1.0  0.12695  0.51739  0.19695  1.0000
  H   H10       1.0  0.17837  0.50704  0.19704  1.0000
  H   H11       1.0  0.12029  0.70979  0.21823  1.0000
  H   H12       1.0  0.17113  0.77214  0.22346  1.0000
  C   C15       1.0  0.43957  0.45238  0.36240  1.0000
  C   C16       1.0  0.44629  0.50921  0.34711  1.0000
  C   C17       1.0  0.54342  0.49390  0.32709  1.0000
  C   C18       1.0  0.61559  0.61411  0.34678  1.0000
  C   C19       1.0  0.62232  0.67095  0.36197  1.0000
  C   C20       1.0  0.55687  0.65550  0.33444  1.0000
  C   C21       1.0  0.51844  0.62941  0.32727  1.0000
  N   N1        1.0  0.50157  0.59218  0.33656  1.0000
  C   C22       1.0  0.45686  0.60489  0.31515  1.0000
  C   C23       1.0  0.49022  0.63774  0.31379  1.0000
  C   C24       1.0  0.33837  0.50418  0.27701  1.0000
  C   C25       1.0  0.37493  0.51067  0.27399  1.0000
  C   C26       1.0  0.56732  0.69369  0.33613  1.0000
  C   C27       1.0  0.57853  0.76724  0.33637  1.0000
  C   C28       1.0  0.58111  0.75041  0.25642  1.0000
  C   C29       1.0  0.57554  0.71417  0.25611  1.0000
  C   C30       1.0  0.68699  0.61271  0.27407  1.0000
  C   C31       1.0  0.72360  0.61934  0.27720  1.0000
  C   C32       1.0  0.48653  0.40916  0.25600  1.0000
  C   C33       1.0  0.48122  0.37302  0.25625  1.0000
  H   H13       1.0  0.47583  0.35930  0.19665  1.0000
  H   H14       1.0  0.48582  0.42093  0.19657  1.0000
  H   H15       1.0  0.42747  0.42439  0.37188  1.0000
  H   H16       1.0  0.67816  0.62017  0.21815  1.0000
  H   H17       1.0  0.74058  0.63189  0.22359  1.0000
  H   H18       1.0  0.63440  0.69893  0.37164  1.0000
  H   H19       1.0  0.43152  0.60284  0.30703  1.0000
  H   H20       1.0  0.49295  0.66334  0.30498  1.0000
  H   H21       1.0  0.57631  0.70240  0.19669  1.0000
  H   H22       1.0  0.58669  0.76417  0.19688  1.0000
  H   H23       1.0  0.38380  0.50326  0.21798  1.0000
  H   H24       1.0  0.32144  0.49175  0.22326  1.0000
  C   C34       1.0  0.64129  0.08008  0.36164  1.0000
  C   C35       1.0  0.58445  0.02996  0.34662  1.0000
  N   N2        1.0  0.58267  0.06137  0.33580  1.0000
  C   C36       1.0  0.62583  0.13009  0.33434  1.0000
  C   C37       1.0  0.59973  0.14242  0.32705  1.0000
  C   C38       1.0  0.47949  0.09437  0.34618  1.0000
  N   N3        1.0  0.48125  0.06296  0.33537  1.0000
  C   C39       1.0  0.42263  0.04426  0.36110  1.0000
  C   C40       1.0  0.43811  0.99423  0.33439  1.0000
  C   C41       1.0  0.46421  0.98188  0.32742  1.0000
  N   N4        1.0  0.50145  0.00225  0.33652  1.0000
  C   C42       1.0  0.48872  0.94480  0.31548  1.0000
  C   C43       1.0  0.45587  0.94530  0.31414  1.0000
  C   C44       1.0  0.56519  0.96393  0.34564  1.0000
  C   C45       1.0  0.57852  0.90304  0.35156  1.0000
  C   C46       1.0  0.58952  0.92707  0.27687  1.0000
  C   C47       1.0  0.58298  0.95711  0.27385  1.0000
  C   C48       1.0  0.39993  0.96649  0.33610  1.0000
  C   C49       1.0  0.32640  0.90412  0.33646  1.0000
  C   C50       1.0  0.34320  0.92349  0.25648  1.0000
  C   C51       1.0  0.37942  0.95420  0.25613  1.0000
  C   C52       1.0  0.48101  0.16717  0.27327  1.0000
  C   C53       1.0  0.47433  0.19712  0.27632  1.0000
  C   C54       1.0  0.68452  0.17020  0.25610  1.0000
  C   C55       1.0  0.73741  0.22044  0.33643  1.0000
  C   C56       1.0  0.72068  0.20101  0.25646  1.0000
  H   H25       1.0  0.73446  0.20927  0.19692  1.0000
  H   H26       1.0  0.67280  0.15769  0.19664  1.0000
  H   H27       1.0  0.66928  0.09599  0.37126  1.0000
  H   H28       1.0  0.56065  0.06157  0.31696  1.0000
  H   H29       1.0  0.50333  0.06271  0.31719  1.0000
  H   H30       1.0  0.47363  0.15088  0.21729  1.0000
  H   H31       1.0  0.46187  0.20157  0.22256  1.0000
  H   H32       1.0  0.39464  0.02836  0.37079  1.0000
  H   H33       1.0  0.49077  0.92151  0.30738  1.0000
  H   H34       1.0  0.43027  0.92242  0.30539  1.0000
  H   H35       1.0  0.39119  0.96666  0.19666  1.0000
  H   H36       1.0  0.32943  0.91525  0.19696  1.0000
  H   H37       1.0  0.59042  0.97339  0.21790  1.0000
  H   H38       1.0  0.60199  0.92258  0.22315  1.0000
  N   N5        1.0  0.27956  0.52253  0.27517  1.0000
  C   C57       1.0  0.24753  0.52311  0.26504  1.0000
  H   H39       1.0  0.24326  0.53303  0.20664  1.0000
  N   N6        1.0  0.57125  0.84995  0.27493  1.0000
  C   C58       1.0  0.57069  0.81734  0.26476  1.0000
  H   H40       1.0  0.56073  0.80311  0.20637  1.0000
  N   N7        1.0  0.24374  0.81406  0.27517  1.0000
  C   C59       1.0  0.27631  0.84611  0.26492  1.0000
  H   H41       1.0  0.29055  0.85035  0.20655  1.0000
  N   N8        1.0  0.78286  0.60168  0.27529  1.0000
  C   C60       1.0  0.81508  0.60146  0.26521  1.0000
  H   H42       1.0  0.81961  0.59183  0.20660  1.0000
  N   N9        1.0  0.49215  0.27411  0.27469  1.0000
  C   C61       1.0  0.49243  0.30657  0.26461  1.0000
  H   H43       1.0  0.50229  0.32082  0.20623  1.0000
  N   N10       1.0  0.81971  0.31075  0.27501  1.0000
  C   C62       1.0  0.78726  0.27857  0.26483  1.0000
  H   H44       1.0  0.77304  0.27419  0.20640  1.0000
  C   C63       1.0  0.01359  0.65409  0.36191  1.0000
  C   C64       1.0  0.05188  0.67279  0.36412  1.0000
  C   C65       1.0  0.06369  0.64733  0.34688  1.0000
  N   N11       1.0  0.03228  0.61417  0.33598  1.0000
  C   C66       1.0  0.00124  0.61676  0.34426  1.0000
  C   C67       1.0  0.96355  0.58859  0.33504  1.0000
  N   N12       1.0  0.97157  0.53328  0.33702  1.0000
  C   C68       1.0  0.95034  0.49600  0.33048  1.0000
  C   C69       1.0  0.91413  0.48857  0.31569  1.0000
  C   C70       1.0  0.91464  0.52193  0.31444  1.0000
  C   C71       1.0  0.96166  0.46918  0.34018  1.0000
  C   C72       1.0  0.99925  0.47799  0.34724  1.0000
  N   N13       1.0  0.03065  0.51118  0.33652  1.0000
  C   C73       1.0  0.06168  0.50856  0.34463  1.0000
  C   C74       1.0  0.04935  0.47128  0.36274  1.0000
  C   C75       1.0  0.01106  0.45257  0.36493  1.0000
  N   N14       1.0  0.09136  0.59200  0.33672  1.0000
  C   C76       1.0  0.11259  0.62927  0.33021  1.0000
  C   C77       1.0  0.10129  0.65609  0.34017  1.0000
  C   C78       1.0  0.12973  0.69407  0.34598  1.0000
  C   C79       1.0  0.15343  0.70701  0.42102  1.0000
  C   C80       1.0  0.18374  0.74339  0.42326  1.0000
  C   C81       1.0  0.19067  0.76826  0.35187  1.0000
  C   C82       1.0  0.14536  0.52771  0.41695  1.0000
  C   C83       1.0  0.17588  0.52194  0.41693  1.0000
  C   C84       1.0  0.18947  0.51507  0.33658  1.0000
  C   C85       1.0  0.93324  0.43119  0.34582  1.0000
  C   C86       1.0  0.87259  0.35684  0.35169  1.0000
  C   C87       1.0  0.87927  0.38174  0.42295  1.0000
  C   C88       1.0  0.90945  0.41820  0.42074  1.0000
  C   C89       1.0  0.93581  0.59903  0.33678  1.0000
  C   C90       1.0  0.91739  0.59730  0.41725  1.0000
  C   C91       1.0  0.88676  0.60290  0.41731  1.0000
  C   C92       1.0  0.87318  0.60978  0.33702  1.0000
  H   H45       1.0  0.87327  0.59990  0.47655  1.0000
  H   H46       1.0  0.92528  0.59059  0.47584  1.0000
  H   H47       1.0  0.06811  0.70061  0.37563  1.0000
  H   H48       1.0  0.03204  0.59185  0.31775  1.0000
  H   H49       1.0  0.03089  0.53332  0.31679  1.0000
  H   H50       1.0  0.89177  0.52466  0.30574  1.0000
  H   H51       1.0  0.89084  0.46323  0.30755  1.0000
  H   H52       1.0  0.91311  0.43567  0.47280  1.0000
  H   H53       1.0  0.86153  0.37400  0.47618  1.0000
  H   H54       1.0  0.99484  0.42475  0.37643  1.0000
  H   H55       1.0  0.13739  0.53431  0.47563  1.0000
  H   H56       1.0  0.18919  0.52465  0.47626  1.0000
  H   H57       1.0  0.20147  0.75105  0.47647  1.0000
  H   H58       1.0  0.14967  0.68952  0.47306  1.0000
  C   C93       1.0  0.42087  0.47197  0.36479  1.0000
  N   N15       1.0  0.47948  0.51100  0.33635  1.0000
  C   C94       1.0  0.47686  0.47735  0.34440  1.0000
  C   C95       1.0  0.50499  0.46780  0.33444  1.0000
  N   N16       1.0  0.56029  0.53112  0.33650  1.0000
  C   C96       1.0  0.59757  0.54717  0.33003  1.0000
  C   C97       1.0  0.60501  0.51840  0.31508  1.0000
  C   C98       1.0  0.57165  0.48555  0.31364  1.0000
  C   C99       1.0  0.62438  0.58530  0.33992  1.0000
  N   N17       1.0  0.58241  0.61233  0.33594  1.0000
  C   C100      1.0  0.58502  0.64598  0.34407  1.0000
  C   C101      1.0  0.64102  0.65135  0.36437  1.0000
  C   C102      1.0  0.46430  0.57613  0.33004  1.0000
  C   C103      1.0  0.43749  0.53799  0.33996  1.0000
  C   C104      1.0  0.39951  0.52845  0.34577  1.0000
  C   C105      1.0  0.38658  0.53922  0.42086  1.0000
  C   C106      1.0  0.35019  0.53313  0.42313  1.0000
  C   C107      1.0  0.32531  0.51516  0.35174  1.0000
  C   C108      1.0  0.56575  0.71047  0.41662  1.0000
  C   C109      1.0  0.57155  0.74677  0.41666  1.0000
  C   C110      1.0  0.66236  0.59485  0.34574  1.0000
  C   C111      1.0  0.73664  0.60836  0.35190  1.0000
  C   C112      1.0  0.71170  0.59029  0.42317  1.0000
  C   C113      1.0  0.67527  0.58408  0.42078  1.0000
  C   C114      1.0  0.49455  0.42961  0.33607  1.0000
  C   C115      1.0  0.49613  0.41288  0.41656  1.0000
  C   C116      1.0  0.49053  0.37665  0.41656  1.0000
  C   C117      1.0  0.48385  0.35626  0.33619  1.0000
  H   H59       1.0  0.49337  0.36612  0.47586  1.0000
  H   H60       1.0  0.50267  0.42745  0.47524  1.0000
  H   H61       1.0  0.39302  0.46036  0.37590  1.0000
  H   H62       1.0  0.50163  0.53291  0.31660  1.0000
  H   H63       1.0  0.56020  0.59033  0.31697  1.0000
  H   H64       1.0  0.56892  0.45995  0.30486  1.0000
  H   H65       1.0  0.63035  0.52045  0.30701  1.0000
  H   H66       1.0  0.65775  0.57029  0.47275  1.0000
  H   H67       1.0  0.71935  0.58023  0.47639  1.0000
  H   H68       1.0  0.66885  0.66297  0.37567  1.0000
  H   H69       1.0  0.55911  0.69590  0.47528  1.0000
  H   H70       1.0  0.56880  0.75738  0.47599  1.0000
  H   H71       1.0  0.34253  0.54321  0.47637  1.0000
  H   H72       1.0  0.40407  0.55297  0.47289  1.0000
  C   C118      1.0  0.62170  0.04179  0.36402  1.0000
  C   C119      1.0  0.61630  0.09241  0.34393  1.0000
  N   N18       1.0  0.56250  0.12206  0.33618  1.0000
  C   C120      1.0  0.54645  0.14329  0.32970  1.0000
  C   C121      1.0  0.57524  0.17951  0.31515  1.0000
  C   C122      1.0  0.60809  0.17901  0.31385  1.0000
  C   C123      1.0  0.50831  0.13196  0.33944  1.0000
  C   C124      1.0  0.44762  0.03192  0.34359  1.0000
  C   C125      1.0  0.44221  0.08255  0.36334  1.0000
  C   C126      1.0  0.51749  0.98103  0.33014  1.0000
  C   C127      1.0  0.55564  0.99236  0.33984  1.0000
  C   C128      1.0  0.55442  0.94025  0.42070  1.0000
  C   C129      1.0  0.56051  0.90995  0.42293  1.0000
  C   C130      1.0  0.38318  0.94819  0.41663  1.0000
  C   C131      1.0  0.34687  0.91771  0.41675  1.0000
  C   C132      1.0  0.49874  0.16039  0.34514  1.0000
  C   C133      1.0  0.48516  0.22111  0.35111  1.0000
  C   C134      1.0  0.50314  0.21426  0.42255  1.0000
  C   C135      1.0  0.50939  0.18407  0.42024  1.0000
  C   C136      1.0  0.66401  0.15784  0.33610  1.0000
  C   C137      1.0  0.68071  0.17616  0.41664  1.0000
  C   C138      1.0  0.71692  0.20681  0.41671  1.0000
  H   H73       1.0  0.72744  0.22019  0.47604  1.0000
  H   H74       1.0  0.66609  0.16821  0.47525  1.0000
  H   H75       1.0  0.63332  0.02557  0.37525  1.0000
  H   H76       1.0  0.63370  0.20189  0.30531  1.0000
  H   H77       1.0  0.57320  0.20282  0.30719  1.0000
  H   H78       1.0  0.52308  0.18032  0.47239  1.0000
  H   H79       1.0  0.51310  0.23196  0.47587  1.0000
  H   H80       1.0  0.43060  0.09877  0.37464  1.0000
  H   H81       1.0  0.39777  0.95614  0.47525  1.0000
  H   H82       1.0  0.33631  0.90434  0.47605  1.0000
  H   H83       1.0  0.55045  0.89224  0.47618  1.0000
  H   H84       1.0  0.54067  0.94400  0.47274  1.0000
  C   C139      1.0  0.28944  0.51155  0.35082  1.0000
  C   C140      1.0  0.22246  0.51255  0.33727  1.0000
  N   N19       1.0  0.23246  0.50145  0.41255  1.0000
  C   C141      1.0  0.26425  0.50011  0.42385  1.0000
  C   C142      1.0  0.26959  0.48646  0.50342  1.0000
  O   O1        1.0  0.25400  0.48951  0.56969  1.0000
  O   O2        1.0  0.27094  0.45506  0.49689  1.0000
  C   C143      1.0  0.29493  0.45152  0.56044  1.0000
  H   H85       1.0  0.29494  0.42585  0.54604  1.0000
  H   H86       1.0  0.28492  0.44988  0.62867  1.0000
  H   H87       1.0  0.32343  0.47445  0.55547  1.0000
  C   C144      1.0  0.58219  0.87081  0.35064  1.0000
  C   C145      1.0  0.58109  0.80278  0.33710  1.0000
  N   N20       1.0  0.59212  0.82387  0.41245  1.0000
  C   C146      1.0  0.59352  0.85703  0.42372  1.0000
  C   C147      1.0  0.60700  0.87588  0.50346  1.0000
  O   O3        1.0  0.60444  0.85761  0.56996  1.0000
  O   O4        1.0  0.63876  0.90835  0.49642  1.0000
  C   C148      1.0  0.64258  0.93647  0.55857  1.0000
  H   H88       1.0  0.66854  0.96181  0.54394  1.0000
  H   H89       1.0  0.64383  0.92842  0.62733  1.0000
  H   H90       1.0  0.62000  0.94249  0.55220  1.0000
  C   C149      1.0  0.22290  0.80415  0.35091  1.0000
  C   C150      1.0  0.29088  0.87113  0.33723  1.0000
  N   N21       1.0  0.26982  0.86110  0.41263  1.0000
  C   C151      1.0  0.23668  0.82932  0.42397  1.0000
  C   C152      1.0  0.21784  0.82400  0.50371  1.0000
  O   O5        1.0  0.23612  0.83974  0.57020  1.0000
  O   O6        1.0  0.18537  0.82330  0.49667  1.0000
  C   C153      1.0  0.15726  0.79905  0.55885  1.0000
  H   H91       1.0  0.13192  0.79967  0.54422  1.0000
  H   H92       1.0  0.16531  0.80838  0.62761  1.0000
  H   H93       1.0  0.15121  0.77044  0.55248  1.0000
  C   C154      1.0  0.77263  0.61223  0.35115  1.0000
  C   C155      1.0  0.83999  0.61196  0.33769  1.0000
  N   N22       1.0  0.82965  0.62263  0.41319  1.0000
  C   C156      1.0  0.79765  0.62359  0.42446  1.0000
  C   C157      1.0  0.79193  0.63677  0.50438  1.0000
  O   O7        1.0  0.80688  0.63304  0.57088  1.0000
  O   O8        1.0  0.79215  0.66895  0.49711  1.0000
  C   C158      1.0  0.76782  0.67319  0.55828  1.0000
  H   H94       1.0  0.76929  0.69957  0.54404  1.0000
  H   H95       1.0  0.77642  0.67379  0.62745  1.0000
  H   H96       1.0  0.73904  0.65116  0.55033  1.0000
  C   C159      1.0  0.48129  0.25322  0.35031  1.0000
  C   C160      1.0  0.48163  0.32088  0.33685  1.0000
  N   N23       1.0  0.47066  0.29975  0.41210  1.0000
  C   C161      1.0  0.46963  0.26676  0.42336  1.0000
  C   C162      1.0  0.45605  0.24770  0.50289  1.0000
  O   O9        1.0  0.45895  0.26625  0.56920  1.0000
  O   O10       1.0  0.42479  0.21485  0.49631  1.0000
  C   C163      1.0  0.42140  0.18737  0.55984  1.0000
  H   H97       1.0  0.39584  0.16159  0.54537  1.0000
  H   H98       1.0  0.41965  0.19566  0.62807  1.0000
  H   H99       1.0  0.44446  0.18198  0.55489  1.0000
  C   C164      1.0  0.84053  0.32083  0.35076  1.0000
  C   C165      1.0  0.77281  0.25358  0.33718  1.0000
  N   N24       1.0  0.79385  0.26379  0.41258  1.0000
  C   C166      1.0  0.82686  0.29571  0.42387  1.0000
  C   C167      1.0  0.84570  0.30124  0.50366  1.0000
  O   O11       1.0  0.82744  0.28545  0.57015  1.0000
  O   O12       1.0  0.87830  0.30222  0.49674  1.0000
  C   C168      1.0  0.90630  0.32667  0.55887  1.0000
  H   H100      1.0  0.93176  0.32627  0.54435  1.0000
  H   H101      1.0  0.89826  0.31738  0.62765  1.0000
  H   H102      1.0  0.91212  0.35520  0.55237  1.0000
