data_image0
_chemical_formula_structural       C17H12C17H12C2H2C2H5C2H2C2H5C2H2C2H5C13H9C13H9C4NC2NCH2CHC4NC2NCH2CHC4NC2NCH2CH
_chemical_formula_sum              "C96 H72 N6"
_cell_length_a       37.4918
_cell_length_b       37.4663
_cell_length_c       14.898
_cell_angle_alpha    90
_cell_angle_beta     90
_cell_angle_gamma    120.036

_space_group_name_H-M_alt    "P 1"
_space_group_IT_number       1

loop_
  _space_group_symop_operation_xyz
  'x, y, z'

loop_
  _atom_site_type_symbol
  _atom_site_label
  _atom_site_symmetry_multiplicity
  _atom_site_fract_x
  _atom_site_fract_y
  _atom_site_fract_z
  _atom_site_occupancy
  C   C1        1.0  0.46782  0.89111  0.35623  1.0000
  C   C2        1.0  0.44468  0.84770  0.35699  1.0000
  C   C3        1.0  0.38542  0.75706  0.30358  1.0000
  C   C4        1.0  0.36177  0.71404  0.30973  1.0000
  C   C5        1.0  0.31812  0.69283  0.30910  1.0000
  C   C6        1.0  0.29438  0.64920  0.30957  1.0000
  C   C7        1.0  0.31555  0.62672  0.30897  1.0000
  C   C8        1.0  0.35914  0.64662  0.30953  1.0000
  C   C9        1.0  0.38162  0.69030  0.30907  1.0000
  C   C10       1.0  0.37849  0.62298  0.30335  1.0000
  C   C11       1.0  0.43183  0.60677  0.34053  1.0000
  C   C12       1.0  0.40990  0.56378  0.35665  1.0000
  C   C13       1.0  0.43017  0.54068  0.35585  1.0000
  C   C14       1.0  0.25139  0.62984  0.30342  1.0000
  C   C15       1.0  0.18179  0.57651  0.34069  1.0000
  C   C16       1.0  0.15790  0.53373  0.32330  1.0000
  C   C17       1.0  0.11451  0.51359  0.32198  1.0000
  H   H1        1.0  0.49881  0.90521  0.36860  1.0000
  H   H2        1.0  0.45939  0.83157  0.37143  1.0000
  H   H3        1.0  0.41316  0.70520  0.30604  1.0000
  H   H4        1.0  0.30326  0.70950  0.30614  1.0000
  H   H5        1.0  0.29888  0.59517  0.30593  1.0000
  H   H6        1.0  0.41328  0.50967  0.36832  1.0000
  H   H7        1.0  0.37906  0.54903  0.37115  1.0000
  H   H8        1.0  0.09830  0.48243  0.31106  1.0000
  H   H9        1.0  0.17194  0.51665  0.31235  1.0000
  H   H10       1.0  0.36523  0.59823  0.26385  1.0000
  H   H11       1.0  0.41015  0.76856  0.26406  1.0000
  H   H12       1.0  0.23992  0.64314  0.26405  1.0000
  C   C18       1.0  0.52788  0.11733  0.32847  1.0000
  C   C19       1.0  0.55253  0.16068  0.33051  1.0000
  C   C20       1.0  0.61938  0.25071  0.29954  1.0000
  C   C21       1.0  0.64552  0.29325  0.30644  1.0000
  C   C22       1.0  0.68891  0.31101  0.30579  1.0000
  C   C23       1.0  0.71550  0.35427  0.30634  1.0000
  C   C24       1.0  0.69778  0.37994  0.30575  1.0000
  C   C25       1.0  0.65455  0.36327  0.30642  1.0000
  C   C26       1.0  0.62887  0.31983  0.30585  1.0000
  C   C27       1.0  0.63819  0.38941  0.29942  1.0000
  C   C28       1.0  0.59156  0.41334  0.34752  1.0000
  C   C29       1.0  0.61501  0.45624  0.33023  1.0000
  C   C30       1.0  0.59634  0.48087  0.32816  1.0000
  C   C31       1.0  0.75801  0.37066  0.29926  1.0000
  C   C32       1.0  0.82863  0.41728  0.34731  1.0000
  C   C33       1.0  0.85426  0.46007  0.36254  1.0000
  C   C34       1.0  0.89749  0.47861  0.36086  1.0000
  H   H13       1.0  0.49687  0.10447  0.31774  1.0000
  H   H14       1.0  0.53862  0.17796  0.32121  1.0000
  H   H15       1.0  0.59752  0.30736  0.30304  1.0000
  H   H16       1.0  0.70135  0.29210  0.30293  1.0000
  H   H17       1.0  0.71669  0.41132  0.30282  1.0000
  H   H18       1.0  0.61450  0.51189  0.31738  1.0000
  H   H19       1.0  0.64621  0.47018  0.32094  1.0000
  H   H20       1.0  0.91486  0.50970  0.37198  1.0000
  H   H21       1.0  0.84163  0.47827  0.37557  1.0000
  H   H22       1.0  0.64892  0.41009  0.25011  1.0000
  H   H23       1.0  0.59870  0.24073  0.25023  1.0000
  H   H24       1.0  0.76792  0.35989  0.24999  1.0000
  C   C35       1.0  0.53871  0.51404  0.27255  1.0000
  C   C36       1.0  0.51862  0.53731  0.27083  1.0000
  H   H25       1.0  0.52139  0.55419  0.21452  1.0000
  H   H26       1.0  0.55554  0.51491  0.21761  1.0000
  C   C37       1.0  0.47598  0.45831  0.07353  1.0000
  C   C38       1.0  0.43780  0.46323  0.05869  1.0000
  H   H27       1.0  0.50174  0.48789  0.09509  1.0000
  H   H28       1.0  0.46968  0.43574  0.12656  1.0000
  H   H29       1.0  0.43028  0.47342  0.12104  1.0000
  H   H30       1.0  0.41147  0.43324  0.04090  1.0000
  H   H31       1.0  0.46333  0.52599  0.00960  1.0000
  C   C39       1.0  0.49463  0.02645  0.27296  1.0000
  C   C40       1.0  0.47133  0.98305  0.27126  1.0000
  H   H32       1.0  0.45444  0.96893  0.21495  1.0000
  H   H33       1.0  0.49378  0.04243  0.21802  1.0000
  C   C41       1.0  0.55030  0.01939  0.07393  1.0000
  C   C42       1.0  0.54533  0.97624  0.05909  1.0000
  H   H34       1.0  0.52075  0.01558  0.09551  1.0000
  H   H35       1.0  0.57286  0.03565  0.12696  1.0000
  H   H36       1.0  0.53514  0.95852  0.12144  1.0000
  H   H37       1.0  0.57528  0.97987  0.04127  1.0000
  H   H38       1.0  0.48259  0.93901  0.01001  1.0000
  C   C43       1.0  0.98212  0.46988  0.27259  1.0000
  C   C44       1.0  0.02549  0.48992  0.27096  1.0000
  H   H39       1.0  0.03959  0.48712  0.21468  1.0000
  H   H40       1.0  0.96615  0.45306  0.21763  1.0000
  C   C45       1.0  0.98912  0.53261  0.07356  1.0000
  C   C46       1.0  0.03233  0.57075  0.05885  1.0000
  H   H41       1.0  0.99280  0.50679  0.09513  1.0000
  H   H42       1.0  0.97289  0.53897  0.12654  1.0000
  H   H43       1.0  0.04999  0.57821  0.12126  1.0000
  H   H44       1.0  0.02882  0.59716  0.04105  1.0000
  H   H45       1.0  0.06939  0.54507  0.00987  1.0000
  C   C47       1.0  0.44886  0.91502  0.33993  1.0000
  C   C48       1.0  0.40172  0.82667  0.34099  1.0000
  C   C49       1.0  0.38277  0.85049  0.32382  1.0000
  C   C50       1.0  0.40600  0.89391  0.32251  1.0000
  C   C51       1.0  0.37776  0.78388  0.34784  1.0000
  C   C52       1.0  0.41301  0.63070  0.34748  1.0000
  C   C53       1.0  0.47460  0.62578  0.32332  1.0000
  C   C54       1.0  0.47305  0.55971  0.33948  1.0000
  C   C55       1.0  0.49479  0.60257  0.32190  1.0000
  C   C56       1.0  0.22454  0.59529  0.34752  1.0000
  C   C57       1.0  0.16085  0.59850  0.35707  1.0000
  C   C58       1.0  0.09349  0.53539  0.33974  1.0000
  C   C59       1.0  0.11748  0.57828  0.35632  1.0000
  H   H46       1.0  0.39102  0.91007  0.31177  1.0000
  H   H47       1.0  0.35163  0.83638  0.31315  1.0000
  H   H48       1.0  0.17702  0.62934  0.37169  1.0000
  H   H49       1.0  0.49163  0.65694  0.31259  1.0000
  H   H50       1.0  0.52595  0.61761  0.31122  1.0000
  H   H51       1.0  0.10345  0.59522  0.36891  1.0000
  H   H52       1.0  0.42658  0.65528  0.38729  1.0000
  H   H53       1.0  0.35320  0.77285  0.38767  1.0000
  H   H54       1.0  0.23552  0.58168  0.38723  1.0000
  C   C60       1.0  0.54505  0.09185  0.34514  1.0000
  C   C61       1.0  0.59539  0.18010  0.34785  1.0000
  C   C62       1.0  0.61257  0.15454  0.36323  1.0000
  C   C63       1.0  0.58793  0.11127  0.36153  1.0000
  C   C64       1.0  0.62047  0.22288  0.35497  1.0000
  C   C65       1.0  0.60922  0.38827  0.35475  1.0000
  C   C66       1.0  0.54880  0.39611  0.36285  1.0000
  C   C67       1.0  0.55367  0.46364  0.34474  1.0000
  C   C68       1.0  0.53019  0.42073  0.36112  1.0000
  C   C69       1.0  0.78589  0.39966  0.35452  1.0000
  C   C70       1.0  0.84794  0.39372  0.33025  1.0000
  C   C71       1.0  0.91680  0.45504  0.34465  1.0000
  C   C72       1.0  0.89124  0.41235  0.32823  1.0000
  H   H55       1.0  0.60167  0.09396  0.37276  1.0000
  H   H56       1.0  0.64340  0.16725  0.37639  1.0000
  H   H57       1.0  0.83060  0.36251  0.32100  1.0000
  H   H58       1.0  0.53066  0.36525  0.37601  1.0000
  H   H59       1.0  0.49913  0.40695  0.37231  1.0000
  H   H60       1.0  0.90403  0.39413  0.31753  1.0000
  H   H61       1.0  0.59859  0.36721  0.40341  1.0000
  H   H62       1.0  0.64152  0.23333  0.40364  1.0000
  H   H63       1.0  0.77552  0.41033  0.40319  1.0000
  C   C73       1.0  0.49394  0.53653  0.34348  1.0000
  C   C74       1.0  0.49139  0.51275  0.41989  1.0000
  C   C75       1.0  0.51140  0.48897  0.42123  1.0000
  C   C76       1.0  0.53469  0.48864  0.34653  1.0000
  N   N1        1.0  0.50884  0.46804  0.49785  1.0000
  C   C77       1.0  0.48838  0.46829  0.57274  1.0000
  C   C78       1.0  0.46791  0.49138  0.57096  1.0000
  N   N2        1.0  0.47088  0.51282  0.49521  1.0000
  C   C79       1.0  0.48830  0.44473  0.65269  1.0000
  H   H64       1.0  0.51903  0.44875  0.66203  1.0000
  H   H65       1.0  0.46688  0.41204  0.64037  1.0000
  C   C80       1.0  0.44544  0.49472  0.64948  1.0000
  H   H66       1.0  0.41566  0.49021  0.62736  1.0000
  C   C81       1.0  0.47207  0.95912  0.34391  1.0000
  C   C82       1.0  0.49585  0.98035  0.42030  1.0000
  C   C83       1.0  0.51966  0.02418  0.42165  1.0000
  C   C84       1.0  0.52003  0.04784  0.34694  1.0000
  N   N3        1.0  0.54060  0.04256  0.49825  1.0000
  C   C85       1.0  0.54032  0.02181  0.57315  1.0000
  C   C86       1.0  0.51721  0.97823  0.57137  1.0000
  N   N4        1.0  0.49576  0.95975  0.49562  1.0000
  C   C87       1.0  0.56388  0.04531  0.65309  1.0000
  H   H67       1.0  0.55991  0.07206  0.66244  1.0000
  H   H68       1.0  0.59654  0.05656  0.64076  1.0000
  C   C88       1.0  0.51384  0.95238  0.64989  1.0000
  H   H69       1.0  0.51832  0.92708  0.62776  1.0000
  C   C89       1.0  0.04942  0.51457  0.34368  1.0000
  C   C90       1.0  0.02820  0.51715  0.42003  1.0000
  C   C91       1.0  0.98441  0.49722  0.42126  1.0000
  C   C92       1.0  0.96077  0.47396  0.34652  1.0000
  N   N5        1.0  0.96604  0.49982  0.49782  1.0000
  C   C93       1.0  0.98677  0.52025  0.57277  1.0000
  C   C94       1.0  0.03033  0.54063  0.57112  1.0000
  N   N6        1.0  0.04879  0.53762  0.49542  1.0000
  C   C95       1.0  0.96328  0.52038  0.65264  1.0000
  H   H70       1.0  0.93647  0.48967  0.66190  1.0000
  H   H71       1.0  0.95216  0.54189  0.64028  1.0000
  C   C96       1.0  0.05614  0.56305  0.64971  1.0000
  H   H72       1.0  0.08150  0.59282  0.62767  1.0000
