data_image0
_chemical_formula_structural       C3H2C2HC2O2CNC2NC2H3CH3NHCNC2NC2H3CH3NHC3HC4H2C2O2C4HC4H3NHC4HC4H3NHC3H2C2HC2O2CNC2NC2H3CH3NHCNC2NC2H3CH3NHC3HC4H2C2O2C4HC4H3NHC4HC4H3NHC3H2C2HC2O2CNC2NC2H3CH3NHCNC2NC2H3CH3NHC3HC4H2C2O2C4HC4H3NHC4HC4H3NHC3H2C2HC2O2CNC2NC2H3CH3NHCNC2NC2H3CH3NHC3HC4H2C2O2C4HC4H3NHC4HC4H3NH
_chemical_formula_sum              "C176 H120 O16 N32"
_cell_length_a       38.7962
_cell_length_b       38.7962
_cell_length_c       15.0378
_cell_angle_alpha    90
_cell_angle_beta     90
_cell_angle_gamma    90

_space_group_name_H-M_alt    "P 1"
_space_group_IT_number       1

loop_
  _space_group_symop_operation_xyz
  'x, y, z'

loop_
  _atom_site_type_symbol
  _atom_site_label
  _atom_site_symmetry_multiplicity
  _atom_site_fract_x
  _atom_site_fract_y
  _atom_site_fract_z
  _atom_site_occupancy
  C   C1        1.0  0.49340  0.45131  0.30315  1.0000
  C   C2        1.0  0.46832  0.42486  0.30305  1.0000
  C   C3        1.0  0.43478  0.43373  0.33070  1.0000
  H   H1        1.0  0.01683  0.44519  0.27705  1.0000
  H   H2        1.0  0.41631  0.41492  0.33203  1.0000
  C   C4        1.0  0.03000  0.07425  0.33513  1.0000
  C   C5        1.0  0.00460  0.04817  0.32928  1.0000
  H   H3        1.0  0.47960  0.05602  0.32641  1.0000
  C   C6        1.0  0.02250  0.11000  0.34259  1.0000
  C   C7        1.0  0.47545  0.39036  0.27742  1.0000
  O   O1        1.0  0.04924  0.13089  0.36576  1.0000
  O   O2        1.0  0.44783  0.36990  0.25898  1.0000
  C   C8        1.0  0.99846  0.31957  0.21037  1.0000
  N   N1        1.0  0.99419  0.28517  0.22274  1.0000
  C   C9        1.0  0.99447  0.23297  0.30899  1.0000
  C   C10       1.0  0.98825  0.16064  0.31794  1.0000
  N   N2        1.0  0.98135  0.21422  0.24065  1.0000
  C   C11       1.0  0.97680  0.17944  0.24221  1.0000
  C   C12       1.0  0.99121  0.33272  0.11992  1.0000
  H   H4        1.0  0.99718  0.36006  0.11305  1.0000
  H   H5        1.0  0.46405  0.32879  0.10402  1.0000
  H   H6        1.0  0.00684  0.31866  0.07168  1.0000
  C   C13       1.0  0.96453  0.16299  0.15928  1.0000
  H   H7        1.0  0.95812  0.18214  0.10865  1.0000
  H   H8        1.0  0.44142  0.14786  0.17298  1.0000
  H   H9        1.0  0.98448  0.14611  0.13242  1.0000
  N   N3        1.0  0.99245  0.12558  0.31665  1.0000
  H   H10       1.0  0.97806  0.11233  0.27623  1.0000
  C   C14       1.0  0.18046  0.99452  0.26505  1.0000
  N   N4        1.0  0.21490  0.99836  0.27645  1.0000
  C   C15       1.0  0.26718  0.99843  0.36151  1.0000
  C   C16       1.0  0.33925  0.00703  0.36888  1.0000
  N   N5        1.0  0.28518  0.01247  0.29314  1.0000
  C   C17       1.0  0.31975  0.01813  0.29394  1.0000
  C   C18       1.0  0.16732  0.00095  0.17411  1.0000
  H   H11       1.0  0.13996  0.99502  0.16762  1.0000
  H   H12       1.0  0.18127  0.48474  0.12692  1.0000
  H   H13       1.0  0.17141  0.02791  0.15629  1.0000
  C   C19       1.0  0.33528  0.03150  0.21089  1.0000
  H   H14       1.0  0.31566  0.03729  0.16097  1.0000
  H   H15       1.0  0.35289  0.51242  0.18292  1.0000
  H   H16       1.0  0.34945  0.05518  0.22484  1.0000
  N   N6        1.0  0.37443  0.00467  0.36586  1.0000
  H   H17       1.0  0.38648  0.02034  0.32603  1.0000
  C   C20       1.0  0.48618  0.48612  0.32741  1.0000
  C   C21       1.0  0.42547  0.46751  0.35547  1.0000
  C   C22       1.0  0.45130  0.49320  0.35139  1.0000
  H   H18       1.0  0.44484  0.01683  0.37578  1.0000
  C   C23       1.0  0.01251  0.01224  0.32860  1.0000
  C   C24       1.0  0.04831  0.00373  0.33038  1.0000
  C   C25       1.0  0.07489  0.02866  0.33072  1.0000
  C   C26       1.0  0.06473  0.06350  0.33479  1.0000
  H   H19       1.0  0.05573  0.47861  0.33175  1.0000
  H   H20       1.0  0.08353  0.08192  0.33676  1.0000
  C   C27       1.0  0.11055  0.02054  0.32501  1.0000
  C   C28       1.0  0.39106  0.47419  0.38253  1.0000
  O   O3        1.0  0.37205  0.44645  0.40834  1.0000
  O   O4        1.0  0.13256  0.04722  0.30947  1.0000
  C   C29       1.0  0.01015  0.34025  0.28256  1.0000
  C   C30       1.0  0.00077  0.26862  0.30033  1.0000
  C   C31       1.0  0.01474  0.28756  0.37258  1.0000
  C   C32       1.0  0.02013  0.32326  0.36181  1.0000
  H   H21       1.0  0.02788  0.33755  0.41552  1.0000
  C   C33       1.0  0.99867  0.17999  0.39335  1.0000
  C   C34       1.0  0.00260  0.21601  0.38970  1.0000
  C   C35       1.0  0.01588  0.23502  0.46203  1.0000
  C   C36       1.0  0.02185  0.27060  0.45356  1.0000
  H   H22       1.0  0.02196  0.22305  0.52064  1.0000
  H   H23       1.0  0.03175  0.28389  0.50654  1.0000
  H   H24       1.0  0.00539  0.16732  0.45054  1.0000
  N   N7        1.0  0.00731  0.37534  0.28431  1.0000
  H   H25       1.0  0.02353  0.38766  0.32229  1.0000
  C   C37       1.0  0.15976  0.98415  0.33860  1.0000
  C   C38       1.0  0.23158  0.99194  0.35384  1.0000
  C   C39       1.0  0.21283  0.97825  0.42674  1.0000
  C   C40       1.0  0.17688  0.97384  0.41742  1.0000
  H   H26       1.0  0.16267  0.96666  0.47176  1.0000
  C   C41       1.0  0.32069  0.99481  0.44383  1.0000
  C   C42       1.0  0.28469  0.99016  0.44133  1.0000
  C   C43       1.0  0.26604  0.97649  0.51386  1.0000
  C   C44       1.0  0.23031  0.97085  0.50686  1.0000
  H   H27       1.0  0.27831  0.97041  0.57204  1.0000
  H   H28       1.0  0.21725  0.96110  0.56039  1.0000
  H   H29       1.0  0.33389  0.98795  0.50008  1.0000
  N   N8        1.0  0.12487  0.98891  0.34121  1.0000
  H   H30       1.0  0.11162  0.97398  0.38059  1.0000
  C   C45       1.0  0.49340  0.95131  0.30315  1.0000
  C   C46       1.0  0.46832  0.92486  0.30305  1.0000
  C   C47       1.0  0.43478  0.93373  0.33070  1.0000
  H   H31       1.0  0.01683  0.94519  0.27705  1.0000
  H   H32       1.0  0.41631  0.91492  0.33203  1.0000
  C   C48       1.0  0.03000  0.57425  0.33513  1.0000
  C   C49       1.0  0.00460  0.54817  0.32928  1.0000
  H   H33       1.0  0.47960  0.55603  0.32641  1.0000
  C   C50       1.0  0.02250  0.61000  0.34259  1.0000
  C   C51       1.0  0.47545  0.89036  0.27742  1.0000
  O   O5        1.0  0.04924  0.63089  0.36576  1.0000
  O   O6        1.0  0.44783  0.86990  0.25898  1.0000
  C   C52       1.0  0.99846  0.81957  0.21037  1.0000
  N   N9        1.0  0.99419  0.78517  0.22274  1.0000
  C   C53       1.0  0.99447  0.73297  0.30899  1.0000
  C   C54       1.0  0.98825  0.66064  0.31794  1.0000
  N   N10       1.0  0.98135  0.71422  0.24065  1.0000
  C   C55       1.0  0.97680  0.67944  0.24221  1.0000
  C   C56       1.0  0.99121  0.83272  0.11992  1.0000
  H   H34       1.0  0.99718  0.86006  0.11305  1.0000
  H   H35       1.0  0.46405  0.82879  0.10402  1.0000
  H   H36       1.0  0.00684  0.81865  0.07168  1.0000
  C   C57       1.0  0.96453  0.66299  0.15928  1.0000
  H   H37       1.0  0.95812  0.68214  0.10865  1.0000
  H   H38       1.0  0.44142  0.64786  0.17298  1.0000
  H   H39       1.0  0.98448  0.64611  0.13242  1.0000
  N   N11       1.0  0.99245  0.62558  0.31665  1.0000
  H   H40       1.0  0.97806  0.61233  0.27623  1.0000
  C   C58       1.0  0.18046  0.49452  0.26505  1.0000
  N   N12       1.0  0.21490  0.49836  0.27645  1.0000
  C   C59       1.0  0.26718  0.49843  0.36151  1.0000
  C   C60       1.0  0.33925  0.50703  0.36888  1.0000
  N   N13       1.0  0.28518  0.51247  0.29314  1.0000
  C   C61       1.0  0.31975  0.51813  0.29394  1.0000
  C   C62       1.0  0.16732  0.50095  0.17411  1.0000
  H   H41       1.0  0.13996  0.49502  0.16762  1.0000
  H   H42       1.0  0.18127  0.98474  0.12692  1.0000
  H   H43       1.0  0.17141  0.52791  0.15629  1.0000
  C   C63       1.0  0.33528  0.53150  0.21089  1.0000
  H   H44       1.0  0.31566  0.53729  0.16097  1.0000
  H   H45       1.0  0.35289  0.01242  0.18292  1.0000
  H   H46       1.0  0.34945  0.55518  0.22484  1.0000
  N   N14       1.0  0.37443  0.50467  0.36586  1.0000
  H   H47       1.0  0.38648  0.52034  0.32603  1.0000
  C   C64       1.0  0.48618  0.98612  0.32741  1.0000
  C   C65       1.0  0.42547  0.96751  0.35547  1.0000
  C   C66       1.0  0.45130  0.99320  0.35139  1.0000
  H   H48       1.0  0.44484  0.51683  0.37578  1.0000
  C   C67       1.0  0.01251  0.51224  0.32860  1.0000
  C   C68       1.0  0.04831  0.50374  0.33038  1.0000
  C   C69       1.0  0.07489  0.52866  0.33072  1.0000
  C   C70       1.0  0.06473  0.56350  0.33479  1.0000
  H   H49       1.0  0.05573  0.97861  0.33175  1.0000
  H   H50       1.0  0.08353  0.58193  0.33676  1.0000
  C   C71       1.0  0.11055  0.52053  0.32501  1.0000
  C   C72       1.0  0.39106  0.97419  0.38253  1.0000
  O   O7        1.0  0.37205  0.94644  0.40834  1.0000
  O   O8        1.0  0.13256  0.54722  0.30947  1.0000
  C   C73       1.0  0.01015  0.84025  0.28256  1.0000
  C   C74       1.0  0.00077  0.76862  0.30033  1.0000
  C   C75       1.0  0.01474  0.78756  0.37258  1.0000
  C   C76       1.0  0.02013  0.82326  0.36181  1.0000
  H   H51       1.0  0.02788  0.83755  0.41552  1.0000
  C   C77       1.0  0.99867  0.67999  0.39335  1.0000
  C   C78       1.0  0.00260  0.71601  0.38970  1.0000
  C   C79       1.0  0.01588  0.73503  0.46203  1.0000
  C   C80       1.0  0.02185  0.77060  0.45356  1.0000
  H   H52       1.0  0.02196  0.72305  0.52064  1.0000
  H   H53       1.0  0.03175  0.78389  0.50654  1.0000
  H   H54       1.0  0.00539  0.66732  0.45054  1.0000
  N   N15       1.0  0.00731  0.87535  0.28431  1.0000
  H   H55       1.0  0.02353  0.88766  0.32229  1.0000
  C   C81       1.0  0.15976  0.48415  0.33860  1.0000
  C   C82       1.0  0.23158  0.49194  0.35384  1.0000
  C   C83       1.0  0.21283  0.47825  0.42674  1.0000
  C   C84       1.0  0.17688  0.47384  0.41742  1.0000
  H   H56       1.0  0.16267  0.46666  0.47176  1.0000
  C   C85       1.0  0.32069  0.49481  0.44383  1.0000
  C   C86       1.0  0.28469  0.49016  0.44133  1.0000
  C   C87       1.0  0.26604  0.47649  0.51386  1.0000
  C   C88       1.0  0.23031  0.47085  0.50686  1.0000
  H   H57       1.0  0.27831  0.47041  0.57204  1.0000
  H   H58       1.0  0.21725  0.46110  0.56039  1.0000
  H   H59       1.0  0.33389  0.48795  0.50008  1.0000
  N   N16       1.0  0.12487  0.48891  0.34121  1.0000
  H   H60       1.0  0.11162  0.47398  0.38059  1.0000
  C   C89       1.0  0.99340  0.45131  0.30315  1.0000
  C   C90       1.0  0.96832  0.42486  0.30305  1.0000
  C   C91       1.0  0.93478  0.43373  0.33070  1.0000
  H   H61       1.0  0.51683  0.44519  0.27705  1.0000
  H   H62       1.0  0.91631  0.41492  0.33203  1.0000
  C   C92       1.0  0.53000  0.07425  0.33513  1.0000
  C   C93       1.0  0.50460  0.04817  0.32928  1.0000
  H   H63       1.0  0.97960  0.05602  0.32641  1.0000
  C   C94       1.0  0.52250  0.11000  0.34259  1.0000
  C   C95       1.0  0.97545  0.39036  0.27742  1.0000
  O   O9        1.0  0.54924  0.13089  0.36576  1.0000
  O   O10       1.0  0.94783  0.36990  0.25898  1.0000
  C   C96       1.0  0.49846  0.31957  0.21037  1.0000
  N   N17       1.0  0.49419  0.28517  0.22274  1.0000
  C   C97       1.0  0.49447  0.23297  0.30899  1.0000
  C   C98       1.0  0.48825  0.16064  0.31794  1.0000
  N   N18       1.0  0.48135  0.21422  0.24065  1.0000
  C   C99       1.0  0.47680  0.17944  0.24221  1.0000
  C   C100      1.0  0.49121  0.33272  0.11992  1.0000
  H   H64       1.0  0.49718  0.36006  0.11305  1.0000
  H   H65       1.0  0.96405  0.32879  0.10402  1.0000
  H   H66       1.0  0.50684  0.31866  0.07168  1.0000
  C   C101      1.0  0.46452  0.16299  0.15928  1.0000
  H   H67       1.0  0.45812  0.18214  0.10865  1.0000
  H   H68       1.0  0.94142  0.14786  0.17298  1.0000
  H   H69       1.0  0.48448  0.14611  0.13242  1.0000
  N   N19       1.0  0.49245  0.12558  0.31665  1.0000
  H   H70       1.0  0.47806  0.11233  0.27623  1.0000
  C   C102      1.0  0.68046  0.99452  0.26505  1.0000
  N   N20       1.0  0.71490  0.99836  0.27645  1.0000
  C   C103      1.0  0.76718  0.99843  0.36151  1.0000
  C   C104      1.0  0.83925  0.00703  0.36888  1.0000
  N   N21       1.0  0.78518  0.01247  0.29314  1.0000
  C   C105      1.0  0.81975  0.01813  0.29394  1.0000
  C   C106      1.0  0.66732  0.00095  0.17411  1.0000
  H   H71       1.0  0.63996  0.99502  0.16762  1.0000
  H   H72       1.0  0.68127  0.48474  0.12692  1.0000
  H   H73       1.0  0.67141  0.02791  0.15629  1.0000
  C   C107      1.0  0.83528  0.03150  0.21089  1.0000
  H   H74       1.0  0.81567  0.03729  0.16097  1.0000
  H   H75       1.0  0.85289  0.51242  0.18292  1.0000
  H   H76       1.0  0.84945  0.05518  0.22484  1.0000
  N   N22       1.0  0.87443  0.00467  0.36586  1.0000
  H   H77       1.0  0.88648  0.02034  0.32603  1.0000
  C   C108      1.0  0.98618  0.48612  0.32741  1.0000
  C   C109      1.0  0.92547  0.46751  0.35547  1.0000
  C   C110      1.0  0.95130  0.49320  0.35139  1.0000
  H   H78       1.0  0.94484  0.01683  0.37578  1.0000
  C   C111      1.0  0.51251  0.01224  0.32860  1.0000
  C   C112      1.0  0.54831  0.00373  0.33038  1.0000
  C   C113      1.0  0.57489  0.02866  0.33072  1.0000
  C   C114      1.0  0.56473  0.06350  0.33479  1.0000
  H   H79       1.0  0.55573  0.47861  0.33175  1.0000
  H   H80       1.0  0.58354  0.08192  0.33676  1.0000
  C   C115      1.0  0.61055  0.02054  0.32501  1.0000
  C   C116      1.0  0.89106  0.47419  0.38253  1.0000
  O   O11       1.0  0.87205  0.44645  0.40834  1.0000
  O   O12       1.0  0.63256  0.04722  0.30947  1.0000
  C   C117      1.0  0.51015  0.34025  0.28256  1.0000
  C   C118      1.0  0.50077  0.26862  0.30033  1.0000
  C   C119      1.0  0.51474  0.28756  0.37258  1.0000
  C   C120      1.0  0.52013  0.32326  0.36181  1.0000
  H   H81       1.0  0.52788  0.33755  0.41552  1.0000
  C   C121      1.0  0.49867  0.17999  0.39335  1.0000
  C   C122      1.0  0.50260  0.21601  0.38970  1.0000
  C   C123      1.0  0.51588  0.23502  0.46203  1.0000
  C   C124      1.0  0.52185  0.27060  0.45356  1.0000
  H   H82       1.0  0.52195  0.22305  0.52064  1.0000
  H   H83       1.0  0.53175  0.28389  0.50654  1.0000
  H   H84       1.0  0.50539  0.16732  0.45054  1.0000
  N   N23       1.0  0.50731  0.37534  0.28431  1.0000
  H   H85       1.0  0.52353  0.38766  0.32229  1.0000
  C   C125      1.0  0.65976  0.98415  0.33860  1.0000
  C   C126      1.0  0.73158  0.99194  0.35384  1.0000
  C   C127      1.0  0.71283  0.97825  0.42674  1.0000
  C   C128      1.0  0.67688  0.97384  0.41742  1.0000
  H   H86       1.0  0.66267  0.96666  0.47176  1.0000
  C   C129      1.0  0.82069  0.99481  0.44383  1.0000
  C   C130      1.0  0.78468  0.99016  0.44133  1.0000
  C   C131      1.0  0.76604  0.97649  0.51386  1.0000
  C   C132      1.0  0.73031  0.97085  0.50686  1.0000
  H   H87       1.0  0.77831  0.97041  0.57204  1.0000
  H   H88       1.0  0.71725  0.96110  0.56039  1.0000
  H   H89       1.0  0.83389  0.98795  0.50008  1.0000
  N   N24       1.0  0.62487  0.98891  0.34121  1.0000
  H   H90       1.0  0.61162  0.97398  0.38059  1.0000
  C   C133      1.0  0.99340  0.95131  0.30315  1.0000
  C   C134      1.0  0.96832  0.92486  0.30305  1.0000
  C   C135      1.0  0.93478  0.93373  0.33070  1.0000
  H   H91       1.0  0.51683  0.94519  0.27705  1.0000
  H   H92       1.0  0.91631  0.91492  0.33203  1.0000
  C   C136      1.0  0.53000  0.57425  0.33513  1.0000
  C   C137      1.0  0.50460  0.54817  0.32928  1.0000
  H   H93       1.0  0.97960  0.55603  0.32641  1.0000
  C   C138      1.0  0.52250  0.61000  0.34259  1.0000
  C   C139      1.0  0.97545  0.89036  0.27742  1.0000
  O   O13       1.0  0.54924  0.63089  0.36576  1.0000
  O   O14       1.0  0.94783  0.86990  0.25898  1.0000
  C   C140      1.0  0.49846  0.81957  0.21037  1.0000
  N   N25       1.0  0.49419  0.78517  0.22274  1.0000
  C   C141      1.0  0.49447  0.73297  0.30899  1.0000
  C   C142      1.0  0.48825  0.66064  0.31794  1.0000
  N   N26       1.0  0.48135  0.71422  0.24065  1.0000
  C   C143      1.0  0.47680  0.67944  0.24221  1.0000
  C   C144      1.0  0.49121  0.83272  0.11992  1.0000
  H   H94       1.0  0.49718  0.86006  0.11305  1.0000
  H   H95       1.0  0.96405  0.82879  0.10402  1.0000
  H   H96       1.0  0.50684  0.81865  0.07168  1.0000
  C   C145      1.0  0.46452  0.66299  0.15928  1.0000
  H   H97       1.0  0.45812  0.68214  0.10865  1.0000
  H   H98       1.0  0.94142  0.64786  0.17298  1.0000
  H   H99       1.0  0.48448  0.64611  0.13242  1.0000
  N   N27       1.0  0.49245  0.62558  0.31665  1.0000
  H   H100      1.0  0.47806  0.61233  0.27623  1.0000
  C   C146      1.0  0.68046  0.49452  0.26505  1.0000
  N   N28       1.0  0.71490  0.49836  0.27645  1.0000
  C   C147      1.0  0.76718  0.49843  0.36151  1.0000
  C   C148      1.0  0.83925  0.50703  0.36888  1.0000
  N   N29       1.0  0.78518  0.51247  0.29314  1.0000
  C   C149      1.0  0.81975  0.51813  0.29394  1.0000
  C   C150      1.0  0.66732  0.50095  0.17411  1.0000
  H   H101      1.0  0.63996  0.49502  0.16762  1.0000
  H   H102      1.0  0.68127  0.98474  0.12692  1.0000
  H   H103      1.0  0.67141  0.52791  0.15629  1.0000
  C   C151      1.0  0.83528  0.53150  0.21089  1.0000
  H   H104      1.0  0.81567  0.53729  0.16097  1.0000
  H   H105      1.0  0.85289  0.01242  0.18292  1.0000
  H   H106      1.0  0.84945  0.55518  0.22484  1.0000
  N   N30       1.0  0.87443  0.50467  0.36586  1.0000
  H   H107      1.0  0.88648  0.52034  0.32603  1.0000
  C   C152      1.0  0.98618  0.98612  0.32741  1.0000
  C   C153      1.0  0.92547  0.96751  0.35547  1.0000
  C   C154      1.0  0.95130  0.99320  0.35139  1.0000
  H   H108      1.0  0.94484  0.51683  0.37578  1.0000
  C   C155      1.0  0.51251  0.51224  0.32860  1.0000
  C   C156      1.0  0.54831  0.50374  0.33038  1.0000
  C   C157      1.0  0.57489  0.52866  0.33072  1.0000
  C   C158      1.0  0.56473  0.56350  0.33479  1.0000
  H   H109      1.0  0.55573  0.97861  0.33175  1.0000
  H   H110      1.0  0.58354  0.58193  0.33676  1.0000
  C   C159      1.0  0.61055  0.52053  0.32501  1.0000
  C   C160      1.0  0.89106  0.97419  0.38253  1.0000
  O   O15       1.0  0.87205  0.94644  0.40834  1.0000
  O   O16       1.0  0.63256  0.54722  0.30947  1.0000
  C   C161      1.0  0.51015  0.84025  0.28256  1.0000
  C   C162      1.0  0.50077  0.76862  0.30033  1.0000
  C   C163      1.0  0.51474  0.78756  0.37258  1.0000
  C   C164      1.0  0.52013  0.82326  0.36181  1.0000
  H   H111      1.0  0.52788  0.83755  0.41552  1.0000
  C   C165      1.0  0.49867  0.67999  0.39335  1.0000
  C   C166      1.0  0.50260  0.71601  0.38970  1.0000
  C   C167      1.0  0.51588  0.73503  0.46203  1.0000
  C   C168      1.0  0.52185  0.77060  0.45356  1.0000
  H   H112      1.0  0.52195  0.72305  0.52064  1.0000
  H   H113      1.0  0.53175  0.78389  0.50654  1.0000
  H   H114      1.0  0.50539  0.66732  0.45054  1.0000
  N   N31       1.0  0.50731  0.87535  0.28431  1.0000
  H   H115      1.0  0.52353  0.88766  0.32229  1.0000
  C   C169      1.0  0.65976  0.48415  0.33860  1.0000
  C   C170      1.0  0.73158  0.49194  0.35384  1.0000
  C   C171      1.0  0.71283  0.47825  0.42674  1.0000
  C   C172      1.0  0.67688  0.47384  0.41742  1.0000
  H   H116      1.0  0.66267  0.46666  0.47176  1.0000
  C   C173      1.0  0.82069  0.49481  0.44383  1.0000
  C   C174      1.0  0.78468  0.49016  0.44133  1.0000
  C   C175      1.0  0.76604  0.47649  0.51386  1.0000
  C   C176      1.0  0.73031  0.47085  0.50686  1.0000
  H   H117      1.0  0.77831  0.47041  0.57204  1.0000
  H   H118      1.0  0.71725  0.46110  0.56039  1.0000
  H   H119      1.0  0.83389  0.48795  0.50008  1.0000
  N   N32       1.0  0.62487  0.48891  0.34121  1.0000
  H   H120      1.0  0.61162  0.47398  0.38059  1.0000
