data_image0
_chemical_formula_structural       C16H16C3OH2CHC3OH2CHC3NC3NC5NC5NC36H26N4C3HOHCHC3HOHCH
_chemical_formula_sum              "C84 H54 O4 N8"
_cell_length_a       34.3936
_cell_length_b       34.3916
_cell_length_c       14.7322
_cell_angle_alpha    90
_cell_angle_beta     90
_cell_angle_gamma    89.9342

_space_group_name_H-M_alt    "P 1"
_space_group_IT_number       1

loop_
  _space_group_symop_operation_xyz
  'x, y, z'

loop_
  _atom_site_type_symbol
  _atom_site_label
  _atom_site_symmetry_multiplicity
  _atom_site_fract_x
  _atom_site_fract_y
  _atom_site_fract_z
  _atom_site_occupancy
  C   C1        1.0  0.17670  0.01149  0.28770  1.0000
  C   C2        1.0  0.21766  0.01206  0.28617  1.0000
  C   C3        1.0  0.34307  0.03689  0.30661  1.0000
  C   C4        1.0  0.30209  0.03595  0.30823  1.0000
  C   C5        1.0  0.01013  0.17412  0.29280  1.0000
  C   C6        1.0  0.01060  0.21510  0.29317  1.0000
  C   C7        1.0  0.98981  0.30013  0.32009  1.0000
  C   C8        1.0  0.99001  0.34112  0.32077  1.0000
  C   C9        1.0  0.80633  0.00785  0.29351  1.0000
  C   C10       1.0  0.84731  0.00687  0.29300  1.0000
  C   C11       1.0  0.72116  0.98800  0.32086  1.0000
  C   C12       1.0  0.68018  0.98858  0.32180  1.0000
  C   C13       1.0  0.01490  0.84484  0.28764  1.0000
  C   C14       1.0  0.01534  0.80387  0.28595  1.0000
  C   C15       1.0  0.03876  0.67809  0.30607  1.0000
  C   C16       1.0  0.03828  0.71907  0.30788  1.0000
  H   H1        1.0  0.05801  0.66425  0.26397  1.0000
  H   H2        1.0  0.05772  0.73363  0.26783  1.0000
  H   H3        1.0  0.01761  0.79034  0.22433  1.0000
  H   H4        1.0  0.01744  0.85979  0.22785  1.0000
  H   H5        1.0  0.86157  0.00358  0.23249  1.0000
  H   H6        1.0  0.79213  0.00573  0.23270  1.0000
  H   H7        1.0  0.00712  0.15977  0.23233  1.0000
  H   H8        1.0  0.00838  0.22924  0.23229  1.0000
  H   H9        1.0  0.97016  0.35560  0.28171  1.0000
  H   H10       1.0  0.96966  0.28636  0.28043  1.0000
  H   H11       1.0  0.28730  0.05511  0.26781  1.0000
  H   H12       1.0  0.35668  0.05615  0.26424  1.0000
  H   H13       1.0  0.23122  0.01433  0.22459  1.0000
  H   H14       1.0  0.16178  0.01397  0.22785  1.0000
  H   H15       1.0  0.73475  0.96768  0.28123  1.0000
  H   H16       1.0  0.66552  0.96882  0.28293  1.0000
  C   C17       1.0  0.01212  0.49510  0.27971  1.0000
  C   C18       1.0  0.01115  0.53556  0.29620  1.0000
  C   C19       1.0  0.00858  0.46760  0.35081  1.0000
  O   O1        1.0  0.01383  0.55961  0.22303  1.0000
  H   H17       1.0  0.01448  0.48579  0.21387  1.0000
  H   H18       1.0  0.98702  0.56455  0.20285  1.0000
  C   C20       1.0  0.00593  0.42810  0.32928  1.0000
  H   H19       1.0  0.99512  0.42086  0.26898  1.0000
  C   C21       1.0  0.52633  0.01173  0.28118  1.0000
  C   C22       1.0  0.48588  0.01079  0.29777  1.0000
  C   C23       1.0  0.55387  0.00819  0.35219  1.0000
  O   O2        1.0  0.46181  0.01348  0.22464  1.0000
  H   H20       1.0  0.53560  0.01406  0.21530  1.0000
  H   H21       1.0  0.45703  0.98668  0.20424  1.0000
  C   C24       1.0  0.59336  0.00541  0.33051  1.0000
  H   H22       1.0  0.60053  0.99474  0.27001  1.0000
  C   C25       1.0  0.08383  0.90758  0.37216  1.0000
  C   C26       1.0  0.11251  0.93568  0.37200  1.0000
  C   C27       1.0  0.09465  0.97220  0.37268  1.0000
  N   N1        1.0  0.05588  0.96476  0.37316  1.0000
  C   C28       1.0  0.04766  0.92616  0.37248  1.0000
  C   C29       1.0  0.01103  0.90678  0.37228  1.0000
  C   C30       1.0  0.97438  0.92598  0.37298  1.0000
  N   N2        1.0  0.96716  0.96468  0.37345  1.0000
  C   C31       1.0  0.92862  0.97270  0.37372  1.0000
  C   C32       1.0  0.90987  0.93669  0.37366  1.0000
  C   C33       1.0  0.93799  0.90798  0.37287  1.0000
  C   C34       1.0  0.91017  0.00974  0.37421  1.0000
  C   C35       1.0  0.93031  0.04596  0.37435  1.0000
  N   N3        1.0  0.96907  0.05338  0.37416  1.0000
  C   C36       1.0  0.97730  0.09199  0.37418  1.0000
  C   C37       1.0  0.94115  0.11059  0.37452  1.0000
  C   C38       1.0  0.91247  0.08250  0.37431  1.0000
  C   C39       1.0  0.01392  0.11136  0.37423  1.0000
  C   C40       1.0  0.05056  0.09214  0.37395  1.0000
  N   N4        1.0  0.05775  0.05344  0.37362  1.0000
  C   C41       1.0  0.09629  0.04545  0.37289  1.0000
  C   C42       1.0  0.11505  0.08145  0.37293  1.0000
  C   C43       1.0  0.08694  0.11016  0.37334  1.0000
  C   C44       1.0  0.11475  0.00842  0.37233  1.0000
  C   C45       1.0  0.15635  0.00776  0.37051  1.0000
  C   C46       1.0  0.23980  0.00888  0.36706  1.0000
  C   C47       1.0  0.21900  0.00487  0.44968  1.0000
  C   C48       1.0  0.17802  0.00443  0.45156  1.0000
  C   C49       1.0  0.28160  0.00991  0.36548  1.0000
  C   C50       1.0  0.30411  0.98479  0.42086  1.0000
  C   C51       1.0  0.34508  0.98573  0.41935  1.0000
  C   C52       1.0  0.36526  0.01211  0.36272  1.0000
  C   C53       1.0  0.01405  0.15298  0.37448  1.0000
  C   C54       1.0  0.01516  0.23645  0.37485  1.0000
  C   C55       1.0  0.01908  0.21484  0.45636  1.0000
  C   C56       1.0  0.01850  0.17387  0.45634  1.0000
  C   C57       1.0  0.01568  0.27827  0.37503  1.0000
  C   C58       1.0  0.01635  0.36194  0.37619  1.0000
  C   C59       1.0  0.04191  0.34042  0.43179  1.0000
  C   C60       1.0  0.04174  0.29943  0.43087  1.0000
  C   C61       1.0  0.86855  0.01058  0.37457  1.0000
  C   C62       1.0  0.84776  0.01537  0.45649  1.0000
  C   C63       1.0  0.80679  0.01649  0.45664  1.0000
  C   C64       1.0  0.78508  0.01274  0.37525  1.0000
  C   C65       1.0  0.74327  0.01369  0.37562  1.0000
  C   C66       1.0  0.65960  0.01513  0.37729  1.0000
  C   C67       1.0  0.68136  0.04053  0.43265  1.0000
  C   C68       1.0  0.72235  0.03998  0.43147  1.0000
  C   C69       1.0  0.01101  0.86516  0.37047  1.0000
  C   C70       1.0  0.00741  0.84344  0.45138  1.0000
  C   C71       1.0  0.01178  0.78168  0.36668  1.0000
  C   C72       1.0  0.00771  0.80246  0.44933  1.0000
  C   C73       1.0  0.01234  0.73987  0.36486  1.0000
  C   C74       1.0  0.98679  0.71765  0.41969  1.0000
  C   C75       1.0  0.98726  0.67667  0.41799  1.0000
  C   C76       1.0  0.01357  0.65617  0.36165  1.0000
  H   H23       1.0  0.96771  0.66197  0.45734  1.0000
  H   H24       1.0  0.96675  0.73116  0.46022  1.0000
  H   H25       1.0  0.00577  0.78788  0.50969  1.0000
  H   H26       1.0  0.00476  0.85735  0.51250  1.0000
  H   H27       1.0  0.08909  0.87833  0.37174  1.0000
  H   H28       1.0  0.14165  0.92986  0.37133  1.0000
  H   H29       1.0  0.03632  0.98472  0.37335  1.0000
  H   H30       1.0  0.98862  0.03341  0.37412  1.0000
  H   H31       1.0  0.93235  0.87881  0.37244  1.0000
  H   H32       1.0  0.88059  0.93164  0.37395  1.0000
  H   H33       1.0  0.86235  0.01800  0.51674  1.0000
  H   H34       1.0  0.79290  0.01930  0.51770  1.0000
  H   H35       1.0  0.88334  0.08837  0.37419  1.0000
  H   H36       1.0  0.93592  0.13985  0.37476  1.0000
  H   H37       1.0  0.14432  0.08652  0.37256  1.0000
  H   H38       1.0  0.09259  0.13932  0.37310  1.0000
  H   H39       1.0  0.02130  0.15934  0.51665  1.0000
  H   H40       1.0  0.02171  0.22880  0.51737  1.0000
  H   H41       1.0  0.06137  0.28513  0.47101  1.0000
  H   H42       1.0  0.06111  0.35454  0.47340  1.0000
  H   H43       1.0  0.16408  0.00205  0.51270  1.0000
  H   H44       1.0  0.23354  0.00328  0.51015  1.0000
  H   H45       1.0  0.36001  0.96646  0.45908  1.0000
  H   H46       1.0  0.29083  0.96472  0.46165  1.0000
  H   H47       1.0  0.73682  0.05950  0.47150  1.0000
  H   H48       1.0  0.66742  0.05988  0.47430  1.0000
  N   N5        1.0  0.40401  0.01390  0.35578  1.0000
  N   N6        1.0  0.01504  0.61739  0.35472  1.0000
  N   N7        1.0  0.62084  0.01615  0.38439  1.0000
  N   N8        1.0  0.01707  0.40071  0.38306  1.0000
  C   C77       1.0  0.00697  0.55011  0.38592  1.0000
  C   C78       1.0  0.00405  0.52252  0.45708  1.0000
  C   C79       1.0  0.00509  0.48207  0.44065  1.0000
  H   H49       1.0  0.00038  0.53174  0.52267  1.0000
  O   O3        1.0  0.99963  0.45785  0.51264  1.0000
  H   H50       1.0  0.02528  0.45451  0.54114  1.0000
  C   C80       1.0  0.00310  0.58969  0.40658  1.0000
  H   H51       1.0  0.99061  0.59683  0.46515  1.0000
  C   C81       1.0  0.47137  0.00662  0.38754  1.0000
  C   C82       1.0  0.49901  0.00377  0.45862  1.0000
  C   C83       1.0  0.53944  0.00478  0.44209  1.0000
  H   H52       1.0  0.48984  0.00013  0.52424  1.0000
  O   O4        1.0  0.56370  0.99935  0.51406  1.0000
  H   H53       1.0  0.56706  0.02504  0.54233  1.0000
  C   C84       1.0  0.43181  0.00272  0.40833  1.0000
  H   H54       1.0  0.42475  0.99072  0.46750  1.0000
