data_image0
_chemical_formula_structural       C16H16C16H16C16H16C2NHNC2NHNC2NHNC2NHNC2NHNC2NHNC3NC3NC5NC5NC36H26C4H4C3NC3NC5NC5NC36H26C4H4C3NC3NC5NC5NC36H26C4H4C2NC3H5NC2NC3H5NC2NC3H5NC2NC3H5NC2NC3H5NC2NC3H5N
_chemical_formula_sum              "C258 H174 N36"
_cell_length_a       67.6311
_cell_length_b       67.6311
_cell_length_c       14.8613
_cell_angle_alpha    89.7164
_cell_angle_beta     90.2836
_cell_angle_gamma    120

_space_group_name_H-M_alt    "P 1"
_space_group_IT_number       1

loop_
  _space_group_symop_operation_xyz
  'x, y, z'

loop_
  _atom_site_type_symbol
  _atom_site_label
  _atom_site_symmetry_multiplicity
  _atom_site_fract_x
  _atom_site_fract_y
  _atom_site_fract_z
  _atom_site_occupancy
  C   C1        1.0  0.94606  0.44826  0.28362  1.0000
  C   C2        1.0  0.96520  0.47046  0.27920  1.0000
  C   C3        1.0  0.91220  0.39739  0.31061  1.0000
  C   C4        1.0  0.89240  0.37566  0.31781  1.0000
  C   C5        1.0  0.94665  0.58866  0.27661  1.0000
  C   C6        1.0  0.96497  0.58431  0.27459  1.0000
  C   C7        1.0  0.88208  0.58912  0.31586  1.0000
  C   C8        1.0  0.90055  0.58496  0.31304  1.0000
  C   C9        1.0  0.10943  0.65650  0.27958  1.0000
  C   C10       1.0  0.12843  0.67878  0.28439  1.0000
  C   C11       1.0  0.18135  0.75163  0.31629  1.0000
  C   C12       1.0  0.16172  0.72980  0.30866  1.0000
  C   C13       1.0  0.10879  0.54315  0.27451  1.0000
  C   C14       1.0  0.12726  0.53902  0.27664  1.0000
  C   C15       1.0  0.17369  0.54333  0.31324  1.0000
  C   C16       1.0  0.19237  0.53950  0.31627  1.0000
  H   H1        1.0  0.20680  0.55032  0.28115  1.0000
  H   H2        1.0  0.17544  0.55706  0.27734  1.0000
  H   H3        1.0  0.13567  0.54044  0.21779  1.0000
  H   H4        1.0  0.10467  0.54793  0.21503  1.0000
  H   H5        1.0  0.10484  0.64845  0.21856  1.0000
  H   H6        1.0  0.13714  0.68612  0.22633  1.0000
  H   H7        1.0  0.96894  0.57953  0.21516  1.0000
  H   H8        1.0  0.93818  0.58738  0.21775  1.0000
  H   H9        1.0  0.89854  0.57116  0.27743  1.0000
  H   H10       1.0  0.86754  0.57845  0.28084  1.0000
  H   H11       1.0  0.97046  0.47823  0.21776  1.0000
  H   H12       1.0  0.93794  0.44068  0.22480  1.0000
  H   H13       1.0  0.89013  0.36316  0.27344  1.0000
  H   H14       1.0  0.92370  0.39987  0.26116  1.0000
  H   H15       1.0  0.15076  0.72695  0.25624  1.0000
  H   H16       1.0  0.18404  0.76383  0.26922  1.0000
  C   C17       1.0  0.65351  0.59082  0.28621  1.0000
  C   C18       1.0  0.63132  0.58780  0.28205  1.0000
  C   C19       1.0  0.70440  0.60780  0.31238  1.0000
  C   C20       1.0  0.72614  0.60972  0.31921  1.0000
  C   C21       1.0  0.51318  0.45109  0.28035  1.0000
  C   C22       1.0  0.51752  0.47376  0.27828  1.0000
  C   C23       1.0  0.51271  0.38597  0.31967  1.0000
  C   C24       1.0  0.51688  0.40861  0.31687  1.0000
  C   C25       1.0  0.44541  0.54605  0.28249  1.0000
  C   C26       1.0  0.42314  0.54278  0.28699  1.0000
  C   C27       1.0  0.35027  0.52281  0.31762  1.0000
  C   C28       1.0  0.37210  0.52500  0.31042  1.0000
  C   C29       1.0  0.55870  0.65876  0.27818  1.0000
  C   C30       1.0  0.56282  0.68135  0.28035  1.0000
  C   C31       1.0  0.55851  0.72338  0.31703  1.0000
  C   C32       1.0  0.56234  0.74589  0.32009  1.0000
  H   H17       1.0  0.55151  0.74958  0.28498  1.0000
  H   H18       1.0  0.54477  0.71148  0.28114  1.0000
  H   H19       1.0  0.56139  0.68847  0.22153  1.0000
  H   H20       1.0  0.55390  0.64998  0.21871  1.0000
  H   H21       1.0  0.45353  0.54973  0.22161  1.0000
  H   H22       1.0  0.41586  0.54433  0.22884  1.0000
  H   H23       1.0  0.52230  0.48263  0.21884  1.0000
  H   H24       1.0  0.51444  0.44402  0.22149  1.0000
  H   H25       1.0  0.53067  0.42047  0.28118  1.0000
  H   H26       1.0  0.52338  0.38217  0.28464  1.0000
  H   H27       1.0  0.62347  0.58533  0.22073  1.0000
  H   H28       1.0  0.66104  0.59037  0.22730  1.0000
  H   H29       1.0  0.73859  0.61999  0.27453  1.0000
  H   H30       1.0  0.70186  0.61686  0.26284  1.0000
  H   H31       1.0  0.37500  0.51704  0.25798  1.0000
  H   H32       1.0  0.33813  0.51344  0.27033  1.0000
  C   C33       1.0  0.51099  0.15578  0.28928  1.0000
  C   C34       1.0  0.51402  0.13663  0.28499  1.0000
  C   C35       1.0  0.49402  0.18963  0.31575  1.0000
  C   C36       1.0  0.49209  0.20942  0.32271  1.0000
  C   C37       1.0  0.65064  0.15510  0.28110  1.0000
  C   C38       1.0  0.62796  0.13677  0.27958  1.0000
  C   C39       1.0  0.71581  0.21970  0.31869  1.0000
  C   C40       1.0  0.69317  0.20124  0.31643  1.0000
  C   C41       1.0  0.55582  0.99244  0.28542  1.0000
  C   C42       1.0  0.55908  0.97343  0.29008  1.0000
  C   C43       1.0  0.57908  0.92050  0.32114  1.0000
  C   C44       1.0  0.57688  0.94015  0.31383  1.0000
  C   C45       1.0  0.44319  0.99314  0.27946  1.0000
  C   C46       1.0  0.42060  0.97466  0.28110  1.0000
  C   C47       1.0  0.37852  0.92820  0.31661  1.0000
  C   C48       1.0  0.35600  0.90952  0.31907  1.0000
  H   H33       1.0  0.35236  0.89513  0.28376  1.0000
  H   H34       1.0  0.39047  0.92648  0.28091  1.0000
  H   H35       1.0  0.41356  0.96630  0.22208  1.0000
  H   H36       1.0  0.45204  0.99730  0.22016  1.0000
  H   H37       1.0  0.55219  0.99704  0.22448  1.0000
  H   H38       1.0  0.55758  0.96474  0.23194  1.0000
  H   H39       1.0  0.61902  0.13274  0.22031  1.0000
  H   H40       1.0  0.65763  0.16350  0.22205  1.0000
  H   H41       1.0  0.68125  0.20320  0.28097  1.0000
  H   H42       1.0  0.71956  0.23420  0.28345  1.0000
  H   H43       1.0  0.51642  0.13136  0.22361  1.0000
  H   H44       1.0  0.51139  0.16387  0.23040  1.0000
  H   H45       1.0  0.48179  0.21168  0.27816  1.0000
  H   H46       1.0  0.48491  0.17811  0.26632  1.0000
  H   H47       1.0  0.58486  0.95112  0.26141  1.0000
  H   H48       1.0  0.58846  0.91782  0.27391  1.0000
  C   C49       1.0  0.24897  0.52945  0.34934  1.0000
  C   C50       1.0  0.26355  0.53753  0.27391  1.0000
  N   N1        1.0  0.28371  0.53766  0.27354  1.0000
  H   H49       1.0  0.25917  0.54349  0.21835  1.0000
  N   N2        1.0  0.22998  0.53098  0.34749  1.0000
  C   C51       1.0  0.57241  0.81247  0.35309  1.0000
  C   C52       1.0  0.56432  0.81912  0.27766  1.0000
  N   N3        1.0  0.56418  0.83915  0.27724  1.0000
  H   H50       1.0  0.55835  0.80889  0.22213  1.0000
  N   N4        1.0  0.57087  0.79196  0.35128  1.0000
  C   C53       1.0  0.28934  0.85294  0.35023  1.0000
  C   C54       1.0  0.28277  0.83845  0.27454  1.0000
  N   N5        1.0  0.26274  0.81828  0.27366  1.0000
  H   H51       1.0  0.29305  0.84290  0.21914  1.0000
  N   N6        1.0  0.30987  0.87189  0.34895  1.0000
  C   C55       1.0  0.82620  0.60023  0.34809  1.0000
  C   C56       1.0  0.81149  0.59236  0.27270  1.0000
  N   N7        1.0  0.79149  0.59256  0.27216  1.0000
  H   H52       1.0  0.81565  0.58631  0.21728  1.0000
  N   N8        1.0  0.84497  0.59833  0.34649  1.0000
  C   C57       1.0  0.50159  0.31891  0.35184  1.0000
  C   C58       1.0  0.50947  0.31225  0.27644  1.0000
  N   N9        1.0  0.50928  0.29205  0.27585  1.0000
  H   H53       1.0  0.51553  0.32259  0.22105  1.0000
  N   N10       1.0  0.50350  0.33959  0.35027  1.0000
  C   C59       1.0  0.78292  0.27561  0.34904  1.0000
  C   C60       1.0  0.78951  0.29020  0.27331  1.0000
  N   N11       1.0  0.80970  0.31021  0.27222  1.0000
  H   H54       1.0  0.77911  0.28596  0.21806  1.0000
  N   N12       1.0  0.76224  0.25684  0.34799  1.0000
  C   C61       1.0  0.04806  0.50680  0.35016  1.0000
  C   C62       1.0  0.02445  0.49519  0.35105  1.0000
  C   C63       1.0  0.01715  0.51120  0.35350  1.0000
  N   N13       1.0  0.03661  0.53185  0.35415  1.0000
  C   C64       1.0  0.05582  0.53021  0.35256  1.0000
  C   C65       1.0  0.07920  0.54776  0.35340  1.0000
  C   C66       1.0  0.08678  0.57154  0.35511  1.0000
  N   N14       1.0  0.07406  0.58190  0.35303  1.0000
  C   C67       1.0  0.08710  0.60493  0.35615  1.0000
  C   C68       1.0  0.10969  0.60963  0.36062  1.0000
  C   C69       1.0  0.10948  0.58913  0.35997  1.0000
  C   C70       1.0  0.07993  0.62144  0.35533  1.0000
  C   C71       1.0  0.05669  0.61606  0.35362  1.0000
  N   N15       1.0  0.03723  0.59541  0.35469  1.0000
  C   C72       1.0  0.01802  0.59705  0.35275  1.0000
  C   C73       1.0  0.02578  0.62046  0.34984  1.0000
  C   C74       1.0  0.04939  0.63207  0.35058  1.0000
  C   C75       1.0  0.99463  0.57950  0.35350  1.0000
  C   C76       1.0  0.98706  0.55572  0.35503  1.0000
  N   N16       1.0  0.99978  0.54538  0.35320  1.0000
  C   C77       1.0  0.98674  0.52234  0.35598  1.0000
  C   C78       1.0  0.96415  0.51763  0.35975  1.0000
  C   C79       1.0  0.96435  0.53812  0.35931  1.0000
  C   C80       1.0  0.99392  0.50583  0.35531  1.0000
  C   C81       1.0  0.97639  0.48232  0.35845  1.0000
  C   C82       1.0  0.96808  0.47129  0.44201  1.0000
  C   C83       1.0  0.94894  0.44913  0.44609  1.0000
  C   C84       1.0  0.93721  0.43719  0.36722  1.0000
  C   C85       1.0  0.91681  0.41514  0.37239  1.0000
  C   C86       1.0  0.87637  0.37086  0.38720  1.0000
  C   C87       1.0  0.88068  0.38855  0.44821  1.0000
  C   C88       1.0  0.90035  0.41023  0.44046  1.0000
  C   C89       1.0  0.97742  0.58596  0.35360  1.0000
  C   C90       1.0  0.97111  0.59221  0.43445  1.0000
  C   C91       1.0  0.95287  0.59668  0.43608  1.0000
  C   C92       1.0  0.94009  0.59486  0.35742  1.0000
  C   C93       1.0  0.92123  0.59904  0.35977  1.0000
  C   C94       1.0  0.92257  0.61751  0.40929  1.0000
  C   C95       1.0  0.90420  0.62177  0.41172  1.0000
  C   C96       1.0  0.88353  0.60768  0.36514  1.0000
  C   C97       1.0  0.09745  0.64496  0.35814  1.0000
  C   C98       1.0  0.13631  0.69027  0.36777  1.0000
  C   C99       1.0  0.12379  0.67864  0.44581  1.0000
  C   C100      1.0  0.10481  0.65639  0.44134  1.0000
  C   C101      1.0  0.15653  0.71244  0.37366  1.0000
  C   C102      1.0  0.17225  0.71786  0.44562  1.0000
  C   C103      1.0  0.19176  0.73965  0.45375  1.0000
  C   C104      1.0  0.19664  0.75696  0.38943  1.0000
  C   C105      1.0  0.09644  0.54134  0.35352  1.0000
  C   C106      1.0  0.10299  0.53513  0.43447  1.0000
  C   C107      1.0  0.12137  0.53087  0.43620  1.0000
  C   C108      1.0  0.13407  0.53289  0.35756  1.0000
  C   C109      1.0  0.15314  0.52902  0.36008  1.0000
  C   C110      1.0  0.19129  0.52105  0.36592  1.0000
  C   C111      1.0  0.17075  0.50672  0.41263  1.0000
  C   C112      1.0  0.15217  0.51066  0.41000  1.0000
  H   H55       1.0  0.16905  0.49311  0.44939  1.0000
  H   H56       1.0  0.13760  0.49954  0.44376  1.0000
  H   H57       1.0  0.12592  0.52704  0.49677  1.0000
  H   H58       1.0  0.09474  0.53420  0.49329  1.0000
  H   H59       1.0  0.05778  0.49912  0.34842  1.0000
  H   H60       1.0  0.01442  0.47781  0.34987  1.0000
  H   H61       1.0  0.03676  0.54611  0.35726  1.0000
  H   H62       1.0  0.03708  0.58115  0.35836  1.0000
  H   H63       1.0  0.12377  0.58763  0.36358  1.0000
  H   H64       1.0  0.12414  0.62528  0.36448  1.0000
  H   H65       1.0  0.09672  0.64836  0.49968  1.0000
  H   H66       1.0  0.12849  0.68623  0.50760  1.0000
  H   H67       1.0  0.05940  0.64945  0.34876  1.0000
  H   H68       1.0  0.01606  0.62815  0.34751  1.0000
  H   H69       1.0  0.94969  0.50196  0.36301  1.0000
  H   H70       1.0  0.95006  0.53962  0.36247  1.0000
  H   H71       1.0  0.97944  0.59304  0.49326  1.0000
  H   H72       1.0  0.94850  0.60057  0.49657  1.0000
  H   H73       1.0  0.90616  0.63545  0.44821  1.0000
  H   H74       1.0  0.93724  0.62846  0.44297  1.0000
  H   H75       1.0  0.90247  0.42251  0.48565  1.0000
  H   H76       1.0  0.86952  0.38578  0.49955  1.0000
  H   H77       1.0  0.94352  0.44185  0.50818  1.0000
  H   H78       1.0  0.97555  0.47957  0.50075  1.0000
  H   H79       1.0  0.16972  0.70587  0.49336  1.0000
  H   H80       1.0  0.20238  0.74276  0.50776  1.0000
  C   C113      1.0  0.85767  0.34919  0.40110  1.0000
  C   C114      1.0  0.86578  0.61265  0.36839  1.0000
  C   C115      1.0  0.21525  0.77872  0.40303  1.0000
  C   C116      1.0  0.20927  0.51642  0.36946  1.0000
  H   H81       1.0  0.85460  0.34318  0.46386  1.0000
  H   H82       1.0  0.20594  0.50109  0.39090  1.0000
  H   H83       1.0  0.21839  0.78473  0.46566  1.0000
  H   H84       1.0  0.86938  0.62804  0.38952  1.0000
  C   C117      1.0  0.59505  0.63420  0.35362  1.0000
  C   C118      1.0  0.60666  0.62220  0.35439  1.0000
  C   C119      1.0  0.59065  0.59889  0.35690  1.0000
  N   N17       1.0  0.57000  0.59769  0.35768  1.0000
  C   C120      1.0  0.57164  0.61855  0.35610  1.0000
  C   C121      1.0  0.55408  0.62438  0.35700  1.0000
  C   C122      1.0  0.53031  0.60817  0.35864  1.0000
  N   N18       1.0  0.51995  0.58510  0.35650  1.0000
  C   C123      1.0  0.49692  0.57511  0.35954  1.0000
  C   C124      1.0  0.49222  0.59298  0.36397  1.0000
  C   C125      1.0  0.51271  0.61327  0.36353  1.0000
  C   C126      1.0  0.48040  0.55142  0.35868  1.0000
  C   C127      1.0  0.48578  0.53356  0.35710  1.0000
  N   N19       1.0  0.50644  0.53476  0.35828  1.0000
  C   C128      1.0  0.50480  0.51391  0.35637  1.0000
  C   C129      1.0  0.48138  0.49826  0.35344  1.0000
  C   C130      1.0  0.46978  0.51026  0.35409  1.0000
  C   C131      1.0  0.52234  0.50807  0.35713  1.0000
  C   C132      1.0  0.54612  0.52427  0.35862  1.0000
  N   N20       1.0  0.55647  0.54734  0.35674  1.0000
  C   C133      1.0  0.57951  0.55734  0.35941  1.0000
  C   C134      1.0  0.58422  0.53945  0.36319  1.0000
  C   C135      1.0  0.56373  0.51916  0.36285  1.0000
  C   C136      1.0  0.59602  0.58103  0.35864  1.0000
  C   C137      1.0  0.61953  0.58700  0.36145  1.0000
  C   C138      1.0  0.63065  0.58962  0.44487  1.0000
  C   C139      1.0  0.65280  0.59262  0.44868  1.0000
  C   C140      1.0  0.66467  0.59295  0.36966  1.0000
  C   C141      1.0  0.68673  0.59460  0.37453  1.0000
  C   C142      1.0  0.73104  0.59843  0.38867  1.0000
  C   C143      1.0  0.71342  0.58498  0.45006  1.0000
  C   C144      1.0  0.69173  0.58298  0.44266  1.0000
  C   C145      1.0  0.51590  0.48440  0.35730  1.0000
  C   C146      1.0  0.50965  0.47167  0.43817  1.0000
  C   C147      1.0  0.50518  0.44896  0.43983  1.0000
  C   C148      1.0  0.50698  0.43817  0.36118  1.0000
  C   C149      1.0  0.50280  0.41512  0.36357  1.0000
  C   C150      1.0  0.48433  0.39788  0.41314  1.0000
  C   C151      1.0  0.48007  0.37525  0.41556  1.0000
  C   C152      1.0  0.49416  0.36876  0.36897  1.0000
  C   C153      1.0  0.45688  0.54542  0.36122  1.0000
  C   C154      1.0  0.41156  0.53892  0.37020  1.0000
  C   C155      1.0  0.42311  0.53782  0.44839  1.0000
  C   C156      1.0  0.44536  0.54109  0.44424  1.0000
  C   C157      1.0  0.38938  0.53696  0.37576  1.0000
  C   C158      1.0  0.38388  0.54704  0.44770  1.0000
  C   C159      1.0  0.36209  0.54475  0.45545  1.0000
  C   C160      1.0  0.34485  0.53254  0.39076  1.0000
  C   C161      1.0  0.56051  0.64804  0.35717  1.0000
  C   C162      1.0  0.56671  0.66061  0.43814  1.0000
  C   C163      1.0  0.57095  0.68324  0.43992  1.0000
  C   C164      1.0  0.56895  0.69410  0.36130  1.0000
  C   C165      1.0  0.57282  0.71704  0.36385  1.0000
  C   C166      1.0  0.58079  0.76315  0.36975  1.0000
  C   C167      1.0  0.59511  0.75683  0.41644  1.0000
  C   C168      1.0  0.59118  0.73431  0.41376  1.0000
  H   H85       1.0  0.60873  0.76866  0.45322  1.0000
  H   H86       1.0  0.60229  0.73079  0.44754  1.0000
  H   H87       1.0  0.57481  0.69149  0.50049  1.0000
  H   H88       1.0  0.56764  0.65315  0.49694  1.0000
  H   H89       1.0  0.60273  0.65161  0.35184  1.0000
  H   H90       1.0  0.62404  0.62956  0.35311  1.0000
  H   H91       1.0  0.55574  0.58358  0.36087  1.0000
  H   H92       1.0  0.52070  0.54886  0.36177  1.0000
  H   H93       1.0  0.51421  0.62906  0.36716  1.0000
  H   H94       1.0  0.47657  0.59177  0.36794  1.0000
  H   H95       1.0  0.45334  0.54089  0.50269  1.0000
  H   H96       1.0  0.41546  0.53475  0.51006  1.0000
  H   H97       1.0  0.45239  0.50289  0.35221  1.0000
  H   H98       1.0  0.47370  0.48086  0.35113  1.0000
  H   H99       1.0  0.59989  0.54065  0.36634  1.0000
  H   H100      1.0  0.56224  0.50337  0.36599  1.0000
  H   H101      1.0  0.50880  0.47905  0.49695  1.0000
  H   H102      1.0  0.50127  0.44058  0.50032  1.0000
  H   H103      1.0  0.46639  0.36345  0.45204  1.0000
  H   H104      1.0  0.47337  0.40153  0.44675  1.0000
  H   H105      1.0  0.67951  0.57277  0.48813  1.0000
  H   H106      1.0  0.71625  0.57653  0.50145  1.0000
  H   H107      1.0  0.66014  0.59440  0.51067  1.0000
  H   H108      1.0  0.62241  0.58870  0.50372  1.0000
  H   H109      1.0  0.39581  0.55635  0.49568  1.0000
  H   H110      1.0  0.35892  0.55211  0.50945  1.0000
  C   C169      1.0  0.75271  0.60136  0.40211  1.0000
  C   C170      1.0  0.48919  0.34604  0.37222  1.0000
  C   C171      1.0  0.32309  0.52939  0.40392  1.0000
  C   C172      1.0  0.58542  0.78575  0.37332  1.0000
  H   H111      1.0  0.75877  0.60409  0.46479  1.0000
  H   H112      1.0  0.60075  0.79769  0.39477  1.0000
  H   H113      1.0  0.31702  0.52640  0.46646  1.0000
  H   H114      1.0  0.47379  0.33420  0.39334  1.0000
  C   C173      1.0  0.46764  0.05379  0.35597  1.0000
  C   C174      1.0  0.47964  0.07740  0.35698  1.0000
  C   C175      1.0  0.50295  0.08469  0.35953  1.0000
  N   N21       1.0  0.50415  0.06524  0.36019  1.0000
  C   C176      1.0  0.48330  0.04603  0.35838  1.0000
  C   C177      1.0  0.47747  0.02264  0.35902  1.0000
  C   C178      1.0  0.49367  0.01507  0.36082  1.0000
  N   N22       1.0  0.51674  0.02779  0.35889  1.0000
  C   C179      1.0  0.52674  0.01474  0.36211  1.0000
  C   C180      1.0  0.50886  0.99216  0.36648  1.0000
  C   C181      1.0  0.48856  0.99236  0.36567  1.0000
  C   C182      1.0  0.55042  0.02191  0.36138  1.0000
  C   C183      1.0  0.56828  0.04516  0.35962  1.0000
  N   N23       1.0  0.56708  0.06461  0.36070  1.0000
  C   C184      1.0  0.58793  0.08382  0.35857  1.0000
  C   C185      1.0  0.60358  0.07606  0.35557  1.0000
  C   C186      1.0  0.59158  0.05245  0.35643  1.0000
  C   C187      1.0  0.59377  0.10721  0.35922  1.0000
  C   C188      1.0  0.57757  0.11478  0.36091  1.0000
  N   N24       1.0  0.55450  0.10206  0.35922  1.0000
  C   C189      1.0  0.54451  0.11510  0.36200  1.0000
  C   C190      1.0  0.56239  0.13769  0.36569  1.0000
  C   C191      1.0  0.58269  0.13749  0.36511  1.0000
  C   C192      1.0  0.52082  0.10793  0.36135  1.0000
  C   C193      1.0  0.51485  0.12546  0.36432  1.0000
  C   C194      1.0  0.51227  0.13377  0.44782  1.0000
  C   C195      1.0  0.50927  0.15292  0.45175  1.0000
  C   C196      1.0  0.50890  0.16463  0.37281  1.0000
  C   C197      1.0  0.50724  0.18503  0.37779  1.0000
  C   C198      1.0  0.50342  0.22547  0.39209  1.0000
  C   C199      1.0  0.51689  0.22117  0.45338  1.0000
  C   C200      1.0  0.51888  0.20149  0.44589  1.0000
  C   C201      1.0  0.61744  0.12442  0.35888  1.0000
  C   C202      1.0  0.63027  0.13082  0.43948  1.0000
  C   C203      1.0  0.65299  0.14905  0.44059  1.0000
  C   C204      1.0  0.66367  0.16174  0.36166  1.0000
  C   C205      1.0  0.68673  0.18061  0.36347  1.0000
  C   C206      1.0  0.70403  0.17932  0.41275  1.0000
  C   C207      1.0  0.72666  0.19769  0.41462  1.0000
  C   C208      1.0  0.73309  0.21831  0.36770  1.0000
  C   C209      1.0  0.55643  0.00439  0.36408  1.0000
  C   C210      1.0  0.56290  0.96553  0.37335  1.0000
  C   C211      1.0  0.56396  0.97802  0.45149  1.0000
  C   C212      1.0  0.56069  0.99700  0.44719  1.0000
  C   C213      1.0  0.56488  0.94531  0.37903  1.0000
  C   C214      1.0  0.55478  0.92957  0.45095  1.0000
  C   C215      1.0  0.55706  0.91005  0.45878  1.0000
  C   C216      1.0  0.56930  0.90517  0.39419  1.0000
  C   C217      1.0  0.45381  0.00541  0.35873  1.0000
  C   C218      1.0  0.44113  0.99878  0.43943  1.0000
  C   C219      1.0  0.41849  0.98039  0.44066  1.0000
  C   C220      1.0  0.40774  0.96777  0.36177  1.0000
  C   C221      1.0  0.38480  0.94869  0.36377  1.0000
  C   C222      1.0  0.33868  0.91055  0.36845  1.0000
  C   C223      1.0  0.34494  0.93104  0.41548  1.0000
  C   C224      1.0  0.36746  0.94962  0.41339  1.0000
  H   H115      1.0  0.33305  0.93270  0.45207  1.0000
  H   H116      1.0  0.37094  0.96414  0.44739  1.0000
  H   H117      1.0  0.41017  0.97577  0.50108  1.0000
  H   H118      1.0  0.44851  0.00696  0.49843  1.0000
  H   H119      1.0  0.45024  0.04407  0.35405  1.0000
  H   H120      1.0  0.47228  0.08742  0.35574  1.0000
  H   H121      1.0  0.51827  0.06508  0.36317  1.0000
  H   H122      1.0  0.55298  0.06476  0.36447  1.0000
  H   H123      1.0  0.47278  0.97807  0.36939  1.0000
  H   H124      1.0  0.51006  0.97770  0.37057  1.0000
  H   H125      1.0  0.56087  0.00507  0.50559  1.0000
  H   H126      1.0  0.56700  0.97330  0.51322  1.0000
  H   H127      1.0  0.59894  0.04244  0.35458  1.0000
  H   H128      1.0  0.62098  0.08578  0.35311  1.0000
  H   H129      1.0  0.56120  0.15215  0.36883  1.0000
  H   H130      1.0  0.59848  0.15178  0.36811  1.0000
  H   H131      1.0  0.62298  0.12254  0.49847  1.0000
  H   H132      1.0  0.66145  0.15348  0.50092  1.0000
  H   H133      1.0  0.73852  0.19577  0.45093  1.0000
  H   H134      1.0  0.70043  0.16469  0.44662  1.0000
  H   H135      1.0  0.52911  0.19938  0.49127  1.0000
  H   H136      1.0  0.52536  0.23234  0.50473  1.0000
  H   H137      1.0  0.50753  0.15835  0.51380  1.0000
  H   H138      1.0  0.51323  0.12633  0.50661  1.0000
  H   H139      1.0  0.54544  0.93208  0.49884  1.0000
  H   H140      1.0  0.54969  0.89940  0.51275  1.0000
  C   C225      1.0  0.50049  0.24418  0.40566  1.0000
  C   C226      1.0  0.75582  0.23606  0.37042  1.0000
  C   C227      1.0  0.57247  0.88655  0.40745  1.0000
  C   C228      1.0  0.31606  0.89258  0.37142  1.0000
  H   H141      1.0  0.49773  0.24734  0.46834  1.0000
  H   H142      1.0  0.30410  0.89589  0.39277  1.0000
  H   H143      1.0  0.57547  0.88335  0.47000  1.0000
  H   H144      1.0  0.76768  0.23250  0.39154  1.0000
  C   C229      1.0  0.25685  0.52211  0.42419  1.0000
  C   C230      1.0  0.29091  0.53026  0.34479  1.0000
  N   N25       1.0  0.27722  0.52265  0.41859  1.0000
  C   C231      1.0  0.24412  0.51369  0.50957  1.0000
  C   C232      1.0  0.25675  0.52353  0.59912  1.0000
  C   C233      1.0  0.23954  0.53022  0.56455  1.0000
  H   H145      1.0  0.23051  0.49587  0.51288  1.0000
  H   H146      1.0  0.22337  0.52258  0.60083  1.0000
  H   H147      1.0  0.24704  0.54778  0.54026  1.0000
  H   H148      1.0  0.27459  0.53709  0.59574  1.0000
  H   H149      1.0  0.25102  0.51185  0.65651  1.0000
  N   N26       1.0  0.31132  0.53176  0.34070  1.0000
  C   C234      1.0  0.57975  0.82755  0.42791  1.0000
  C   C235      1.0  0.57160  0.85362  0.34844  1.0000
  N   N27       1.0  0.57920  0.84738  0.42227  1.0000
  C   C236      1.0  0.58817  0.82306  0.51332  1.0000
  C   C237      1.0  0.57833  0.82567  0.60285  1.0000
  C   C238      1.0  0.57164  0.80183  0.56833  1.0000
  H   H150      1.0  0.60599  0.82726  0.51663  1.0000
  H   H151      1.0  0.57928  0.79323  0.60464  1.0000
  H   H152      1.0  0.55408  0.79183  0.54406  1.0000
  H   H153      1.0  0.56478  0.82996  0.59946  1.0000
  H   H154      1.0  0.59001  0.83149  0.66024  1.0000
  N   N28       1.0  0.57009  0.87253  0.34428  1.0000
  C   C239      1.0  0.27422  0.84492  0.42488  1.0000
  C   C240      1.0  0.24822  0.81098  0.34466  1.0000
  N   N29       1.0  0.25440  0.82456  0.41878  1.0000
  C   C241      1.0  0.27863  0.85751  0.51058  1.0000
  C   C242      1.0  0.27595  0.84474  0.59985  1.0000
  C   C243      1.0  0.29982  0.86200  0.56572  1.0000
  H   H155      1.0  0.27445  0.87113  0.51415  1.0000
  H   H156      1.0  0.30840  0.87811  0.60238  1.0000
  H   H157      1.0  0.30983  0.85451  0.54131  1.0000
  H   H158      1.0  0.27165  0.82690  0.59606  1.0000
  H   H159      1.0  0.27009  0.85040  0.65734  1.0000
  N   N30       1.0  0.22932  0.79057  0.34010  1.0000
  C   C244      1.0  0.81858  0.60767  0.42281  1.0000
  C   C245      1.0  0.78457  0.60010  0.34321  1.0000
  N   N31       1.0  0.79836  0.60746  0.41706  1.0000
  C   C246      1.0  0.83145  0.61586  0.50820  1.0000
  C   C247      1.0  0.81889  0.60607  0.59778  1.0000
  C   C248      1.0  0.83580  0.59906  0.56339  1.0000
  H   H160      1.0  0.84526  0.63360  0.51138  1.0000
  H   H161      1.0  0.85201  0.60647  0.59969  1.0000
  H   H162      1.0  0.82803  0.58151  0.53926  1.0000
  H   H163      1.0  0.80097  0.59270  0.59444  1.0000
  H   H164      1.0  0.82486  0.61769  0.65507  1.0000
  N   N32       1.0  0.76430  0.59891  0.33895  1.0000
  C   C249      1.0  0.49416  0.30368  0.42653  1.0000
  C   C250      1.0  0.50173  0.27743  0.34687  1.0000
  N   N33       1.0  0.49437  0.28369  0.42074  1.0000
  C   C251      1.0  0.48596  0.30817  0.51194  1.0000
  C   C252      1.0  0.49575  0.30520  0.60151  1.0000
  C   C253      1.0  0.50276  0.32919  0.56716  1.0000
  H   H165      1.0  0.46823  0.30423  0.51511  1.0000
  H   H166      1.0  0.49535  0.33792  0.60349  1.0000
  H   H167      1.0  0.52032  0.33903  0.54305  1.0000
  H   H168      1.0  0.50912  0.30065  0.59816  1.0000
  H   H169      1.0  0.48412  0.29940  0.65880  1.0000
  N   N34       1.0  0.50293  0.25836  0.34256  1.0000
  C   C254      1.0  0.79822  0.28335  0.42351  1.0000
  C   C255      1.0  0.82439  0.31723  0.34302  1.0000
  N   N35       1.0  0.81820  0.30356  0.41721  1.0000
  C   C256      1.0  0.79381  0.27062  0.50922  1.0000
  C   C257      1.0  0.79687  0.28333  0.59849  1.0000
  C   C258      1.0  0.77285  0.26636  0.56461  1.0000
  H   H170      1.0  0.79775  0.25682  0.51269  1.0000
  H   H171      1.0  0.76415  0.25021  0.60133  1.0000
  H   H172      1.0  0.76299  0.27410  0.54036  1.0000
  H   H173      1.0  0.80142  0.30124  0.59472  1.0000
  H   H174      1.0  0.80272  0.27745  0.65589  1.0000
  N   N36       1.0  0.84344  0.33752  0.33826  1.0000
