data_image0
_chemical_formula_structural       NC5H3NC5H3NC5H3C5NH3C5NH3C5NH3CNCNCNC18H12CNCNCNC18H12CNCNCNC18H12CNCNCNC18H12C5NH3C5NH3C5NH3NC5H3NC5H3NC5H3
_chemical_formula_sum              "N24 C144 H84"
_cell_length_a       56.4427
_cell_length_b       56.4426
_cell_length_c       14.9846
_cell_angle_alpha    90
_cell_angle_beta     90
_cell_angle_gamma    120

_space_group_name_H-M_alt    "P 1"
_space_group_IT_number       1

loop_
  _space_group_symop_operation_xyz
  'x, y, z'

loop_
  _atom_site_type_symbol
  _atom_site_label
  _atom_site_symmetry_multiplicity
  _atom_site_fract_x
  _atom_site_fract_y
  _atom_site_fract_z
  _atom_site_occupancy
  N   N1        1.0  0.24129  0.12076  0.25953  1.0000
  C   C1        1.0  0.26903  0.13463  0.25636  1.0000
  C   C2        1.0  0.19712  0.09869  0.33194  1.0000
  C   C3        1.0  0.18252  0.09138  0.25024  1.0000
  C   C4        1.0  0.15373  0.07698  0.25050  1.0000
  C   C5        1.0  0.13923  0.06974  0.33189  1.0000
  H   H1        1.0  0.19251  0.09637  0.19029  1.0000
  H   H2        1.0  0.14345  0.07184  0.19100  1.0000
  H   H3        1.0  0.27856  0.13938  0.19563  1.0000
  N   N2        1.0  0.87095  0.12078  0.25953  1.0000
  C   C6        1.0  0.85708  0.13465  0.25636  1.0000
  C   C7        1.0  0.89302  0.09869  0.33194  1.0000
  C   C8        1.0  0.90033  0.09139  0.25024  1.0000
  C   C9        1.0  0.91473  0.07699  0.25050  1.0000
  C   C10       1.0  0.92197  0.06974  0.33189  1.0000
  H   H4        1.0  0.89534  0.09639  0.19029  1.0000
  H   H5        1.0  0.91987  0.07186  0.19100  1.0000
  H   H6        1.0  0.85233  0.13942  0.19563  1.0000
  N   N3        1.0  0.87091  0.75042  0.25953  1.0000
  C   C11       1.0  0.85704  0.72268  0.25636  1.0000
  C   C12       1.0  0.89301  0.79459  0.33194  1.0000
  C   C13       1.0  0.90031  0.80919  0.25024  1.0000
  C   C14       1.0  0.91471  0.83799  0.25050  1.0000
  C   C15       1.0  0.92197  0.85249  0.33189  1.0000
  H   H7        1.0  0.89531  0.79920  0.19029  1.0000
  H   H8        1.0  0.91984  0.84826  0.19100  1.0000
  H   H9        1.0  0.85226  0.71316  0.19563  1.0000
  C   C16       1.0  0.63248  0.14915  0.33232  1.0000
  C   C17       1.0  0.61871  0.14636  0.25100  1.0000
  C   C18       1.0  0.59170  0.14148  0.25077  1.0000
  C   C19       1.0  0.57842  0.14010  0.33248  1.0000
  C   C20       1.0  0.51964  0.14632  0.25683  1.0000
  N   N4        1.0  0.54149  0.14247  0.26011  1.0000
  H   H10       1.0  0.51333  0.14939  0.19617  1.0000
  H   H11       1.0  0.62879  0.14953  0.19153  1.0000
  H   H12       1.0  0.58273  0.14085  0.19086  1.0000
  C   C21       1.0  0.84261  0.48365  0.33227  1.0000
  C   C22       1.0  0.84534  0.47260  0.25100  1.0000
  C   C23       1.0  0.85019  0.45045  0.25077  1.0000
  C   C24       1.0  0.85158  0.43856  0.33248  1.0000
  C   C25       1.0  0.84529  0.37353  0.25697  1.0000
  N   N5        1.0  0.84913  0.39923  0.26019  1.0000
  H   H13       1.0  0.84219  0.36413  0.19632  1.0000
  H   H14       1.0  0.84219  0.47951  0.19149  1.0000
  H   H15       1.0  0.85084  0.44212  0.19086  1.0000
  C   C26       1.0  0.50809  0.35923  0.33239  1.0000
  C   C27       1.0  0.51916  0.37296  0.25106  1.0000
  C   C28       1.0  0.54126  0.39999  0.25080  1.0000
  C   C29       1.0  0.55312  0.41331  0.33250  1.0000
  C   C30       1.0  0.61817  0.47202  0.25697  1.0000
  N   N6        1.0  0.59246  0.45017  0.26019  1.0000
  H   H16       1.0  0.62757  0.47831  0.19632  1.0000
  H   H17       1.0  0.51230  0.36287  0.19158  1.0000
  H   H18       1.0  0.54967  0.40891  0.19090  1.0000
  C   C31       1.0  0.98026  0.96907  0.33518  1.0000
  N   N7        1.0  0.00808  0.98363  0.33515  1.0000
  C   C32       1.0  0.02264  0.01145  0.33518  1.0000
  N   N8        1.0  0.00808  0.02471  0.33515  1.0000
  C   C33       1.0  0.98026  0.01145  0.33519  1.0000
  N   N9        1.0  0.96701  0.98363  0.33516  1.0000
  C   C34       1.0  0.05186  0.02606  0.33481  1.0000
  C   C35       1.0  0.06692  0.01210  0.33446  1.0000
  C   C36       1.0  0.09571  0.02645  0.33366  1.0000
  C   C37       1.0  0.11034  0.05530  0.33322  1.0000
  C   C38       1.0  0.09571  0.06952  0.33367  1.0000
  C   C39       1.0  0.06692  0.05508  0.33448  1.0000
  C   C40       1.0  0.96565  0.93985  0.33481  1.0000
  C   C41       1.0  0.97961  0.92479  0.33448  1.0000
  C   C42       1.0  0.96525  0.89600  0.33368  1.0000
  C   C43       1.0  0.93641  0.88137  0.33322  1.0000
  C   C44       1.0  0.92219  0.89600  0.33366  1.0000
  C   C45       1.0  0.93663  0.92479  0.33446  1.0000
  C   C46       1.0  0.96565  0.02606  0.33481  1.0000
  C   C47       1.0  0.93663  0.01210  0.33448  1.0000
  C   C48       1.0  0.92220  0.02645  0.33368  1.0000
  C   C49       1.0  0.93641  0.05530  0.33323  1.0000
  C   C50       1.0  0.96526  0.06952  0.33366  1.0000
  C   C51       1.0  0.97961  0.05508  0.33446  1.0000
  H   H19       1.0  0.97602  0.88582  0.33328  1.0000
  H   H20       1.0  0.00052  0.93459  0.33465  1.0000
  H   H21       1.0  0.90125  0.88582  0.33325  1.0000
  H   H22       1.0  0.92553  0.93460  0.33463  1.0000
  H   H23       1.0  0.92553  0.99119  0.33466  1.0000
  H   H24       1.0  0.90126  0.01569  0.33328  1.0000
  H   H25       1.0  0.00052  0.06618  0.33462  1.0000
  H   H26       1.0  0.97602  0.09045  0.33324  1.0000
  H   H27       1.0  0.05712  0.06618  0.33465  1.0000
  H   H28       1.0  0.10589  0.09045  0.33328  1.0000
  H   H29       1.0  0.10589  0.01569  0.33325  1.0000
  H   H30       1.0  0.05712  0.99119  0.33463  1.0000
  C   C52       1.0  0.44315  0.20047  0.33404  1.0000
  N   N10       1.0  0.41533  0.18712  0.33401  1.0000
  C   C53       1.0  0.40083  0.20054  0.33399  1.0000
  N   N11       1.0  0.41533  0.22846  0.33409  1.0000
  C   C54       1.0  0.44315  0.24293  0.33418  1.0000
  N   N12       1.0  0.45609  0.22817  0.33415  1.0000
  C   C55       1.0  0.37159  0.18592  0.33412  1.0000
  C   C56       1.0  0.35652  0.15690  0.33423  1.0000
  C   C57       1.0  0.32772  0.14246  0.33476  1.0000
  C   C58       1.0  0.31308  0.15667  0.33512  1.0000
  C   C59       1.0  0.32772  0.18551  0.33491  1.0000
  C   C60       1.0  0.35652  0.19987  0.33438  1.0000
  C   C61       1.0  0.45886  0.18700  0.33424  1.0000
  C   C62       1.0  0.44646  0.15808  0.33530  1.0000
  C   C63       1.0  0.46239  0.14519  0.33603  1.0000
  C   C64       1.0  0.49121  0.16099  0.33557  1.0000
  C   C65       1.0  0.50379  0.18974  0.33434  1.0000
  C   C66       1.0  0.48788  0.20246  0.33369  1.0000
  C   C67       1.0  0.45886  0.27211  0.33424  1.0000
  C   C68       1.0  0.48788  0.28567  0.33505  1.0000
  C   C69       1.0  0.50379  0.31430  0.33468  1.0000
  C   C70       1.0  0.49121  0.33048  0.33347  1.0000
  C   C71       1.0  0.46239  0.31745  0.33276  1.0000
  C   C72       1.0  0.44646  0.28863  0.33323  1.0000
  H   H31       1.0  0.45286  0.12429  0.33699  1.0000
  H   H32       1.0  0.42562  0.14603  0.33579  1.0000
  H   H33       1.0  0.52467  0.20171  0.33410  1.0000
  H   H34       1.0  0.49804  0.22338  0.33293  1.0000
  H   H35       1.0  0.49804  0.27491  0.33580  1.0000
  H   H36       1.0  0.52467  0.32322  0.33507  1.0000
  H   H37       1.0  0.42563  0.27984  0.33255  1.0000
  H   H38       1.0  0.45286  0.32881  0.33177  1.0000
  H   H39       1.0  0.36631  0.22078  0.33436  1.0000
  H   H40       1.0  0.31754  0.19628  0.33530  1.0000
  H   H41       1.0  0.31754  0.12152  0.33504  1.0000
  H   H42       1.0  0.36631  0.14579  0.33411  1.0000
  C   C73       1.0  0.79124  0.24293  0.33402  1.0000
  N   N13       1.0  0.80458  0.22846  0.33398  1.0000
  C   C74       1.0  0.79116  0.20053  0.33398  1.0000
  N   N14       1.0  0.76324  0.18712  0.33409  1.0000
  C   C75       1.0  0.74877  0.20047  0.33420  1.0000
  N   N15       1.0  0.76354  0.22817  0.33415  1.0000
  C   C76       1.0  0.80578  0.18591  0.33410  1.0000
  C   C77       1.0  0.83480  0.19986  0.33421  1.0000
  C   C78       1.0  0.84925  0.18551  0.33474  1.0000
  C   C79       1.0  0.83503  0.15666  0.33512  1.0000
  C   C80       1.0  0.80619  0.14245  0.33492  1.0000
  C   C81       1.0  0.79183  0.15689  0.33438  1.0000
  C   C82       1.0  0.80471  0.27211  0.33422  1.0000
  C   C83       1.0  0.83363  0.28863  0.33534  1.0000
  C   C84       1.0  0.84651  0.31745  0.33612  1.0000
  C   C85       1.0  0.83072  0.33047  0.33561  1.0000
  C   C86       1.0  0.80196  0.31429  0.33431  1.0000
  C   C87       1.0  0.78924  0.28566  0.33362  1.0000
  C   C88       1.0  0.71959  0.18700  0.33428  1.0000
  C   C89       1.0  0.70605  0.20247  0.33526  1.0000
  C   C90       1.0  0.67741  0.18976  0.33490  1.0000
  C   C91       1.0  0.66123  0.16101  0.33352  1.0000
  C   C92       1.0  0.67425  0.14521  0.33260  1.0000
  C   C93       1.0  0.70307  0.15809  0.33309  1.0000
  H   H43       1.0  0.86741  0.32881  0.33717  1.0000
  H   H44       1.0  0.84568  0.27984  0.33589  1.0000
  H   H45       1.0  0.78999  0.32321  0.33406  1.0000
  H   H46       1.0  0.76833  0.27490  0.33281  1.0000
  H   H47       1.0  0.71681  0.22339  0.33614  1.0000
  H   H48       1.0  0.66850  0.20173  0.33539  1.0000
  H   H49       1.0  0.71185  0.14603  0.33225  1.0000
  H   H50       1.0  0.66288  0.12431  0.33145  1.0000
  H   H51       1.0  0.77093  0.14578  0.33438  1.0000
  H   H52       1.0  0.79543  0.12151  0.33532  1.0000
  H   H53       1.0  0.87018  0.19627  0.33501  1.0000
  H   H54       1.0  0.84592  0.22077  0.33407  1.0000
  C   C94       1.0  0.74877  0.54856  0.33399  1.0000
  N   N16       1.0  0.76323  0.57638  0.33397  1.0000
  C   C95       1.0  0.79116  0.59088  0.33398  1.0000
  N   N17       1.0  0.80458  0.57638  0.33408  1.0000
  C   C96       1.0  0.79123  0.54856  0.33418  1.0000
  N   N18       1.0  0.76353  0.53562  0.33412  1.0000
  C   C97       1.0  0.80577  0.62012  0.33410  1.0000
  C   C98       1.0  0.79183  0.63519  0.33421  1.0000
  C   C99       1.0  0.80618  0.66399  0.33474  1.0000
  C   C100      1.0  0.83502  0.67863  0.33512  1.0000
  C   C101      1.0  0.84924  0.66399  0.33492  1.0000
  C   C102      1.0  0.83479  0.63520  0.33438  1.0000
  C   C103      1.0  0.71958  0.53284  0.33418  1.0000
  C   C104      1.0  0.70307  0.54524  0.33538  1.0000
  C   C105      1.0  0.67425  0.52930  0.33616  1.0000
  C   C106      1.0  0.66122  0.50048  0.33558  1.0000
  C   C107      1.0  0.67741  0.48791  0.33422  1.0000
  C   C108      1.0  0.70604  0.50383  0.33352  1.0000
  C   C109      1.0  0.80471  0.53286  0.33424  1.0000
  C   C110      1.0  0.78925  0.50385  0.33514  1.0000
  C   C111      1.0  0.80197  0.48793  0.33475  1.0000
  C   C112      1.0  0.83073  0.50052  0.33346  1.0000
  C   C113      1.0  0.84652  0.52934  0.33264  1.0000
  C   C114      1.0  0.83363  0.54527  0.33313  1.0000
  H   H55       1.0  0.66288  0.53883  0.33727  1.0000
  H   H56       1.0  0.71185  0.56607  0.33597  1.0000
  H   H57       1.0  0.66849  0.46702  0.33393  1.0000
  H   H58       1.0  0.71680  0.49367  0.33267  1.0000
  H   H59       1.0  0.76834  0.49368  0.33595  1.0000
  H   H60       1.0  0.79002  0.46705  0.33519  1.0000
  H   H61       1.0  0.84567  0.56610  0.33237  1.0000
  H   H62       1.0  0.86742  0.53888  0.33156  1.0000
  H   H63       1.0  0.84591  0.62540  0.33438  1.0000
  H   H64       1.0  0.87018  0.67417  0.33532  1.0000
  H   H65       1.0  0.79542  0.67417  0.33502  1.0000
  H   H66       1.0  0.77092  0.62540  0.33408  1.0000
  C   C115      1.0  0.28419  0.14222  0.33638  1.0000
  C   C116      1.0  0.26968  0.13498  0.41774  1.0000
  C   C117      1.0  0.24089  0.12058  0.41798  1.0000
  C   C118      1.0  0.22629  0.11327  0.33626  1.0000
  C   C119      1.0  0.15439  0.07733  0.41190  1.0000
  N   N19       1.0  0.18213  0.09120  0.40869  1.0000
  H   H67       1.0  0.14488  0.07258  0.47263  1.0000
  H   H68       1.0  0.27995  0.14013  0.47727  1.0000
  H   H69       1.0  0.23090  0.11560  0.47792  1.0000
  C   C120      1.0  0.84948  0.14222  0.33638  1.0000
  C   C121      1.0  0.85672  0.13495  0.41774  1.0000
  C   C122      1.0  0.87112  0.12055  0.41798  1.0000
  C   C123      1.0  0.87843  0.11327  0.33626  1.0000
  C   C124      1.0  0.91438  0.07732  0.41190  1.0000
  N   N20       1.0  0.90051  0.09119  0.40869  1.0000
  H   H70       1.0  0.91913  0.07255  0.47264  1.0000
  H   H71       1.0  0.85157  0.14007  0.47727  1.0000
  H   H72       1.0  0.87611  0.11554  0.47792  1.0000
  C   C125      1.0  0.84947  0.70752  0.33638  1.0000
  C   C126      1.0  0.85675  0.72203  0.41774  1.0000
  C   C127      1.0  0.87115  0.75083  0.41798  1.0000
  C   C128      1.0  0.87843  0.76542  0.33627  1.0000
  C   C129      1.0  0.91439  0.83732  0.41190  1.0000
  N   N21       1.0  0.90052  0.80958  0.40869  1.0000
  H   H73       1.0  0.91915  0.84684  0.47264  1.0000
  H   H74       1.0  0.85162  0.71176  0.47727  1.0000
  H   H75       1.0  0.87615  0.76082  0.47792  1.0000
  N   N22       1.0  0.59251  0.14264  0.40913  1.0000
  C   C130      1.0  0.61821  0.14649  0.41237  1.0000
  C   C131      1.0  0.55314  0.14008  0.33678  1.0000
  C   C132      1.0  0.54130  0.14160  0.41846  1.0000
  C   C133      1.0  0.51918  0.14651  0.41815  1.0000
  C   C134      1.0  0.50809  0.14911  0.33679  1.0000
  H   H76       1.0  0.54974  0.14117  0.47838  1.0000
  H   H77       1.0  0.51237  0.14982  0.47758  1.0000
  H   H78       1.0  0.62767  0.14971  0.47295  1.0000
  N   N23       1.0  0.84907  0.45015  0.40910  1.0000
  C   C135      1.0  0.84529  0.47204  0.41230  1.0000
  C   C136      1.0  0.85157  0.41328  0.33685  1.0000
  C   C137      1.0  0.85009  0.39996  0.41854  1.0000
  C   C138      1.0  0.84522  0.37295  0.41826  1.0000
  C   C139      1.0  0.84258  0.35922  0.33695  1.0000
  H   H79       1.0  0.85065  0.40890  0.47845  1.0000
  H   H80       1.0  0.84202  0.36286  0.47772  1.0000
  H   H81       1.0  0.84200  0.47823  0.47289  1.0000
  N   N24       1.0  0.54151  0.39923  0.40913  1.0000
  C   C140      1.0  0.51962  0.37355  0.41239  1.0000
  C   C141      1.0  0.57841  0.43856  0.33685  1.0000
  C   C142      1.0  0.59171  0.45043  0.41856  1.0000
  C   C143      1.0  0.61873  0.47256  0.41830  1.0000
  C   C144      1.0  0.63248  0.48360  0.33698  1.0000
  H   H82       1.0  0.58282  0.44201  0.47847  1.0000
  H   H83       1.0  0.62886  0.47938  0.47774  1.0000
  H   H84       1.0  0.51342  0.36410  0.47300  1.0000
