data_image0
_chemical_formula_structural       C6HC6H3NHC2HC6H3NHC2HC6H3NHC5H3C2O3C5H3C2O3C2NC2NHCH3NHC2NC2NHCH3NHC2NC2NHCH3NH
_chemical_formula_sum              "C57 H36 N12 O6"
_cell_length_a       29.0869
_cell_length_b       29.0868
_cell_length_c       15.0423
_cell_angle_alpha    90
_cell_angle_beta     90
_cell_angle_gamma    120

_space_group_name_H-M_alt    "P 1"
_space_group_IT_number       1

loop_
  _space_group_symop_operation_xyz
  'x, y, z'

loop_
  _atom_site_type_symbol
  _atom_site_label
  _atom_site_symmetry_multiplicity
  _atom_site_fract_x
  _atom_site_fract_y
  _atom_site_fract_z
  _atom_site_occupancy
  C   C1        1.0  0.37058  0.64975  0.24562  1.0000
  C   C2        1.0  0.40949  0.63438  0.25778  1.0000
  C   C3        1.0  0.62574  0.34827  0.41469  1.0000
  C   C4        1.0  0.58716  0.36426  0.40279  1.0000
  C   C5        1.0  0.53533  0.46656  0.27619  1.0000
  C   C6        1.0  0.56175  0.44072  0.30952  1.0000
  H   H1        1.0  0.57940  0.42726  0.26591  1.0000
  C   C7        1.0  0.48652  0.51306  0.30750  1.0000
  C   C8        1.0  0.43321  0.56589  0.25005  1.0000
  C   C9        1.0  0.45381  0.54488  0.18709  1.0000
  C   C10       1.0  0.48148  0.51899  0.21482  1.0000
  C   C11       1.0  0.50378  0.49879  0.15365  1.0000
  C   C12       1.0  0.53076  0.47300  0.18415  1.0000
  H   H2        1.0  0.50064  0.50278  0.08668  1.0000
  H   H3        1.0  0.54666  0.45866  0.13872  1.0000
  H   H4        1.0  0.44919  0.54923  0.12069  1.0000
  N   N1        1.0  0.40423  0.58866  0.22356  1.0000
  H   H5        1.0  0.37809  0.57055  0.17672  1.0000
  C   C13       1.0  0.52997  0.06803  0.27572  1.0000
  C   C14       1.0  0.55582  0.12029  0.30902  1.0000
  H   H6        1.0  0.56927  0.15140  0.26537  1.0000
  C   C15       1.0  0.48346  0.97273  0.30713  1.0000
  C   C16       1.0  0.43061  0.86657  0.24980  1.0000
  C   C17       1.0  0.45163  0.90815  0.18679  1.0000
  C   C18       1.0  0.47753  0.96172  0.21446  1.0000
  C   C19       1.0  0.49774  0.00419  0.15326  1.0000
  C   C20       1.0  0.52353  0.05699  0.18370  1.0000
  H   H7        1.0  0.49377  0.99705  0.08629  1.0000
  H   H8        1.0  0.53789  0.08720  0.13823  1.0000
  H   H9        1.0  0.44727  0.89915  0.12041  1.0000
  N   N2        1.0  0.40780  0.81481  0.22334  1.0000
  H   H10       1.0  0.42590  0.80674  0.17655  1.0000
  C   C21       1.0  0.92841  0.46128  0.27576  1.0000
  C   C22       1.0  0.87616  0.43484  0.30909  1.0000
  H   H11       1.0  0.84503  0.41722  0.26547  1.0000
  C   C23       1.0  0.02372  0.51003  0.30710  1.0000
  C   C24       1.0  0.12987  0.56331  0.24971  1.0000
  C   C25       1.0  0.08827  0.54277  0.18672  1.0000
  C   C26       1.0  0.03471  0.51513  0.21443  1.0000
  C   C27       1.0  0.99222  0.49290  0.15325  1.0000
  C   C28       1.0  0.93943  0.46591  0.18372  1.0000
  H   H12       1.0  0.99935  0.49607  0.08628  1.0000
  H   H13       1.0  0.90921  0.45006  0.13828  1.0000
  H   H14       1.0  0.09726  0.54743  0.12034  1.0000
  N   N3        1.0  0.18162  0.59223  0.22322  1.0000
  H   H15       1.0  0.18969  0.61842  0.17646  1.0000
  C   C29       1.0  0.34668  0.72007  0.24556  1.0000
  C   C30       1.0  0.29249  0.68048  0.24570  1.0000
  C   C31       1.0  0.27635  0.62586  0.24548  1.0000
  C   C32       1.0  0.31595  0.61126  0.24576  1.0000
  C   C33       1.0  0.38518  0.70395  0.24570  1.0000
  H   H16       1.0  0.30469  0.57190  0.25057  1.0000
  H   H17       1.0  0.42454  0.73205  0.25069  1.0000
  H   H18       1.0  0.26438  0.69175  0.25048  1.0000
  C   C34       1.0  0.36209  0.77437  0.25766  1.0000
  C   C35       1.0  0.22206  0.58695  0.25751  1.0000
  O   O1        1.0  0.45161  0.66532  0.31053  1.0000
  O   O2        1.0  0.33113  0.78560  0.31027  1.0000
  O   O3        1.0  0.21081  0.54474  0.31010  1.0000
  C   C36       1.0  0.64822  0.27680  0.41442  1.0000
  C   C37       1.0  0.70262  0.31588  0.41437  1.0000
  C   C38       1.0  0.71971  0.37074  0.41459  1.0000
  C   C39       1.0  0.68061  0.38604  0.41451  1.0000
  C   C40       1.0  0.61044  0.29387  0.41441  1.0000
  H   H19       1.0  0.69249  0.42552  0.40954  1.0000
  H   H20       1.0  0.57095  0.26628  0.40936  1.0000
  H   H21       1.0  0.73021  0.30400  0.40920  1.0000
  C   C41       1.0  0.63223  0.22223  0.40239  1.0000
  C   C42       1.0  0.77426  0.40933  0.40261  1.0000
  O   O4        1.0  0.54289  0.33181  0.35553  1.0000
  O   O5        1.0  0.66466  0.21048  0.35491  1.0000
  O   O6        1.0  0.78602  0.45354  0.35520  1.0000
  C   C43       1.0  0.56535  0.43414  0.40207  1.0000
  C   C44       1.0  0.54276  0.45554  0.46107  1.0000
  N   N4        1.0  0.51776  0.48035  0.42640  1.0000
  C   C45       1.0  0.51307  0.48671  0.33804  1.0000
  C   C46       1.0  0.43933  0.55825  0.34112  1.0000
  N   N5        1.0  0.46518  0.53255  0.36634  1.0000
  H   H22       1.0  0.42318  0.57061  0.38927  1.0000
  C   C47       1.0  0.54265  0.45164  0.55918  1.0000
  H   H23       1.0  0.56089  0.42907  0.58285  1.0000
  H   H24       1.0  0.50181  0.43203  0.58342  1.0000
  H   H25       1.0  0.56421  0.49142  0.58774  1.0000
  N   N6        1.0  0.59423  0.41180  0.43141  1.0000
  H   H26       1.0  0.62303  0.43282  0.47267  1.0000
  C   C48       1.0  0.56240  0.13051  0.40156  1.0000
  C   C49       1.0  0.54095  0.08653  0.46060  1.0000
  N   N7        1.0  0.51616  0.03671  0.42597  1.0000
  C   C50       1.0  0.50980  0.02563  0.33762  1.0000
  C   C51       1.0  0.43822  0.88036  0.34086  1.0000
  N   N8        1.0  0.46394  0.93192  0.36601  1.0000
  H   H27       1.0  0.42584  0.85187  0.38904  1.0000
  C   C52       1.0  0.54486  0.09034  0.55869  1.0000
  H   H28       1.0  0.56747  0.13116  0.58234  1.0000
  H   H29       1.0  0.56443  0.06909  0.58296  1.0000
  H   H30       1.0  0.50508  0.07217  0.58727  1.0000
  N   N9        1.0  0.58466  0.18173  0.43083  1.0000
  H   H31       1.0  0.56367  0.18946  0.47225  1.0000
  C   C53       1.0  0.86597  0.43115  0.40164  1.0000
  C   C54       1.0  0.90996  0.45370  0.46066  1.0000
  N   N10       1.0  0.95976  0.47874  0.42599  1.0000
  C   C55       1.0  0.97083  0.48348  0.33763  1.0000
  C   C56       1.0  0.11610  0.55715  0.34077  1.0000
  N   N11       1.0  0.06455  0.53130  0.36596  1.0000
  H   H32       1.0  0.14461  0.57321  0.38894  1.0000
  C   C57       1.0  0.90617  0.45378  0.55876  1.0000
  H   H33       1.0  0.86536  0.43556  0.58245  1.0000
  H   H34       1.0  0.92741  0.49461  0.58304  1.0000
  H   H35       1.0  0.92437  0.43220  0.58729  1.0000
  N   N12       1.0  0.81475  0.40223  0.43098  1.0000
  H   H36       1.0  0.80702  0.37347  0.47233  1.0000
