data_image0
_chemical_formula_structural       C5HNCNC2HC4HNCNC2H3CHC2HCHN2C5HNC2NC3H4C5NCNC2O2HCHCNC2O2HCH2C4HNO2H2NC3O2HCH2C2NCNC2O2HCHO2CHC4H2N2O2H2NC3O2HCHC3HN2CNC2O2HCHCNC2O2HCH3C4HN2C3O2HCNC3O2HCHC2HC2HN2CNC2O2HCHO2C4H2C4H2N3C3O2HCNC3O2HCH
_chemical_formula_sum              "C112 H56 N32 O32"
_cell_length_a       31.2544
_cell_length_b       31.2544
_cell_length_c       14.8127
_cell_angle_alpha    90
_cell_angle_beta     90
_cell_angle_gamma    90

_space_group_name_H-M_alt    "P 1"
_space_group_IT_number       1

loop_
  _space_group_symop_operation_xyz
  'x, y, z'

loop_
  _atom_site_type_symbol
  _atom_site_label
  _atom_site_symmetry_multiplicity
  _atom_site_fract_x
  _atom_site_fract_y
  _atom_site_fract_z
  _atom_site_occupancy
  C   C1        1.0  0.01104  0.06663  0.34216  1.0000
  C   C2        1.0  0.02065  0.02188  0.34330  1.0000
  C   C3        1.0  0.06540  0.01226  0.34450  1.0000
  C   C4        1.0  0.08587  0.08708  0.34367  1.0000
  C   C5        1.0  0.09788  0.04381  0.34448  1.0000
  H   H1        1.0  0.43277  0.02943  0.34224  1.0000
  N   N1        1.0  0.14058  0.03583  0.34507  1.0000
  C   C6        1.0  0.29910  0.00974  0.34167  1.0000
  N   N2        1.0  0.22908  0.03998  0.34067  1.0000
  C   C7        1.0  0.27216  0.04627  0.33855  1.0000
  C   C8        1.0  0.34418  0.01130  0.34070  1.0000
  H   H2        1.0  0.35930  0.04024  0.33835  1.0000
  C   C9        1.0  0.51104  0.06663  0.34216  1.0000
  C   C10       1.0  0.52065  0.02188  0.34330  1.0000
  C   C11       1.0  0.59788  0.04381  0.34448  1.0000
  C   C12       1.0  0.56540  0.01226  0.34450  1.0000
  H   H3        1.0  0.93277  0.02943  0.34224  1.0000
  N   N3        1.0  0.64058  0.03583  0.34507  1.0000
  C   C13       1.0  0.79910  0.00974  0.34167  1.0000
  N   N4        1.0  0.72908  0.03998  0.34067  1.0000
  C   C14       1.0  0.77216  0.04627  0.33855  1.0000
  C   C15       1.0  0.84418  0.01130  0.34070  1.0000
  H   H4        1.0  0.85930  0.04024  0.33835  1.0000
  H   H5        1.0  0.48034  0.07699  0.34137  1.0000
  H   H6        1.0  0.98034  0.07699  0.34137  1.0000
  C   C16       1.0  0.28721  0.08788  0.33086  1.0000
  H   H7        1.0  0.30854  0.08575  0.21152  1.0000
  C   C17       1.0  0.58587  0.08708  0.34367  1.0000
  C   C18       1.0  0.78721  0.08788  0.33086  1.0000
  H   H8        1.0  0.80853  0.08575  0.21152  1.0000
  C   C19       1.0  0.04260  0.09910  0.34255  1.0000
  H   H9        1.0  0.02819  0.43400  0.34443  1.0000
  N   N5        1.0  0.03464  0.14180  0.34225  1.0000
  N   N6        1.0  0.03886  0.23032  0.34719  1.0000
  C   C20       1.0  0.04520  0.27341  0.34936  1.0000
  C   C21       1.0  0.00861  0.30034  0.34575  1.0000
  C   C22       1.0  0.01009  0.34543  0.34640  1.0000
  C   C23       1.0  0.01104  0.56663  0.34216  1.0000
  C   C24       1.0  0.04260  0.59910  0.34255  1.0000
  H   H10       1.0  0.02819  0.93400  0.34443  1.0000
  N   N7        1.0  0.03464  0.64180  0.34225  1.0000
  C   C25       1.0  0.02065  0.52188  0.34330  1.0000
  C   C26       1.0  0.06540  0.51226  0.34450  1.0000
  N   N8        1.0  0.03886  0.73032  0.34719  1.0000
  C   C27       1.0  0.04520  0.77341  0.34936  1.0000
  C   C28       1.0  0.00861  0.80034  0.34575  1.0000
  C   C29       1.0  0.01009  0.84543  0.34640  1.0000
  H   H11       1.0  0.03900  0.36060  0.34861  1.0000
  H   H12       1.0  0.03900  0.86060  0.34861  1.0000
  H   H13       1.0  0.07575  0.48156  0.34520  1.0000
  H   H14       1.0  0.07575  0.98155  0.34520  1.0000
  C   C30       1.0  0.08661  0.28830  0.35711  1.0000
  C   C31       1.0  0.08587  0.58708  0.34367  1.0000
  C   C32       1.0  0.08661  0.78830  0.35711  1.0000
  C   C33       1.0  0.46593  0.41187  0.34405  1.0000
  C   C34       1.0  0.49749  0.44435  0.34412  1.0000
  N   N9        1.0  0.47391  0.36917  0.34454  1.0000
  C   C35       1.0  0.50012  0.21064  0.34157  1.0000
  N   N10       1.0  0.46983  0.28067  0.34022  1.0000
  C   C36       1.0  0.46364  0.23767  0.33805  1.0000
  C   C37       1.0  0.42168  0.22397  0.33207  1.0000
  O   O1        1.0  0.91016  0.21284  0.25680  1.0000
  O   O2        1.0  0.40453  0.20429  0.39464  1.0000
  H   H15       1.0  0.41164  0.20713  0.45225  1.0000
  C   C38       1.0  0.49850  0.16559  0.33995  1.0000
  H   H16       1.0  0.46958  0.15050  0.33649  1.0000
  C   C39       1.0  0.29910  0.50974  0.34167  1.0000
  N   N11       1.0  0.22908  0.53998  0.34067  1.0000
  C   C40       1.0  0.27216  0.54627  0.33855  1.0000
  C   C41       1.0  0.28721  0.58788  0.33086  1.0000
  O   O3        1.0  0.27199  0.11473  0.38151  1.0000
  O   O4        1.0  0.29977  0.60176  0.25732  1.0000
  H   H17       1.0  0.30854  0.58575  0.21152  1.0000
  C   C42       1.0  0.34418  0.51130  0.34070  1.0000
  H   H18       1.0  0.35930  0.54024  0.33835  1.0000
  H   H19       1.0  0.10908  0.11028  0.34383  1.0000
  C   C43       1.0  0.48787  0.48910  0.34329  1.0000
  C   C44       1.0  0.44312  0.49872  0.34252  1.0000
  C   C45       1.0  0.41064  0.46716  0.34270  1.0000
  C   C46       1.0  0.42266  0.42389  0.34339  1.0000
  H   H20       1.0  0.39945  0.40069  0.34346  1.0000
  N   N12       1.0  0.36795  0.47514  0.34241  1.0000
  O   O5        1.0  0.11462  0.27111  0.31193  1.0000
  O   O6        1.0  0.09650  0.30451  0.43036  1.0000
  H   H21       1.0  0.12278  0.31262  0.44492  1.0000
  H   H22       1.0  0.53900  0.36060  0.34861  1.0000
  N   N13       1.0  0.27944  0.97098  0.34714  1.0000
  C   C47       1.0  0.23636  0.96468  0.34930  1.0000
  C   C48       1.0  0.20942  0.00122  0.34614  1.0000
  C   C49       1.0  0.22134  0.92309  0.35697  1.0000
  O   O7        1.0  0.23700  0.89588  0.30778  1.0000
  O   O8        1.0  0.20809  0.90919  0.42998  1.0000
  H   H23       1.0  0.19905  0.92523  0.47550  1.0000
  C   C50       1.0  0.16434  0.99967  0.34693  1.0000
  H   H24       1.0  0.14921  0.47073  0.34913  1.0000
  H   H25       1.0  0.48034  0.57699  0.34137  1.0000
  C   C51       1.0  0.46593  0.91187  0.34405  1.0000
  C   C52       1.0  0.49749  0.94435  0.34412  1.0000
  N   N14       1.0  0.47391  0.86917  0.34454  1.0000
  C   C53       1.0  0.50012  0.71064  0.34157  1.0000
  N   N15       1.0  0.46983  0.78068  0.34022  1.0000
  C   C54       1.0  0.46364  0.73767  0.33805  1.0000
  C   C55       1.0  0.42168  0.72397  0.33207  1.0000
  O   O9        1.0  0.91016  0.71284  0.25680  1.0000
  O   O10       1.0  0.40453  0.70429  0.39464  1.0000
  H   H26       1.0  0.41164  0.70713  0.45225  1.0000
  C   C56       1.0  0.49850  0.66558  0.33995  1.0000
  H   H27       1.0  0.46958  0.65050  0.33649  1.0000
  O   O11       1.0  0.27199  0.61473  0.38151  1.0000
  O   O12       1.0  0.29977  0.10176  0.25732  1.0000
  C   C57       1.0  0.09788  0.54381  0.34448  1.0000
  H   H28       1.0  0.10908  0.61028  0.34383  1.0000
  C   C58       1.0  0.48787  0.98910  0.34329  1.0000
  C   C59       1.0  0.44312  0.99872  0.34252  1.0000
  C   C60       1.0  0.41064  0.96716  0.34270  1.0000
  C   C61       1.0  0.42266  0.92389  0.34339  1.0000
  H   H29       1.0  0.43277  0.52942  0.34224  1.0000
  H   H30       1.0  0.39945  0.90068  0.34346  1.0000
  N   N16       1.0  0.36795  0.97514  0.34241  1.0000
  N   N17       1.0  0.14058  0.53583  0.34507  1.0000
  O   O13       1.0  0.11462  0.77111  0.31193  1.0000
  O   O14       1.0  0.09650  0.80452  0.43036  1.0000
  H   H31       1.0  0.12278  0.81262  0.44492  1.0000
  H   H32       1.0  0.53900  0.86060  0.34861  1.0000
  N   N18       1.0  0.27944  0.47098  0.34714  1.0000
  C   C62       1.0  0.23636  0.46468  0.34930  1.0000
  C   C63       1.0  0.20942  0.50122  0.34614  1.0000
  C   C64       1.0  0.22134  0.42309  0.35697  1.0000
  O   O15       1.0  0.23700  0.39588  0.30778  1.0000
  O   O16       1.0  0.20809  0.40920  0.42998  1.0000
  H   H33       1.0  0.19905  0.42524  0.47550  1.0000
  C   C65       1.0  0.16434  0.49967  0.34693  1.0000
  H   H34       1.0  0.14921  0.97073  0.34913  1.0000
  C   C66       1.0  0.54260  0.09910  0.34255  1.0000
  C   C67       1.0  0.96593  0.41187  0.34405  1.0000
  C   C68       1.0  0.99748  0.44435  0.34412  1.0000
  H   H35       1.0  0.52819  0.43400  0.34443  1.0000
  N   N19       1.0  0.97391  0.36917  0.34454  1.0000
  N   N20       1.0  0.53464  0.14180  0.34225  1.0000
  C   C69       1.0  0.00012  0.21064  0.34157  1.0000
  N   N21       1.0  0.96983  0.28067  0.34022  1.0000
  C   C70       1.0  0.96364  0.23767  0.33805  1.0000
  C   C71       1.0  0.92167  0.22397  0.33207  1.0000
  O   O17       1.0  0.41017  0.21284  0.25680  1.0000
  O   O18       1.0  0.90453  0.20429  0.39464  1.0000
  H   H36       1.0  0.91164  0.20713  0.45225  1.0000
  C   C72       1.0  0.99850  0.16559  0.33995  1.0000
  H   H37       1.0  0.96958  0.15050  0.33649  1.0000
  C   C73       1.0  0.79910  0.50974  0.34167  1.0000
  N   N22       1.0  0.72908  0.53998  0.34067  1.0000
  C   C74       1.0  0.77216  0.54627  0.33855  1.0000
  C   C75       1.0  0.78721  0.58788  0.33086  1.0000
  O   O19       1.0  0.77199  0.11473  0.38151  1.0000
  O   O20       1.0  0.79977  0.60176  0.25732  1.0000
  H   H38       1.0  0.80853  0.58575  0.21152  1.0000
  C   C76       1.0  0.84418  0.51130  0.34070  1.0000
  H   H39       1.0  0.85930  0.54024  0.33835  1.0000
  H   H40       1.0  0.57575  0.48156  0.34520  1.0000
  H   H41       1.0  0.60908  0.11028  0.34383  1.0000
  C   C77       1.0  0.98787  0.48910  0.34329  1.0000
  C   C78       1.0  0.94312  0.49872  0.34252  1.0000
  C   C79       1.0  0.91064  0.46716  0.34270  1.0000
  C   C80       1.0  0.92266  0.42389  0.34339  1.0000
  H   H42       1.0  0.89945  0.40069  0.34346  1.0000
  N   N23       1.0  0.86795  0.47514  0.34241  1.0000
  N   N24       1.0  0.53886  0.23032  0.34719  1.0000
  C   C81       1.0  0.54519  0.27341  0.34936  1.0000
  C   C82       1.0  0.50861  0.30034  0.34575  1.0000
  C   C83       1.0  0.58661  0.28830  0.35711  1.0000
  O   O21       1.0  0.61462  0.27111  0.31193  1.0000
  O   O22       1.0  0.59650  0.30451  0.43036  1.0000
  H   H43       1.0  0.62278  0.31262  0.44492  1.0000
  C   C84       1.0  0.51009  0.34543  0.34640  1.0000
  N   N25       1.0  0.77944  0.97098  0.34714  1.0000
  C   C85       1.0  0.73636  0.96468  0.34930  1.0000
  C   C86       1.0  0.70942  0.00122  0.34614  1.0000
  C   C87       1.0  0.72134  0.92309  0.35697  1.0000
  O   O23       1.0  0.73699  0.89588  0.30778  1.0000
  O   O24       1.0  0.70809  0.90919  0.42998  1.0000
  H   H44       1.0  0.69905  0.92523  0.47550  1.0000
  C   C88       1.0  0.66434  0.99967  0.34693  1.0000
  H   H45       1.0  0.64921  0.47073  0.34913  1.0000
  C   C89       1.0  0.51104  0.56663  0.34216  1.0000
  C   C90       1.0  0.54260  0.59910  0.34255  1.0000
  H   H46       1.0  0.98034  0.57699  0.34137  1.0000
  C   C91       1.0  0.96593  0.91187  0.34405  1.0000
  C   C92       1.0  0.99748  0.94435  0.34412  1.0000
  H   H47       1.0  0.52819  0.93400  0.34443  1.0000
  N   N26       1.0  0.97391  0.86917  0.34454  1.0000
  N   N27       1.0  0.53464  0.64180  0.34225  1.0000
  C   C93       1.0  0.00012  0.71064  0.34157  1.0000
  N   N28       1.0  0.96983  0.78068  0.34022  1.0000
  C   C94       1.0  0.96364  0.73767  0.33805  1.0000
  C   C95       1.0  0.92167  0.72397  0.33207  1.0000
  O   O25       1.0  0.41017  0.71284  0.25680  1.0000
  O   O26       1.0  0.90453  0.70429  0.39464  1.0000
  H   H48       1.0  0.91164  0.70713  0.45225  1.0000
  C   C96       1.0  0.99850  0.66558  0.33995  1.0000
  H   H49       1.0  0.96958  0.65050  0.33649  1.0000
  O   O27       1.0  0.77199  0.61473  0.38151  1.0000
  O   O28       1.0  0.79977  0.10176  0.25732  1.0000
  C   C97       1.0  0.52065  0.52188  0.34330  1.0000
  C   C98       1.0  0.58587  0.58708  0.34367  1.0000
  C   C99       1.0  0.59788  0.54381  0.34448  1.0000
  C   C100      1.0  0.56540  0.51226  0.34450  1.0000
  H   H50       1.0  0.57575  0.98155  0.34520  1.0000
  H   H51       1.0  0.60908  0.61028  0.34383  1.0000
  C   C101      1.0  0.98787  0.98910  0.34329  1.0000
  C   C102      1.0  0.94312  0.99872  0.34252  1.0000
  C   C103      1.0  0.91064  0.96716  0.34270  1.0000
  C   C104      1.0  0.92266  0.92389  0.34339  1.0000
  H   H52       1.0  0.93277  0.52942  0.34224  1.0000
  H   H53       1.0  0.89945  0.90068  0.34346  1.0000
  N   N29       1.0  0.86795  0.97514  0.34241  1.0000
  N   N30       1.0  0.64058  0.53583  0.34507  1.0000
  N   N31       1.0  0.53886  0.73032  0.34719  1.0000
  C   C105      1.0  0.54519  0.77341  0.34936  1.0000
  C   C106      1.0  0.50861  0.80034  0.34575  1.0000
  C   C107      1.0  0.58661  0.78830  0.35711  1.0000
  O   O29       1.0  0.61462  0.77111  0.31193  1.0000
  O   O30       1.0  0.59650  0.80452  0.43036  1.0000
  H   H54       1.0  0.62278  0.81262  0.44492  1.0000
  C   C108      1.0  0.51009  0.84543  0.34640  1.0000
  N   N32       1.0  0.77944  0.47098  0.34714  1.0000
  C   C109      1.0  0.73636  0.46468  0.34930  1.0000
  C   C110      1.0  0.70942  0.50122  0.34614  1.0000
  C   C111      1.0  0.72134  0.42309  0.35697  1.0000
  O   O31       1.0  0.73699  0.39588  0.30778  1.0000
  O   O32       1.0  0.70809  0.40920  0.42998  1.0000
  H   H55       1.0  0.69905  0.42524  0.47550  1.0000
  C   C112      1.0  0.66434  0.49967  0.34693  1.0000
  H   H56       1.0  0.64921  0.97073  0.34913  1.0000
