data_image0
_chemical_formula_structural       C2H3NC3H3NC3H3NCNC18H12NC18H12C3H3NC3H3NC3H3NC2H3NC3H3NC3H3NCNC18H12NC18H12C3H3NC3H3NC3H3NC2H3NC3H3NC3H3NCNC18H12NC18H12C3H3NC3H3NC3H3NC2H3NC3H3NC3H3NCNC18H12NC18H12C3H3NC3H3NC3H3N
_chemical_formula_sum              "C216 H168 N32"
_cell_length_a       50.1867
_cell_length_b       50.1867
_cell_length_c       14.5762
_cell_angle_alpha    90
_cell_angle_beta     90
_cell_angle_gamma    120

_space_group_name_H-M_alt    "P 1"
_space_group_IT_number       1

loop_
  _space_group_symop_operation_xyz
  'x, y, z'

loop_
  _atom_site_type_symbol
  _atom_site_label
  _atom_site_symmetry_multiplicity
  _atom_site_fract_x
  _atom_site_fract_y
  _atom_site_fract_z
  _atom_site_occupancy
  C   C1        1.0  0.31750  0.28694  0.21959  1.0000
  C   C2        1.0  0.29384  0.27356  0.29235  1.0000
  H   H1        1.0  0.31056  0.27152  0.16074  1.0000
  H   H2        1.0  0.33962  0.29098  0.24537  1.0000
  H   H3        1.0  0.32055  0.30894  0.19572  1.0000
  N   N1        1.0  0.27625  0.28706  0.30520  1.0000
  C   C3        1.0  0.28942  0.24918  0.35216  1.0000
  C   C4        1.0  0.29981  0.03863  0.18667  1.0000
  C   C5        1.0  0.28522  0.02782  0.27758  1.0000
  H   H4        1.0  0.29885  0.01978  0.14655  1.0000
  H   H5        1.0  0.32394  0.05621  0.19465  1.0000
  H   H6        1.0  0.28784  0.04801  0.14783  1.0000
  N   N2        1.0  0.26914  0.49667  0.29099  1.0000
  C   C6        1.0  0.28836  0.04747  0.35245  1.0000
  C   C7        1.0  0.49807  0.26750  0.18506  1.0000
  C   C8        1.0  0.50869  0.26422  0.27683  1.0000
  H   H7        1.0  0.51701  0.28518  0.14464  1.0000
  H   H8        1.0  0.48048  0.27410  0.19155  1.0000
  H   H9        1.0  0.48876  0.24594  0.14735  1.0000
  N   N3        1.0  0.03981  0.27947  0.29104  1.0000
  C   C9        1.0  0.48888  0.24795  0.35163  1.0000
  N   N4        1.0  0.18847  0.34789  0.36373  1.0000
  C   C10       1.0  0.20472  0.33098  0.36592  1.0000
  C   C11       1.0  0.20536  0.38111  0.36525  1.0000
  C   C12       1.0  0.15527  0.33136  0.36619  1.0000
  C   C13       1.0  0.13756  0.31210  0.29302  1.0000
  C   C14       1.0  0.10498  0.29589  0.29527  1.0000
  C   C15       1.0  0.08818  0.29787  0.37088  1.0000
  C   C16       1.0  0.10618  0.31794  0.44276  1.0000
  C   C17       1.0  0.13878  0.33402  0.44094  1.0000
  C   C18       1.0  0.21261  0.32243  0.44956  1.0000
  C   C19       1.0  0.22890  0.30615  0.45157  1.0000
  C   C20       1.0  0.23751  0.29670  0.37032  1.0000
  C   C21       1.0  0.22979  0.30580  0.28669  1.0000
  C   C22       1.0  0.21388  0.32249  0.28445  1.0000
  C   C23       1.0  0.22430  0.39776  0.44023  1.0000
  C   C24       1.0  0.24071  0.43033  0.44184  1.0000
  C   C25       1.0  0.23864  0.44819  0.36962  1.0000
  C   C26       1.0  0.22002  0.43130  0.29385  1.0000
  C   C27       1.0  0.20375  0.39868  0.29181  1.0000
  H   H10       1.0  0.23531  0.30217  0.51413  1.0000
  H   H11       1.0  0.20683  0.32849  0.51018  1.0000
  H   H12       1.0  0.20882  0.32840  0.22240  1.0000
  H   H13       1.0  0.23544  0.29997  0.22542  1.0000
  H   H14       1.0  0.14846  0.30974  0.23699  1.0000
  H   H15       1.0  0.09346  0.28204  0.24074  1.0000
  H   H16       1.0  0.22650  0.38614  0.49453  1.0000
  H   H17       1.0  0.25507  0.44089  0.49595  1.0000
  H   H18       1.0  0.21770  0.44276  0.23917  1.0000
  H   H19       1.0  0.19042  0.38763  0.23600  1.0000
  H   H20       1.0  0.15061  0.34818  0.49452  1.0000
  H   H21       1.0  0.09570  0.32196  0.49663  1.0000
  N   N5        1.0  0.35514  0.18119  0.35885  1.0000
  C   C28       1.0  0.33889  0.19810  0.35667  1.0000
  C   C29       1.0  0.33825  0.14797  0.35732  1.0000
  C   C30       1.0  0.38834  0.19772  0.35637  1.0000
  C   C31       1.0  0.40605  0.21698  0.42954  1.0000
  C   C32       1.0  0.43864  0.23319  0.42729  1.0000
  C   C33       1.0  0.45543  0.23121  0.35167  1.0000
  C   C34       1.0  0.43743  0.21114  0.27981  1.0000
  C   C35       1.0  0.40483  0.19507  0.28162  1.0000
  C   C36       1.0  0.33099  0.20664  0.27303  1.0000
  C   C37       1.0  0.31468  0.22291  0.27103  1.0000
  C   C38       1.0  0.30611  0.23238  0.35228  1.0000
  C   C39       1.0  0.31383  0.22328  0.43591  1.0000
  C   C40       1.0  0.32974  0.20658  0.43814  1.0000
  C   C41       1.0  0.31932  0.13131  0.28235  1.0000
  C   C42       1.0  0.30291  0.09875  0.28073  1.0000
  C   C43       1.0  0.30498  0.08089  0.35294  1.0000
  C   C44       1.0  0.32360  0.09778  0.42872  1.0000
  C   C45       1.0  0.33987  0.13040  0.43077  1.0000
  H   H22       1.0  0.30829  0.22690  0.20847  1.0000
  H   H23       1.0  0.33676  0.20057  0.21241  1.0000
  H   H24       1.0  0.33480  0.20069  0.50019  1.0000
  H   H25       1.0  0.30818  0.22912  0.49718  1.0000
  H   H26       1.0  0.39516  0.21933  0.48559  1.0000
  H   H27       1.0  0.45016  0.24704  0.48182  1.0000
  H   H28       1.0  0.31711  0.14294  0.22805  1.0000
  H   H29       1.0  0.28855  0.08819  0.22662  1.0000
  H   H30       1.0  0.32592  0.08632  0.48341  1.0000
  H   H31       1.0  0.35320  0.14145  0.48658  1.0000
  H   H32       1.0  0.39300  0.18090  0.22806  1.0000
  H   H33       1.0  0.44791  0.20711  0.22593  1.0000
  C   C46       1.0  0.25418  0.27989  0.37043  1.0000
  C   C47       1.0  0.24976  0.25551  0.43023  1.0000
  C   C48       1.0  0.22613  0.24215  0.50307  1.0000
  H   H34       1.0  0.23309  0.25758  0.56189  1.0000
  H   H35       1.0  0.22308  0.22015  0.52694  1.0000
  H   H36       1.0  0.20400  0.23811  0.47734  1.0000
  N   N6        1.0  0.26736  0.24202  0.41739  1.0000
  C   C49       1.0  0.25526  0.48161  0.37012  1.0000
  C   C50       1.0  0.25840  0.50126  0.44499  1.0000
  C   C51       1.0  0.24381  0.49045  0.53590  1.0000
  H   H37       1.0  0.21968  0.47287  0.52792  1.0000
  H   H38       1.0  0.24477  0.50930  0.57602  1.0000
  H   H39       1.0  0.25578  0.48106  0.57474  1.0000
  N   N7        1.0  0.27448  0.03241  0.43158  1.0000
  C   C52       1.0  0.05474  0.28112  0.37091  1.0000
  C   C53       1.0  0.03492  0.26488  0.44574  1.0000
  C   C54       1.0  0.04554  0.26157  0.53750  1.0000
  H   H40       1.0  0.06312  0.25495  0.53097  1.0000
  H   H41       1.0  0.02660  0.24389  0.57790  1.0000
  H   H42       1.0  0.05486  0.28312  0.57524  1.0000
  N   N8        1.0  0.50380  0.24961  0.43151  1.0000
  C   C55       1.0  0.31750  0.78694  0.21959  1.0000
  C   C56       1.0  0.29384  0.77356  0.29235  1.0000
  H   H43       1.0  0.31056  0.77152  0.16074  1.0000
  H   H44       1.0  0.33962  0.79098  0.24537  1.0000
  H   H45       1.0  0.32055  0.80894  0.19572  1.0000
  N   N9        1.0  0.27625  0.78706  0.30520  1.0000
  C   C57       1.0  0.28942  0.74918  0.35216  1.0000
  C   C58       1.0  0.29981  0.53863  0.18667  1.0000
  C   C59       1.0  0.28522  0.52782  0.27758  1.0000
  H   H46       1.0  0.29885  0.51978  0.14655  1.0000
  H   H47       1.0  0.32394  0.55621  0.19465  1.0000
  H   H48       1.0  0.28784  0.54802  0.14783  1.0000
  N   N10       1.0  0.26914  0.99666  0.29099  1.0000
  C   C60       1.0  0.28835  0.54747  0.35245  1.0000
  C   C61       1.0  0.49807  0.76750  0.18506  1.0000
  C   C62       1.0  0.50869  0.76422  0.27683  1.0000
  H   H49       1.0  0.51701  0.78518  0.14464  1.0000
  H   H50       1.0  0.48048  0.77410  0.19155  1.0000
  H   H51       1.0  0.48876  0.74594  0.14735  1.0000
  N   N11       1.0  0.03981  0.77947  0.29104  1.0000
  C   C63       1.0  0.48887  0.74795  0.35163  1.0000
  N   N12       1.0  0.18847  0.84789  0.36373  1.0000
  C   C64       1.0  0.20472  0.83098  0.36592  1.0000
  C   C65       1.0  0.20536  0.88111  0.36525  1.0000
  C   C66       1.0  0.15527  0.83135  0.36619  1.0000
  C   C67       1.0  0.13756  0.81210  0.29302  1.0000
  C   C68       1.0  0.10497  0.79589  0.29527  1.0000
  C   C69       1.0  0.08818  0.79787  0.37088  1.0000
  C   C70       1.0  0.10618  0.81794  0.44276  1.0000
  C   C71       1.0  0.13878  0.83401  0.44094  1.0000
  C   C72       1.0  0.21261  0.82243  0.44956  1.0000
  C   C73       1.0  0.22890  0.80615  0.45157  1.0000
  C   C74       1.0  0.23751  0.79670  0.37032  1.0000
  C   C75       1.0  0.22978  0.80580  0.28669  1.0000
  C   C76       1.0  0.21388  0.82249  0.28445  1.0000
  C   C77       1.0  0.22430  0.89776  0.44023  1.0000
  C   C78       1.0  0.24071  0.93033  0.44184  1.0000
  C   C79       1.0  0.23864  0.94819  0.36962  1.0000
  C   C80       1.0  0.22002  0.93129  0.29385  1.0000
  C   C81       1.0  0.20374  0.89868  0.29181  1.0000
  H   H52       1.0  0.23531  0.80217  0.51413  1.0000
  H   H53       1.0  0.20683  0.82849  0.51018  1.0000
  H   H54       1.0  0.20882  0.82840  0.22240  1.0000
  H   H55       1.0  0.23544  0.79997  0.22542  1.0000
  H   H56       1.0  0.14846  0.80974  0.23699  1.0000
  H   H57       1.0  0.09346  0.78204  0.24074  1.0000
  H   H58       1.0  0.22650  0.88614  0.49453  1.0000
  H   H59       1.0  0.25507  0.94089  0.49595  1.0000
  H   H60       1.0  0.21769  0.94276  0.23917  1.0000
  H   H61       1.0  0.19042  0.88763  0.23600  1.0000
  H   H62       1.0  0.15061  0.84818  0.49452  1.0000
  H   H63       1.0  0.09570  0.82196  0.49663  1.0000
  N   N13       1.0  0.35514  0.68119  0.35885  1.0000
  C   C82       1.0  0.33889  0.69810  0.35667  1.0000
  C   C83       1.0  0.33825  0.64797  0.35732  1.0000
  C   C84       1.0  0.38834  0.69772  0.35638  1.0000
  C   C85       1.0  0.40605  0.71698  0.42954  1.0000
  C   C86       1.0  0.43864  0.73319  0.42729  1.0000
  C   C87       1.0  0.45543  0.73121  0.35167  1.0000
  C   C88       1.0  0.43743  0.71114  0.27981  1.0000
  C   C89       1.0  0.40483  0.69507  0.28162  1.0000
  C   C90       1.0  0.33099  0.70664  0.27303  1.0000
  C   C91       1.0  0.31468  0.72291  0.27103  1.0000
  C   C92       1.0  0.30611  0.73238  0.35228  1.0000
  C   C93       1.0  0.31383  0.72327  0.43591  1.0000
  C   C94       1.0  0.32974  0.70658  0.43814  1.0000
  C   C95       1.0  0.31932  0.63131  0.28235  1.0000
  C   C96       1.0  0.30291  0.59875  0.28073  1.0000
  C   C97       1.0  0.30498  0.58089  0.35294  1.0000
  C   C98       1.0  0.32360  0.59778  0.42872  1.0000
  C   C99       1.0  0.33987  0.63040  0.43077  1.0000
  H   H64       1.0  0.30829  0.72690  0.20847  1.0000
  H   H65       1.0  0.33676  0.70057  0.21241  1.0000
  H   H66       1.0  0.33480  0.70069  0.50019  1.0000
  H   H67       1.0  0.30818  0.72912  0.49718  1.0000
  H   H68       1.0  0.39516  0.71933  0.48559  1.0000
  H   H69       1.0  0.45016  0.74704  0.48182  1.0000
  H   H70       1.0  0.31711  0.64294  0.22805  1.0000
  H   H71       1.0  0.28855  0.58819  0.22662  1.0000
  H   H72       1.0  0.32592  0.58632  0.48341  1.0000
  H   H73       1.0  0.35319  0.64144  0.48658  1.0000
  H   H74       1.0  0.39300  0.68089  0.22806  1.0000
  H   H75       1.0  0.44791  0.70711  0.22593  1.0000
  C   C100      1.0  0.25418  0.77989  0.37043  1.0000
  C   C101      1.0  0.24976  0.75551  0.43022  1.0000
  C   C102      1.0  0.22613  0.74215  0.50306  1.0000
  H   H76       1.0  0.23308  0.75758  0.56189  1.0000
  H   H77       1.0  0.22307  0.72015  0.52694  1.0000
  H   H78       1.0  0.20400  0.73811  0.47733  1.0000
  N   N14       1.0  0.26736  0.74202  0.41739  1.0000
  C   C103      1.0  0.25526  0.98161  0.37012  1.0000
  C   C104      1.0  0.25840  0.00126  0.44499  1.0000
  C   C105      1.0  0.24381  0.99045  0.53590  1.0000
  H   H79       1.0  0.21968  0.97287  0.52792  1.0000
  H   H80       1.0  0.24477  0.00930  0.57602  1.0000
  H   H81       1.0  0.25578  0.98106  0.57474  1.0000
  N   N15       1.0  0.27448  0.53241  0.43158  1.0000
  C   C106      1.0  0.05474  0.78112  0.37091  1.0000
  C   C107      1.0  0.03492  0.76487  0.44575  1.0000
  C   C108      1.0  0.04554  0.76157  0.53750  1.0000
  H   H82       1.0  0.06311  0.75495  0.53097  1.0000
  H   H83       1.0  0.02660  0.74389  0.57790  1.0000
  H   H84       1.0  0.05486  0.78312  0.57524  1.0000
  N   N16       1.0  0.50380  0.74961  0.43151  1.0000
  C   C109      1.0  0.81750  0.28694  0.21959  1.0000
  C   C110      1.0  0.79384  0.27356  0.29235  1.0000
  H   H85       1.0  0.81057  0.27152  0.16074  1.0000
  H   H86       1.0  0.83962  0.29098  0.24537  1.0000
  H   H87       1.0  0.82055  0.30894  0.19572  1.0000
  N   N17       1.0  0.77625  0.28706  0.30520  1.0000
  C   C111      1.0  0.78943  0.24918  0.35216  1.0000
  C   C112      1.0  0.79981  0.03863  0.18667  1.0000
  C   C113      1.0  0.78522  0.02782  0.27758  1.0000
  H   H88       1.0  0.79885  0.01978  0.14655  1.0000
  H   H89       1.0  0.82394  0.05621  0.19465  1.0000
  H   H90       1.0  0.78784  0.04801  0.14783  1.0000
  N   N18       1.0  0.76914  0.49667  0.29099  1.0000
  C   C114      1.0  0.78835  0.04747  0.35245  1.0000
  C   C115      1.0  0.99807  0.26750  0.18506  1.0000
  C   C116      1.0  0.00869  0.26422  0.27683  1.0000
  H   H91       1.0  0.01701  0.28518  0.14464  1.0000
  H   H92       1.0  0.98048  0.27410  0.19155  1.0000
  H   H93       1.0  0.98876  0.24594  0.14735  1.0000
  N   N19       1.0  0.53981  0.27947  0.29104  1.0000
  C   C117      1.0  0.98888  0.24795  0.35163  1.0000
  N   N20       1.0  0.68847  0.34789  0.36373  1.0000
  C   C118      1.0  0.70472  0.33098  0.36592  1.0000
  C   C119      1.0  0.70536  0.38111  0.36525  1.0000
  C   C120      1.0  0.65527  0.33136  0.36619  1.0000
  C   C121      1.0  0.63757  0.31210  0.29302  1.0000
  C   C122      1.0  0.60498  0.29589  0.29527  1.0000
  C   C123      1.0  0.58818  0.29787  0.37088  1.0000
  C   C124      1.0  0.60618  0.31794  0.44276  1.0000
  C   C125      1.0  0.63878  0.33402  0.44094  1.0000
  C   C126      1.0  0.71261  0.32243  0.44956  1.0000
  C   C127      1.0  0.72890  0.30615  0.45157  1.0000
  C   C128      1.0  0.73751  0.29670  0.37032  1.0000
  C   C129      1.0  0.72979  0.30580  0.28669  1.0000
  C   C130      1.0  0.71388  0.32249  0.28445  1.0000
  C   C131      1.0  0.72430  0.39776  0.44023  1.0000
  C   C132      1.0  0.74071  0.43033  0.44184  1.0000
  C   C133      1.0  0.73864  0.44819  0.36962  1.0000
  C   C134      1.0  0.72002  0.43130  0.29385  1.0000
  C   C135      1.0  0.70374  0.39868  0.29181  1.0000
  H   H94       1.0  0.73531  0.30217  0.51413  1.0000
  H   H95       1.0  0.70683  0.32849  0.51018  1.0000
  H   H96       1.0  0.70882  0.32840  0.22240  1.0000
  H   H97       1.0  0.73544  0.29997  0.22542  1.0000
  H   H98       1.0  0.64846  0.30974  0.23699  1.0000
  H   H99       1.0  0.59346  0.28204  0.24074  1.0000
  H   H100      1.0  0.72650  0.38614  0.49453  1.0000
  H   H101      1.0  0.75507  0.44089  0.49595  1.0000
  H   H102      1.0  0.71769  0.44276  0.23917  1.0000
  H   H103      1.0  0.69042  0.38763  0.23600  1.0000
  H   H104      1.0  0.65061  0.34818  0.49452  1.0000
  H   H105      1.0  0.59570  0.32196  0.49663  1.0000
  N   N21       1.0  0.85515  0.18119  0.35885  1.0000
  C   C136      1.0  0.83889  0.19810  0.35667  1.0000
  C   C137      1.0  0.83826  0.14797  0.35732  1.0000
  C   C138      1.0  0.88834  0.19772  0.35637  1.0000
  C   C139      1.0  0.90605  0.21698  0.42954  1.0000
  C   C140      1.0  0.93864  0.23319  0.42729  1.0000
  C   C141      1.0  0.95543  0.23121  0.35167  1.0000
  C   C142      1.0  0.93743  0.21114  0.27981  1.0000
  C   C143      1.0  0.90483  0.19507  0.28162  1.0000
  C   C144      1.0  0.83099  0.20664  0.27303  1.0000
  C   C145      1.0  0.81468  0.22291  0.27103  1.0000
  C   C146      1.0  0.80611  0.23238  0.35228  1.0000
  C   C147      1.0  0.81383  0.22328  0.43591  1.0000
  C   C148      1.0  0.82974  0.20658  0.43814  1.0000
  C   C149      1.0  0.81932  0.13131  0.28235  1.0000
  C   C150      1.0  0.80291  0.09875  0.28073  1.0000
  C   C151      1.0  0.80498  0.08089  0.35294  1.0000
  C   C152      1.0  0.82360  0.09778  0.42872  1.0000
  C   C153      1.0  0.83987  0.13040  0.43077  1.0000
  H   H106      1.0  0.80829  0.22690  0.20847  1.0000
  H   H107      1.0  0.83676  0.20057  0.21241  1.0000
  H   H108      1.0  0.83481  0.20069  0.50019  1.0000
  H   H109      1.0  0.80818  0.22912  0.49718  1.0000
  H   H110      1.0  0.89516  0.21933  0.48559  1.0000
  H   H111      1.0  0.95016  0.24704  0.48182  1.0000
  H   H112      1.0  0.81711  0.14294  0.22805  1.0000
  H   H113      1.0  0.78855  0.08819  0.22662  1.0000
  H   H114      1.0  0.82592  0.08632  0.48341  1.0000
  H   H115      1.0  0.85320  0.14145  0.48658  1.0000
  H   H116      1.0  0.89300  0.18090  0.22806  1.0000
  H   H117      1.0  0.94791  0.20711  0.22593  1.0000
  C   C154      1.0  0.75418  0.27989  0.37043  1.0000
  C   C155      1.0  0.74976  0.25551  0.43023  1.0000
  C   C156      1.0  0.72613  0.24215  0.50307  1.0000
  H   H118      1.0  0.73308  0.25758  0.56189  1.0000
  H   H119      1.0  0.72308  0.22015  0.52694  1.0000
  H   H120      1.0  0.70400  0.23811  0.47734  1.0000
  N   N22       1.0  0.76736  0.24202  0.41739  1.0000
  C   C157      1.0  0.75526  0.48161  0.37012  1.0000
  C   C158      1.0  0.75840  0.50126  0.44499  1.0000
  C   C159      1.0  0.74381  0.49045  0.53590  1.0000
  H   H121      1.0  0.71968  0.47287  0.52792  1.0000
  H   H122      1.0  0.74476  0.50930  0.57602  1.0000
  H   H123      1.0  0.75578  0.48106  0.57474  1.0000
  N   N23       1.0  0.77448  0.03241  0.43158  1.0000
  C   C160      1.0  0.55474  0.28112  0.37091  1.0000
  C   C161      1.0  0.53492  0.26488  0.44574  1.0000
  C   C162      1.0  0.54554  0.26157  0.53750  1.0000
  H   H124      1.0  0.56312  0.25495  0.53097  1.0000
  H   H125      1.0  0.52660  0.24389  0.57790  1.0000
  H   H126      1.0  0.55486  0.28312  0.57524  1.0000
  N   N24       1.0  0.00380  0.24961  0.43151  1.0000
  C   C163      1.0  0.81750  0.78694  0.21959  1.0000
  C   C164      1.0  0.79384  0.77356  0.29235  1.0000
  H   H127      1.0  0.81056  0.77152  0.16074  1.0000
  H   H128      1.0  0.83962  0.79098  0.24537  1.0000
  H   H129      1.0  0.82055  0.80894  0.19572  1.0000
  N   N25       1.0  0.77625  0.78706  0.30520  1.0000
  C   C165      1.0  0.78942  0.74918  0.35216  1.0000
  C   C166      1.0  0.79981  0.53863  0.18667  1.0000
  C   C167      1.0  0.78522  0.52782  0.27758  1.0000
  H   H130      1.0  0.79885  0.51978  0.14655  1.0000
  H   H131      1.0  0.82394  0.55621  0.19465  1.0000
  H   H132      1.0  0.78784  0.54802  0.14783  1.0000
  N   N26       1.0  0.76914  0.99666  0.29099  1.0000
  C   C168      1.0  0.78836  0.54747  0.35245  1.0000
  C   C169      1.0  0.99807  0.76750  0.18506  1.0000
  C   C170      1.0  0.00869  0.76422  0.27683  1.0000
  H   H133      1.0  0.01701  0.78518  0.14464  1.0000
  H   H134      1.0  0.98048  0.77410  0.19155  1.0000
  H   H135      1.0  0.98876  0.74594  0.14735  1.0000
  N   N27       1.0  0.53981  0.77947  0.29104  1.0000
  C   C171      1.0  0.98887  0.74795  0.35163  1.0000
  N   N28       1.0  0.68847  0.84789  0.36373  1.0000
  C   C172      1.0  0.70472  0.83098  0.36592  1.0000
  C   C173      1.0  0.70536  0.88111  0.36525  1.0000
  C   C174      1.0  0.65527  0.83135  0.36619  1.0000
  C   C175      1.0  0.63756  0.81210  0.29302  1.0000
  C   C176      1.0  0.60498  0.79589  0.29527  1.0000
  C   C177      1.0  0.58818  0.79787  0.37088  1.0000
  C   C178      1.0  0.60618  0.81794  0.44276  1.0000
  C   C179      1.0  0.63877  0.83401  0.44094  1.0000
  C   C180      1.0  0.71261  0.82243  0.44956  1.0000
  C   C181      1.0  0.72891  0.80615  0.45157  1.0000
  C   C182      1.0  0.73751  0.79670  0.37032  1.0000
  C   C183      1.0  0.72978  0.80580  0.28669  1.0000
  C   C184      1.0  0.71388  0.82249  0.28445  1.0000
  C   C185      1.0  0.72430  0.89776  0.44023  1.0000
  C   C186      1.0  0.74071  0.93033  0.44184  1.0000
  C   C187      1.0  0.73864  0.94819  0.36962  1.0000
  C   C188      1.0  0.72002  0.93129  0.29385  1.0000
  C   C189      1.0  0.70374  0.89868  0.29181  1.0000
  H   H136      1.0  0.73531  0.80217  0.51413  1.0000
  H   H137      1.0  0.70683  0.82849  0.51018  1.0000
  H   H138      1.0  0.70882  0.82840  0.22240  1.0000
  H   H139      1.0  0.73544  0.79997  0.22542  1.0000
  H   H140      1.0  0.64846  0.80974  0.23699  1.0000
  H   H141      1.0  0.59346  0.78204  0.24074  1.0000
  H   H142      1.0  0.72650  0.88614  0.49453  1.0000
  H   H143      1.0  0.75507  0.94089  0.49595  1.0000
  H   H144      1.0  0.71769  0.94276  0.23917  1.0000
  H   H145      1.0  0.69042  0.88763  0.23600  1.0000
  H   H146      1.0  0.65061  0.84818  0.49452  1.0000
  H   H147      1.0  0.59570  0.82196  0.49663  1.0000
  N   N29       1.0  0.85514  0.68119  0.35885  1.0000
  C   C190      1.0  0.83889  0.69810  0.35667  1.0000
  C   C191      1.0  0.83825  0.64797  0.35732  1.0000
  C   C192      1.0  0.88834  0.69772  0.35638  1.0000
  C   C193      1.0  0.90605  0.71698  0.42954  1.0000
  C   C194      1.0  0.93864  0.73319  0.42729  1.0000
  C   C195      1.0  0.95543  0.73121  0.35167  1.0000
  C   C196      1.0  0.93743  0.71114  0.27981  1.0000
  C   C197      1.0  0.90483  0.69507  0.28162  1.0000
  C   C198      1.0  0.83099  0.70664  0.27303  1.0000
  C   C199      1.0  0.81468  0.72291  0.27103  1.0000
  C   C200      1.0  0.80611  0.73238  0.35228  1.0000
  C   C201      1.0  0.81383  0.72327  0.43591  1.0000
  C   C202      1.0  0.82974  0.70658  0.43814  1.0000
  C   C203      1.0  0.81932  0.63131  0.28235  1.0000
  C   C204      1.0  0.80291  0.59875  0.28073  1.0000
  C   C205      1.0  0.80498  0.58089  0.35294  1.0000
  C   C206      1.0  0.82360  0.59778  0.42872  1.0000
  C   C207      1.0  0.83987  0.63040  0.43077  1.0000
  H   H148      1.0  0.80829  0.72690  0.20847  1.0000
  H   H149      1.0  0.83676  0.70057  0.21241  1.0000
  H   H150      1.0  0.83480  0.70069  0.50019  1.0000
  H   H151      1.0  0.80818  0.72912  0.49718  1.0000
  H   H152      1.0  0.89516  0.71933  0.48559  1.0000
  H   H153      1.0  0.95016  0.74704  0.48182  1.0000
  H   H154      1.0  0.81711  0.64294  0.22805  1.0000
  H   H155      1.0  0.78855  0.58819  0.22662  1.0000
  H   H156      1.0  0.82592  0.58632  0.48341  1.0000
  H   H157      1.0  0.85319  0.64144  0.48658  1.0000
  H   H158      1.0  0.89300  0.68089  0.22806  1.0000
  H   H159      1.0  0.94791  0.70711  0.22593  1.0000
  C   C208      1.0  0.75418  0.77989  0.37043  1.0000
  C   C209      1.0  0.74976  0.75551  0.43022  1.0000
  C   C210      1.0  0.72613  0.74215  0.50306  1.0000
  H   H160      1.0  0.73308  0.75758  0.56189  1.0000
  H   H161      1.0  0.72307  0.72015  0.52694  1.0000
  H   H162      1.0  0.70400  0.73811  0.47733  1.0000
  N   N30       1.0  0.76736  0.74202  0.41739  1.0000
  C   C211      1.0  0.75526  0.98161  0.37012  1.0000
  C   C212      1.0  0.75840  0.00126  0.44499  1.0000
  C   C213      1.0  0.74381  0.99045  0.53590  1.0000
  H   H163      1.0  0.71968  0.97287  0.52792  1.0000
  H   H164      1.0  0.74477  0.00930  0.57602  1.0000
  H   H165      1.0  0.75578  0.98106  0.57474  1.0000
  N   N31       1.0  0.77448  0.53241  0.43158  1.0000
  C   C214      1.0  0.55474  0.78112  0.37091  1.0000
  C   C215      1.0  0.53492  0.76487  0.44575  1.0000
  C   C216      1.0  0.54554  0.76157  0.53750  1.0000
  H   H166      1.0  0.56312  0.75495  0.53097  1.0000
  H   H167      1.0  0.52660  0.74389  0.57790  1.0000
  H   H168      1.0  0.55486  0.78312  0.57524  1.0000
  N   N32       1.0  0.00380  0.74961  0.43151  1.0000
