data_image0
_chemical_formula_structural       C18H17C2H2C4H2C2H2C2H2C3NC3NC5NC4NC35H25C6H4C8H4
_chemical_formula_sum              "C92 H58 N4"
_cell_length_a       34.3271
_cell_length_b       34.3269
_cell_length_c       14.8589
_cell_angle_alpha    90
_cell_angle_beta     90
_cell_angle_gamma    89.9375

_space_group_name_H-M_alt    "P 1"
_space_group_IT_number       1

loop_
  _space_group_symop_operation_xyz
  'x, y, z'

loop_
  _atom_site_type_symbol
  _atom_site_label
  _atom_site_symmetry_multiplicity
  _atom_site_fract_x
  _atom_site_fract_y
  _atom_site_fract_z
  _atom_site_occupancy
  C   C1        1.0  0.08585  0.04239  0.34417  1.0000
  C   C2        1.0  0.99674  0.21097  0.26318  1.0000
  C   C3        1.0  0.99682  0.16994  0.26318  1.0000
  C   C4        1.0  0.97411  0.29560  0.29676  1.0000
  C   C5        1.0  0.97433  0.33663  0.29698  1.0000
  C   C6        1.0  0.00351  0.35798  0.34299  1.0000
  C   C7        1.0  0.20833  0.01053  0.26412  1.0000
  C   C8        1.0  0.16731  0.01068  0.26383  1.0000
  C   C9        1.0  0.33382  0.03295  0.29935  1.0000
  C   C10       1.0  0.29279  0.03313  0.29886  1.0000
  C   C11       1.0  0.00820  0.84018  0.26347  1.0000
  C   C12       1.0  0.00871  0.79916  0.26356  1.0000
  C   C13       1.0  0.03272  0.67384  0.29820  1.0000
  C   C14       1.0  0.03240  0.71487  0.29787  1.0000
  C   C15       1.0  0.83731  0.99931  0.26366  1.0000
  C   C16       1.0  0.79628  0.99899  0.26404  1.0000
  C   C17       1.0  0.71215  0.97517  0.29863  1.0000
  C   C18       1.0  0.67113  0.97477  0.29920  1.0000
  H   H1        1.0  0.65730  0.95246  0.26669  1.0000
  H   H2        1.0  0.72650  0.95330  0.26553  1.0000
  H   H3        1.0  0.78204  0.99524  0.20417  1.0000
  H   H4        1.0  0.85175  0.99532  0.20410  1.0000
  H   H5        1.0  0.01216  0.85472  0.20402  1.0000
  H   H6        1.0  0.01258  0.78501  0.20361  1.0000
  H   H7        1.0  0.08121  0.13635  0.34372  1.0000
  H   H8        1.0  0.15288  0.01489  0.20431  1.0000
  H   H9        1.0  0.22259  0.01422  0.20425  1.0000
  H   H10       1.0  0.27874  0.05533  0.26626  1.0000
  H   H11       1.0  0.34794  0.05519  0.26723  1.0000
  H   H12       1.0  0.99294  0.15542  0.20368  1.0000
  H   H13       1.0  0.99323  0.22513  0.20313  1.0000
  H   H14       1.0  0.95223  0.35078  0.26432  1.0000
  H   H15       1.0  0.95204  0.28157  0.26377  1.0000
  H   H16       1.0  0.05442  0.72917  0.26531  1.0000
  H   H17       1.0  0.05511  0.65996  0.26599  1.0000
  C   C19       1.0  0.01509  0.54771  0.26624  1.0000
  C   C20       1.0  0.01485  0.58875  0.26626  1.0000
  H   H18       1.0  0.02403  0.53383  0.20894  1.0000
  H   H19       1.0  0.02233  0.60278  0.20805  1.0000
  C   C21       1.0  0.00406  0.48409  0.34313  1.0000
  C   C22       1.0  0.00377  0.39987  0.34297  1.0000
  C   C23       1.0  0.99325  0.42151  0.26549  1.0000
  C   C24       1.0  0.99325  0.46254  0.26569  1.0000
  H   H20       1.0  0.98584  0.40758  0.20711  1.0000
  H   H21       1.0  0.98455  0.47653  0.20833  1.0000
  C   C25       1.0  0.45975  0.01417  0.26794  1.0000
  C   C26       1.0  0.41872  0.01415  0.26770  1.0000
  H   H22       1.0  0.47371  0.02307  0.21074  1.0000
  H   H23       1.0  0.40479  0.02176  0.20945  1.0000
  C   C27       1.0  0.58597  0.99265  0.26793  1.0000
  C   C28       1.0  0.54494  0.99235  0.26801  1.0000
  H   H24       1.0  0.60000  0.98538  0.20956  1.0000
  H   H25       1.0  0.53107  0.98359  0.21057  1.0000
  C   C29       1.0  0.90135  0.07751  0.34400  1.0000
  C   C30       1.0  0.92977  0.10595  0.34425  1.0000
  C   C31       1.0  0.96618  0.08768  0.34401  1.0000
  N   N1        1.0  0.95839  0.04892  0.34418  1.0000
  C   C32       1.0  0.91965  0.04112  0.34431  1.0000
  C   C33       1.0  0.89994  0.00462  0.34430  1.0000
  C   C34       1.0  0.91874  0.96771  0.34425  1.0000
  N   N2        1.0  0.95742  0.96015  0.34432  1.0000
  C   C35       1.0  0.96500  0.92147  0.34442  1.0000
  C   C36       1.0  0.92876  0.90301  0.34420  1.0000
  C   C37       1.0  0.90030  0.93145  0.34454  1.0000
  C   C38       1.0  0.00192  0.90270  0.34430  1.0000
  C   C39       1.0  0.03840  0.92243  0.34422  1.0000
  N   N3        1.0  0.04618  0.96118  0.34434  1.0000
  C   C40       1.0  0.08493  0.96898  0.34447  1.0000
  C   C41       1.0  0.10322  0.93258  0.34421  1.0000
  C   C42       1.0  0.07481  0.90415  0.34452  1.0000
  C   C43       1.0  0.10464  0.00547  0.34437  1.0000
  N   N4        1.0  0.04717  0.04995  0.34420  1.0000
  C   C44       1.0  0.03959  0.08862  0.34424  1.0000
  C   C45       1.0  0.07584  0.10708  0.34398  1.0000
  C   C46       1.0  0.10430  0.07864  0.34441  1.0000
  C   C47       1.0  0.00267  0.10740  0.34409  1.0000
  C   C48       1.0  0.00234  0.14902  0.34404  1.0000
  C   C49       1.0  0.00792  0.17004  0.42471  1.0000
  C   C50       1.0  0.00820  0.21106  0.42432  1.0000
  C   C51       1.0  0.00259  0.23234  0.34363  1.0000
  C   C52       1.0  0.00289  0.27403  0.34338  1.0000
  C   C53       1.0  0.03240  0.33622  0.38914  1.0000
  C   C54       1.0  0.03201  0.29519  0.38974  1.0000
  C   C55       1.0  0.14626  0.00512  0.34447  1.0000
  C   C56       1.0  0.16715  0.99921  0.42522  1.0000
  C   C57       1.0  0.20818  0.99869  0.42512  1.0000
  C   C58       1.0  0.22957  0.00445  0.34467  1.0000
  C   C59       1.0  0.27126  0.00417  0.34478  1.0000
  C   C60       1.0  0.29245  0.97492  0.39075  1.0000
  C   C61       1.0  0.33348  0.97457  0.39045  1.0000
  C   C62       1.0  0.35520  0.00362  0.34491  1.0000
  C   C63       1.0  0.00229  0.86108  0.34421  1.0000
  C   C64       1.0  0.00292  0.77777  0.34400  1.0000
  C   C65       1.0  0.99683  0.79901  0.42455  1.0000
  C   C66       1.0  0.99672  0.84004  0.42486  1.0000
  C   C67       1.0  0.00317  0.73608  0.34388  1.0000
  C   C68       1.0  0.97417  0.71457  0.38973  1.0000
  C   C69       1.0  0.97431  0.67354  0.38923  1.0000
  C   C70       1.0  0.00364  0.65214  0.34368  1.0000
  C   C71       1.0  0.85832  0.00492  0.34433  1.0000
  C   C72       1.0  0.83740  0.01044  0.42518  1.0000
  C   C73       1.0  0.79637  0.01048  0.42517  1.0000
  C   C74       1.0  0.77500  0.00462  0.34472  1.0000
  C   C75       1.0  0.73331  0.00429  0.34496  1.0000
  C   C76       1.0  0.64936  0.00365  0.34537  1.0000
  C   C77       1.0  0.67070  0.03284  0.39137  1.0000
  C   C78       1.0  0.71173  0.03306  0.39159  1.0000
  H   H26       1.0  0.65655  0.05495  0.42399  1.0000
  H   H27       1.0  0.72575  0.05517  0.42451  1.0000
  H   H28       1.0  0.78220  0.01401  0.48521  1.0000
  H   H29       1.0  0.85191  0.01435  0.48467  1.0000
  H   H30       1.0  0.87210  0.08307  0.34379  1.0000
  H   H31       1.0  0.92420  0.13520  0.34446  1.0000
  H   H32       1.0  0.97818  0.02915  0.34421  1.0000
  H   H33       1.0  0.02639  0.98096  0.34433  1.0000
  H   H34       1.0  0.87103  0.92607  0.34478  1.0000
  H   H35       1.0  0.92339  0.87373  0.34395  1.0000
  H   H36       1.0  0.99251  0.85446  0.48437  1.0000
  H   H37       1.0  0.99316  0.78475  0.48442  1.0000
  H   H38       1.0  0.08038  0.87491  0.34478  1.0000
  H   H39       1.0  0.13247  0.92702  0.34397  1.0000
  H   H40       1.0  0.13357  0.08401  0.34468  1.0000
  H   H41       1.0  0.15262  0.99525  0.48466  1.0000
  H   H42       1.0  0.22233  0.99481  0.48507  1.0000
  H   H43       1.0  0.34734  0.95217  0.42266  1.0000
  H   H44       1.0  0.27813  0.95293  0.42342  1.0000
  H   H45       1.0  0.05389  0.28086  0.42282  1.0000
  H   H46       1.0  0.05470  0.35006  0.42169  1.0000
  H   H47       1.0  0.01195  0.22531  0.48419  1.0000
  H   H48       1.0  0.01192  0.15560  0.48427  1.0000
  H   H49       1.0  0.95200  0.72864  0.42239  1.0000
  H   H50       1.0  0.95206  0.65944  0.42134  1.0000
  C   C79       1.0  0.00385  0.61025  0.34359  1.0000
  C   C80       1.0  0.99302  0.58861  0.42081  1.0000
  C   C81       1.0  0.99298  0.54759  0.42055  1.0000
  C   C82       1.0  0.00407  0.52603  0.34331  1.0000
  C   C83       1.0  0.01477  0.46239  0.42044  1.0000
  C   C84       1.0  0.01449  0.42136  0.42047  1.0000
  H   H51       1.0  0.02353  0.47625  0.47789  1.0000
  H   H52       1.0  0.02175  0.40733  0.47885  1.0000
  H   H53       1.0  0.98542  0.60255  0.47909  1.0000
  H   H54       1.0  0.98406  0.53362  0.47773  1.0000
  C   C85       1.0  0.39709  0.00336  0.34496  1.0000
  C   C86       1.0  0.41860  0.99236  0.42228  1.0000
  C   C87       1.0  0.45963  0.99208  0.42226  1.0000
  C   C88       1.0  0.48131  0.00308  0.34517  1.0000
  C   C89       1.0  0.52325  0.00307  0.34533  1.0000
  C   C90       1.0  0.54480  0.01389  0.42274  1.0000
  C   C91       1.0  0.58584  0.01389  0.42292  1.0000
  C   C92       1.0  0.60747  0.00337  0.34543  1.0000
  H   H55       1.0  0.53083  0.02260  0.48011  1.0000
  H   H56       1.0  0.59977  0.02131  0.48129  1.0000
  H   H57       1.0  0.40457  0.98489  0.48051  1.0000
  H   H58       1.0  0.47351  0.98314  0.47956  1.0000
