data_image0
_chemical_formula_structural       C5H3NHC3H3NHC3H3NHNCNCNC3O3NCNCNC3O3C3NC2NHOCH2NHC3NC2NHOCH2NHC3NC2NHOCH2NHC5H3NHC3H3NHC3H3NHNCNCNC3O3NCNCNC3O3C3NC2NHOCH2NHC3NC2NHOCH2NHC3NC2NHOCH2NHC5H3NHC3H3NHC3H3NHNCNCNC3O3NCNCNC3O3C3NC2NHOCH2NHC3NC2NHOCH2NHC3NC2NHOCH2NHC5H3NHC3H3NHC3H3NHNCNCNC3O3NCNCNC3O3C3NC2NHOCH2NHC3NC2NHOCH2NHC3NC2NHOCH2NH
_chemical_formula_sum              "C156 H96 N72 O36"
_cell_length_a       43.4583
_cell_length_b       43.4583
_cell_length_c       15.0323
_cell_angle_alpha    90
_cell_angle_beta     90
_cell_angle_gamma    120

_space_group_name_H-M_alt    "P 1"
_space_group_IT_number       1

loop_
  _space_group_symop_operation_xyz
  'x, y, z'

loop_
  _atom_site_type_symbol
  _atom_site_label
  _atom_site_symmetry_multiplicity
  _atom_site_fract_x
  _atom_site_fract_y
  _atom_site_fract_z
  _atom_site_occupancy
  C   C1        1.0  0.12894  0.31803  0.27301  1.0000
  C   C2        1.0  0.36579  0.17149  0.41259  1.0000
  C   C3        1.0  0.24393  0.28208  0.33093  1.0000
  C   C4        1.0  0.29181  0.26762  0.32793  1.0000
  C   C5        1.0  0.27667  0.28763  0.29714  1.0000
  H   H1        1.0  0.28824  0.30419  0.24395  1.0000
  H   H2        1.0  0.31323  0.27002  0.29394  1.0000
  H   H3        1.0  0.18957  0.26632  0.01702  1.0000
  N   N1        1.0  0.22887  0.30008  0.29362  1.0000
  H   H4        1.0  0.24468  0.32240  0.26334  1.0000
  C   C6        1.0  0.21524  0.46133  0.33087  1.0000
  C   C7        1.0  0.22973  0.02367  0.32777  1.0000
  C   C8        1.0  0.20969  0.48852  0.29704  1.0000
  H   H5        1.0  0.19317  0.48353  0.24378  1.0000
  H   H6        1.0  0.22736  0.04271  0.29374  1.0000
  H   H7        1.0  0.23094  0.42279  0.01707  1.0000
  N   N2        1.0  0.19722  0.42826  0.29361  1.0000
  H   H8        1.0  0.17492  0.42175  0.26318  1.0000
  C   C9        1.0  0.03601  0.25335  0.33104  1.0000
  C   C10       1.0  0.47366  0.20550  0.32794  1.0000
  C   C11       1.0  0.00882  0.22062  0.29722  1.0000
  H   H9        1.0  0.01381  0.20910  0.24394  1.0000
  H   H10       1.0  0.45463  0.18411  0.29390  1.0000
  H   H11       1.0  0.07461  0.30766  0.01723  1.0000
  N   N3        1.0  0.06907  0.26842  0.29375  1.0000
  H   H12       1.0  0.07559  0.25263  0.26339  1.0000
  N   N4        1.0  0.15106  0.35376  0.27393  1.0000
  C   C12       1.0  0.18691  0.36837  0.27294  1.0000
  N   N5        1.0  0.20053  0.34626  0.27389  1.0000
  C   C13       1.0  0.17930  0.31041  0.27295  1.0000
  N   N6        1.0  0.14357  0.29681  0.27396  1.0000
  C   C14       1.0  0.20944  0.40495  0.28631  1.0000
  C   C15       1.0  0.19334  0.28788  0.28638  1.0000
  C   C16       1.0  0.09237  0.30396  0.28647  1.0000
  O   O1        1.0  0.16983  0.25256  0.29313  1.0000
  O   O2        1.0  0.08054  0.32745  0.29327  1.0000
  O   O3        1.0  0.24476  0.41677  0.29310  1.0000
  N   N7        1.0  0.33753  0.13797  0.41192  1.0000
  C   C17       1.0  0.30354  0.13154  0.41256  1.0000
  N   N8        1.0  0.29829  0.15980  0.41194  1.0000
  C   C18       1.0  0.32584  0.19379  0.41260  1.0000
  N   N9        1.0  0.35936  0.19904  0.41197  1.0000
  C   C19       1.0  0.27463  0.09669  0.40668  1.0000
  C   C20       1.0  0.31991  0.22270  0.40678  1.0000
  C   C21       1.0  0.40064  0.17742  0.40672  1.0000
  O   O4        1.0  0.34871  0.25545  0.39572  1.0000
  O   O5        1.0  0.40457  0.14861  0.39568  1.0000
  O   O6        1.0  0.24189  0.09274  0.39554  1.0000
  C   C22       1.0  0.22939  0.25920  0.40548  1.0000
  C   C23       1.0  0.24459  0.23885  0.43645  1.0000
  C   C24       1.0  0.27551  0.24187  0.39600  1.0000
  N   N10       1.0  0.22976  0.21794  0.50943  1.0000
  C   C25       1.0  0.20193  0.21602  0.55490  1.0000
  C   C26       1.0  0.18814  0.23761  0.52751  1.0000
  N   N11       1.0  0.20223  0.25787  0.45377  1.0000
  H   H13       1.0  0.19217  0.20010  0.60966  1.0000
  O   O7        1.0  0.16061  0.23751  0.57162  1.0000
  C   C27       1.0  0.17210  0.26688  0.63216  1.0000
  H   H14       1.0  0.14866  0.26470  0.66461  1.0000
  H   H15       1.0  0.18565  0.29234  0.59720  1.0000
  N   N12       1.0  0.28711  0.21891  0.41900  1.0000
  H   H16       1.0  0.26971  0.19692  0.44788  1.0000
  C   C28       1.0  0.23809  0.46966  0.40546  1.0000
  C   C29       1.0  0.25847  0.00522  0.43636  1.0000
  C   C30       1.0  0.25548  0.03312  0.39584  1.0000
  N   N13       1.0  0.27937  0.01129  0.50935  1.0000
  C   C31       1.0  0.28128  0.98538  0.55485  1.0000
  C   C32       1.0  0.25965  0.44999  0.52753  1.0000
  N   N14       1.0  0.23940  0.44383  0.45377  1.0000
  H   H17       1.0  0.29716  0.99153  0.60967  1.0000
  O   O8        1.0  0.25973  0.42257  0.57170  1.0000
  C   C33       1.0  0.23036  0.40473  0.63226  1.0000
  H   H18       1.0  0.23251  0.38346  0.66476  1.0000
  H   H19       1.0  0.20490  0.39284  0.59732  1.0000
  N   N15       1.0  0.27844  0.06768  0.41887  1.0000
  H   H20       1.0  0.30042  0.07227  0.44779  1.0000
  C   C34       1.0  0.02767  0.26788  0.40562  1.0000
  C   C35       1.0  0.49211  0.25269  0.43656  1.0000
  C   C36       1.0  0.46421  0.22179  0.39604  1.0000
  N   N16       1.0  0.48605  0.26751  0.50957  1.0000
  C   C37       1.0  0.51196  0.29531  0.55513  1.0000
  C   C38       1.0  0.04734  0.30910  0.52773  1.0000
  N   N17       1.0  0.05350  0.29503  0.45395  1.0000
  H   H21       1.0  0.50580  0.30508  0.60984  1.0000
  O   O9        1.0  0.07476  0.33663  0.57184  1.0000
  C   C39       1.0  0.09264  0.32513  0.63238  1.0000
  H   H22       1.0  0.11391  0.34857  0.66483  1.0000
  H   H23       1.0  0.10455  0.31158  0.59742  1.0000
  N   N18       1.0  0.42965  0.21021  0.41902  1.0000
  H   H24       1.0  0.42507  0.22761  0.44793  1.0000
  C   C40       1.0  0.12894  0.81803  0.27301  1.0000
  C   C41       1.0  0.36580  0.67149  0.41259  1.0000
  C   C42       1.0  0.24393  0.78208  0.33093  1.0000
  C   C43       1.0  0.29181  0.76762  0.32793  1.0000
  C   C44       1.0  0.27666  0.78763  0.29714  1.0000
  H   H25       1.0  0.28824  0.80419  0.24395  1.0000
  H   H26       1.0  0.31323  0.77002  0.29394  1.0000
  H   H27       1.0  0.18957  0.76632  0.01702  1.0000
  N   N19       1.0  0.22887  0.80008  0.29362  1.0000
  H   H28       1.0  0.24468  0.82240  0.26334  1.0000
  C   C45       1.0  0.21524  0.96133  0.33087  1.0000
  C   C46       1.0  0.22973  0.52367  0.32777  1.0000
  C   C47       1.0  0.20969  0.98852  0.29704  1.0000
  H   H29       1.0  0.19317  0.98353  0.24378  1.0000
  H   H30       1.0  0.22736  0.54271  0.29374  1.0000
  H   H31       1.0  0.23094  0.92279  0.01707  1.0000
  N   N20       1.0  0.19722  0.92826  0.29361  1.0000
  H   H32       1.0  0.17492  0.92175  0.26318  1.0000
  C   C48       1.0  0.03600  0.75335  0.33104  1.0000
  C   C49       1.0  0.47367  0.70551  0.32794  1.0000
  C   C50       1.0  0.00882  0.72062  0.29722  1.0000
  H   H33       1.0  0.01381  0.70910  0.24394  1.0000
  H   H34       1.0  0.45463  0.68411  0.29390  1.0000
  H   H35       1.0  0.07461  0.80766  0.01723  1.0000
  N   N21       1.0  0.06907  0.76843  0.29375  1.0000
  H   H36       1.0  0.07559  0.75263  0.26339  1.0000
  N   N22       1.0  0.15106  0.85376  0.27393  1.0000
  C   C51       1.0  0.18691  0.86837  0.27294  1.0000
  N   N23       1.0  0.20053  0.84626  0.27389  1.0000
  C   C52       1.0  0.17931  0.81041  0.27295  1.0000
  N   N24       1.0  0.14357  0.79681  0.27396  1.0000
  C   C53       1.0  0.20944  0.90495  0.28631  1.0000
  C   C54       1.0  0.19334  0.78788  0.28638  1.0000
  C   C55       1.0  0.09237  0.80396  0.28647  1.0000
  O   O10       1.0  0.16983  0.75256  0.29313  1.0000
  O   O11       1.0  0.08054  0.82745  0.29327  1.0000
  O   O12       1.0  0.24476  0.91677  0.29310  1.0000
  N   N25       1.0  0.33753  0.63797  0.41192  1.0000
  C   C56       1.0  0.30354  0.63154  0.41256  1.0000
  N   N26       1.0  0.29830  0.65980  0.41194  1.0000
  C   C57       1.0  0.32584  0.69379  0.41260  1.0000
  N   N27       1.0  0.35936  0.69904  0.41197  1.0000
  C   C58       1.0  0.27463  0.59669  0.40668  1.0000
  C   C59       1.0  0.31991  0.72270  0.40678  1.0000
  C   C60       1.0  0.40064  0.67742  0.40672  1.0000
  O   O13       1.0  0.34871  0.75545  0.39572  1.0000
  O   O14       1.0  0.40458  0.64861  0.39568  1.0000
  O   O15       1.0  0.24189  0.59274  0.39554  1.0000
  C   C61       1.0  0.22939  0.75920  0.40548  1.0000
  C   C62       1.0  0.24459  0.73885  0.43645  1.0000
  C   C63       1.0  0.27551  0.74187  0.39600  1.0000
  N   N28       1.0  0.22976  0.71794  0.50943  1.0000
  C   C64       1.0  0.20193  0.71603  0.55490  1.0000
  C   C65       1.0  0.18814  0.73761  0.52751  1.0000
  N   N29       1.0  0.20223  0.75787  0.45377  1.0000
  H   H37       1.0  0.19217  0.70010  0.60966  1.0000
  O   O16       1.0  0.16061  0.73751  0.57162  1.0000
  C   C66       1.0  0.17210  0.76688  0.63216  1.0000
  H   H38       1.0  0.14866  0.76470  0.66461  1.0000
  H   H39       1.0  0.18565  0.79234  0.59720  1.0000
  N   N30       1.0  0.28711  0.71891  0.41900  1.0000
  H   H40       1.0  0.26971  0.69691  0.44788  1.0000
  C   C67       1.0  0.23810  0.96967  0.40546  1.0000
  C   C68       1.0  0.25847  0.50523  0.43636  1.0000
  C   C69       1.0  0.25548  0.53313  0.39584  1.0000
  N   N31       1.0  0.27937  0.51129  0.50935  1.0000
  C   C70       1.0  0.28128  0.48538  0.55485  1.0000
  C   C71       1.0  0.25965  0.94999  0.52753  1.0000
  N   N32       1.0  0.23940  0.94383  0.45377  1.0000
  H   H41       1.0  0.29716  0.49153  0.60967  1.0000
  O   O17       1.0  0.25973  0.92257  0.57170  1.0000
  C   C72       1.0  0.23036  0.90473  0.63226  1.0000
  H   H42       1.0  0.23251  0.88346  0.66476  1.0000
  H   H43       1.0  0.20490  0.89284  0.59731  1.0000
  N   N33       1.0  0.27844  0.56768  0.41887  1.0000
  H   H44       1.0  0.30042  0.57227  0.44779  1.0000
  C   C73       1.0  0.02767  0.76788  0.40562  1.0000
  C   C74       1.0  0.49211  0.75269  0.43656  1.0000
  C   C75       1.0  0.46421  0.72179  0.39604  1.0000
  N   N34       1.0  0.48605  0.76751  0.50957  1.0000
  C   C76       1.0  0.51196  0.79531  0.55513  1.0000
  C   C77       1.0  0.04734  0.80910  0.52773  1.0000
  N   N35       1.0  0.05350  0.79503  0.45395  1.0000
  H   H45       1.0  0.50580  0.80508  0.60984  1.0000
  O   O18       1.0  0.07476  0.83662  0.57184  1.0000
  C   C78       1.0  0.09264  0.82513  0.63238  1.0000
  H   H46       1.0  0.11391  0.84857  0.66483  1.0000
  H   H47       1.0  0.10454  0.81158  0.59742  1.0000
  N   N36       1.0  0.42965  0.71021  0.41902  1.0000
  H   H48       1.0  0.42507  0.72761  0.44793  1.0000
  C   C79       1.0  0.62894  0.31803  0.27301  1.0000
  C   C80       1.0  0.86580  0.17149  0.41259  1.0000
  C   C81       1.0  0.74393  0.28208  0.33093  1.0000
  C   C82       1.0  0.79181  0.26762  0.32793  1.0000
  C   C83       1.0  0.77667  0.28763  0.29714  1.0000
  H   H49       1.0  0.78824  0.30419  0.24395  1.0000
  H   H50       1.0  0.81323  0.27002  0.29394  1.0000
  H   H51       1.0  0.68957  0.26632  0.01702  1.0000
  N   N37       1.0  0.72887  0.30008  0.29362  1.0000
  H   H52       1.0  0.74468  0.32240  0.26334  1.0000
  C   C84       1.0  0.71523  0.46133  0.33087  1.0000
  C   C85       1.0  0.72973  0.02367  0.32777  1.0000
  C   C86       1.0  0.70969  0.48852  0.29704  1.0000
  H   H53       1.0  0.69317  0.48353  0.24378  1.0000
  H   H54       1.0  0.72736  0.04271  0.29374  1.0000
  H   H55       1.0  0.73094  0.42279  0.01707  1.0000
  N   N38       1.0  0.69721  0.42826  0.29361  1.0000
  H   H56       1.0  0.67492  0.42175  0.26318  1.0000
  C   C87       1.0  0.53600  0.25335  0.33104  1.0000
  C   C88       1.0  0.97367  0.20550  0.32794  1.0000
  C   C89       1.0  0.50882  0.22062  0.29722  1.0000
  H   H57       1.0  0.51381  0.20910  0.24394  1.0000
  H   H58       1.0  0.95463  0.18411  0.29390  1.0000
  H   H59       1.0  0.57461  0.30766  0.01723  1.0000
  N   N39       1.0  0.56907  0.26842  0.29375  1.0000
  H   H60       1.0  0.57559  0.25263  0.26339  1.0000
  N   N40       1.0  0.65106  0.35376  0.27393  1.0000
  C   C90       1.0  0.68691  0.36837  0.27294  1.0000
  N   N41       1.0  0.70054  0.34626  0.27389  1.0000
  C   C91       1.0  0.67931  0.31041  0.27295  1.0000
  N   N42       1.0  0.64357  0.29681  0.27396  1.0000
  C   C92       1.0  0.70944  0.40495  0.28631  1.0000
  C   C93       1.0  0.69334  0.28788  0.28638  1.0000
  C   C94       1.0  0.59237  0.30396  0.28647  1.0000
  O   O19       1.0  0.66983  0.25256  0.29313  1.0000
  O   O20       1.0  0.58054  0.32745  0.29327  1.0000
  O   O21       1.0  0.74476  0.41677  0.29310  1.0000
  N   N43       1.0  0.83753  0.13797  0.41192  1.0000
  C   C95       1.0  0.80354  0.13154  0.41256  1.0000
  N   N44       1.0  0.79830  0.15980  0.41194  1.0000
  C   C96       1.0  0.82584  0.19379  0.41260  1.0000
  N   N45       1.0  0.85936  0.19904  0.41197  1.0000
  C   C97       1.0  0.77463  0.09669  0.40668  1.0000
  C   C98       1.0  0.81991  0.22270  0.40678  1.0000
  C   C99       1.0  0.90064  0.17742  0.40672  1.0000
  O   O22       1.0  0.84871  0.25545  0.39572  1.0000
  O   O23       1.0  0.90457  0.14861  0.39568  1.0000
  O   O24       1.0  0.74189  0.09274  0.39554  1.0000
  C   C100      1.0  0.72939  0.25920  0.40548  1.0000
  C   C101      1.0  0.74459  0.23885  0.43645  1.0000
  C   C102      1.0  0.77551  0.24187  0.39600  1.0000
  N   N46       1.0  0.72976  0.21794  0.50943  1.0000
  C   C103      1.0  0.70193  0.21602  0.55490  1.0000
  C   C104      1.0  0.68814  0.23761  0.52751  1.0000
  N   N47       1.0  0.70223  0.25787  0.45377  1.0000
  H   H61       1.0  0.69217  0.20010  0.60966  1.0000
  O   O25       1.0  0.66061  0.23751  0.57162  1.0000
  C   C105      1.0  0.67210  0.26688  0.63216  1.0000
  H   H62       1.0  0.64866  0.26470  0.66461  1.0000
  H   H63       1.0  0.68565  0.29234  0.59720  1.0000
  N   N48       1.0  0.78711  0.21891  0.41900  1.0000
  H   H64       1.0  0.76971  0.19692  0.44788  1.0000
  C   C106      1.0  0.73809  0.46966  0.40546  1.0000
  C   C107      1.0  0.75847  0.00522  0.43636  1.0000
  C   C108      1.0  0.75548  0.03312  0.39584  1.0000
  N   N49       1.0  0.77937  0.01129  0.50935  1.0000
  C   C109      1.0  0.78128  0.98538  0.55485  1.0000
  C   C110      1.0  0.75965  0.44999  0.52753  1.0000
  N   N50       1.0  0.73940  0.44383  0.45377  1.0000
  H   H65       1.0  0.79716  0.99153  0.60967  1.0000
  O   O26       1.0  0.75973  0.42257  0.57170  1.0000
  C   C111      1.0  0.73036  0.40473  0.63226  1.0000
  H   H66       1.0  0.73251  0.38346  0.66476  1.0000
  H   H67       1.0  0.70490  0.39284  0.59732  1.0000
  N   N51       1.0  0.77844  0.06768  0.41887  1.0000
  H   H68       1.0  0.80042  0.07227  0.44779  1.0000
  C   C112      1.0  0.52767  0.26788  0.40562  1.0000
  C   C113      1.0  0.99211  0.25269  0.43656  1.0000
  C   C114      1.0  0.96421  0.22179  0.39604  1.0000
  N   N52       1.0  0.98605  0.26751  0.50957  1.0000
  C   C115      1.0  0.01196  0.29531  0.55513  1.0000
  C   C116      1.0  0.54734  0.30910  0.52773  1.0000
  N   N53       1.0  0.55351  0.29503  0.45395  1.0000
  H   H69       1.0  0.00580  0.30508  0.60984  1.0000
  O   O27       1.0  0.57476  0.33663  0.57184  1.0000
  C   C117      1.0  0.59264  0.32513  0.63238  1.0000
  H   H70       1.0  0.61391  0.34857  0.66483  1.0000
  H   H71       1.0  0.60454  0.31158  0.59742  1.0000
  N   N54       1.0  0.92965  0.21021  0.41902  1.0000
  H   H72       1.0  0.92507  0.22761  0.44793  1.0000
  C   C118      1.0  0.62894  0.81803  0.27301  1.0000
  C   C119      1.0  0.86580  0.67149  0.41259  1.0000
  C   C120      1.0  0.74393  0.78208  0.33093  1.0000
  C   C121      1.0  0.79181  0.76762  0.32793  1.0000
  C   C122      1.0  0.77667  0.78763  0.29714  1.0000
  H   H73       1.0  0.78824  0.80419  0.24395  1.0000
  H   H74       1.0  0.81323  0.77002  0.29394  1.0000
  H   H75       1.0  0.68957  0.76632  0.01702  1.0000
  N   N55       1.0  0.72887  0.80008  0.29362  1.0000
  H   H76       1.0  0.74468  0.82240  0.26334  1.0000
  C   C123      1.0  0.71524  0.96133  0.33087  1.0000
  C   C124      1.0  0.72973  0.52367  0.32777  1.0000
  C   C125      1.0  0.70969  0.98852  0.29704  1.0000
  H   H77       1.0  0.69317  0.98353  0.24378  1.0000
  H   H78       1.0  0.72736  0.54271  0.29374  1.0000
  H   H79       1.0  0.73094  0.92279  0.01707  1.0000
  N   N56       1.0  0.69721  0.92826  0.29361  1.0000
  H   H80       1.0  0.67492  0.92175  0.26318  1.0000
  C   C126      1.0  0.53601  0.75335  0.33104  1.0000
  C   C127      1.0  0.97367  0.70551  0.32794  1.0000
  C   C128      1.0  0.50882  0.72062  0.29722  1.0000
  H   H81       1.0  0.51381  0.70910  0.24394  1.0000
  H   H82       1.0  0.95463  0.68411  0.29390  1.0000
  H   H83       1.0  0.57461  0.80766  0.01723  1.0000
  N   N57       1.0  0.56907  0.76843  0.29375  1.0000
  H   H84       1.0  0.57559  0.75263  0.26339  1.0000
  N   N58       1.0  0.65106  0.85376  0.27393  1.0000
  C   C129      1.0  0.68691  0.86837  0.27294  1.0000
  N   N59       1.0  0.70054  0.84626  0.27389  1.0000
  C   C130      1.0  0.67931  0.81041  0.27295  1.0000
  N   N60       1.0  0.64357  0.79681  0.27396  1.0000
  C   C131      1.0  0.70944  0.90495  0.28631  1.0000
  C   C132      1.0  0.69334  0.78788  0.28638  1.0000
  C   C133      1.0  0.59237  0.80396  0.28647  1.0000
  O   O28       1.0  0.66983  0.75256  0.29313  1.0000
  O   O29       1.0  0.58054  0.82745  0.29327  1.0000
  O   O30       1.0  0.74476  0.91677  0.29310  1.0000
  N   N61       1.0  0.83753  0.63797  0.41192  1.0000
  C   C134      1.0  0.80354  0.63154  0.41256  1.0000
  N   N62       1.0  0.79830  0.65980  0.41194  1.0000
  C   C135      1.0  0.82584  0.69379  0.41260  1.0000
  N   N63       1.0  0.85936  0.69904  0.41197  1.0000
  C   C136      1.0  0.77463  0.59669  0.40668  1.0000
  C   C137      1.0  0.81991  0.72270  0.40678  1.0000
  C   C138      1.0  0.90064  0.67742  0.40672  1.0000
  O   O31       1.0  0.84871  0.75545  0.39572  1.0000
  O   O32       1.0  0.90458  0.64861  0.39568  1.0000
  O   O33       1.0  0.74189  0.59274  0.39554  1.0000
  C   C139      1.0  0.72939  0.75920  0.40548  1.0000
  C   C140      1.0  0.74459  0.73885  0.43645  1.0000
  C   C141      1.0  0.77551  0.74187  0.39600  1.0000
  N   N64       1.0  0.72976  0.71794  0.50943  1.0000
  C   C142      1.0  0.70193  0.71603  0.55490  1.0000
  C   C143      1.0  0.68814  0.73761  0.52751  1.0000
  N   N65       1.0  0.70223  0.75787  0.45377  1.0000
  H   H85       1.0  0.69217  0.70010  0.60966  1.0000
  O   O34       1.0  0.66061  0.73751  0.57162  1.0000
  C   C144      1.0  0.67210  0.76688  0.63216  1.0000
  H   H86       1.0  0.64866  0.76470  0.66461  1.0000
  H   H87       1.0  0.68565  0.79234  0.59720  1.0000
  N   N66       1.0  0.78711  0.71891  0.41900  1.0000
  H   H88       1.0  0.76971  0.69691  0.44788  1.0000
  C   C145      1.0  0.73809  0.96967  0.40546  1.0000
  C   C146      1.0  0.75847  0.50523  0.43636  1.0000
  C   C147      1.0  0.75548  0.53313  0.39584  1.0000
  N   N67       1.0  0.77937  0.51129  0.50935  1.0000
  C   C148      1.0  0.78128  0.48538  0.55485  1.0000
  C   C149      1.0  0.75965  0.94999  0.52753  1.0000
  N   N68       1.0  0.73940  0.94383  0.45377  1.0000
  H   H89       1.0  0.79716  0.49153  0.60967  1.0000
  O   O35       1.0  0.75973  0.92257  0.57170  1.0000
  C   C150      1.0  0.73036  0.90473  0.63226  1.0000
  H   H90       1.0  0.73251  0.88346  0.66476  1.0000
  H   H91       1.0  0.70490  0.89284  0.59731  1.0000
  N   N69       1.0  0.77844  0.56768  0.41887  1.0000
  H   H92       1.0  0.80042  0.57227  0.44779  1.0000
  C   C151      1.0  0.52767  0.76788  0.40562  1.0000
  C   C152      1.0  0.99211  0.75269  0.43656  1.0000
  C   C153      1.0  0.96422  0.72179  0.39604  1.0000
  N   N70       1.0  0.98605  0.76751  0.50957  1.0000
  C   C154      1.0  0.01196  0.79531  0.55513  1.0000
  C   C155      1.0  0.54734  0.80910  0.52773  1.0000
  N   N71       1.0  0.55351  0.79503  0.45395  1.0000
  H   H93       1.0  0.00580  0.80508  0.60984  1.0000
  O   O36       1.0  0.57476  0.83662  0.57184  1.0000
  C   C156      1.0  0.59264  0.82513  0.63238  1.0000
  H   H94       1.0  0.61391  0.84857  0.66483  1.0000
  H   H95       1.0  0.60455  0.81158  0.59742  1.0000
  N   N72       1.0  0.92965  0.71021  0.41902  1.0000
  H   H96       1.0  0.92507  0.72761  0.44793  1.0000
