data_image0
_chemical_formula_structural       C15H12C2NC2OHC2NC2OHC2NC2NC5NC3NC17H14NCHNCHC15H12C2NC2OHC2NC2OHC2NC2NC5NC3NC17H14NCHNCHC15H12C2NC2OHC2NC2OHC2NC2NC5NC3NC17H14NCHNCHC15H12C2NC2OHC2NC2OHC2NC2NC5NC3NC17H14NCHNCH
_chemical_formula_sum              "C216 H120 N32 O8"
_cell_length_a       42.6252
_cell_length_b       42.6252
_cell_length_c       14.9198
_cell_angle_alpha    90
_cell_angle_beta     90
_cell_angle_gamma    90

_space_group_name_H-M_alt    "P 1"
_space_group_IT_number       1

loop_
  _space_group_symop_operation_xyz
  'x, y, z'

loop_
  _atom_site_type_symbol
  _atom_site_label
  _atom_site_symmetry_multiplicity
  _atom_site_fract_x
  _atom_site_fract_y
  _atom_site_fract_z
  _atom_site_occupancy
  C   C1        1.0  0.43652  0.47424  0.33834  1.0000
  C   C2        1.0  0.03309  0.43592  0.33677  1.0000
  C   C3        1.0  0.50261  0.08563  0.34218  1.0000
  C   C4        1.0  0.47289  0.07054  0.34160  1.0000
  C   C5        1.0  0.42081  0.06253  0.34225  1.0000
  C   C6        1.0  0.44370  0.08543  0.34219  1.0000
  C   C7        1.0  0.33706  0.50209  0.26039  1.0000
  C   C8        1.0  0.37010  0.50195  0.25975  1.0000
  C   C9        1.0  0.50289  0.11913  0.34236  1.0000
  C   C10       1.0  0.50156  0.16901  0.26117  1.0000
  C   C11       1.0  0.50137  0.13598  0.26109  1.0000
  C   C12       1.0  0.13531  0.01213  0.25806  1.0000
  C   C13       1.0  0.16833  0.01218  0.25565  1.0000
  C   C14       1.0  0.01131  0.37075  0.25475  1.0000
  C   C15       1.0  0.01111  0.33772  0.25274  1.0000
  H   H1        1.0  0.01824  0.32678  0.19525  1.0000
  H   H2        1.0  0.01788  0.38278  0.19842  1.0000
  H   H3        1.0  0.44015  0.39862  0.32688  1.0000
  H   H4        1.0  0.12315  0.01881  0.20205  1.0000
  H   H5        1.0  0.17915  0.01961  0.19827  1.0000
  H   H6        1.0  0.06565  0.10799  0.35029  1.0000
  H   H7        1.0  0.39722  0.06685  0.34227  1.0000
  H   H8        1.0  0.43939  0.10902  0.34275  1.0000
  H   H9        1.0  0.50011  0.12430  0.20123  1.0000
  H   H10       1.0  0.50065  0.18019  0.20054  1.0000
  H   H11       1.0  0.38167  0.50084  0.19970  1.0000
  H   H12       1.0  0.32575  0.50126  0.19995  1.0000
  C   C16       1.0  0.00143  0.28637  0.32748  1.0000
  C   C17       1.0  0.00338  0.22013  0.34028  1.0000
  N   N1        1.0  0.99160  0.23548  0.26769  1.0000
  C   C18       1.0  0.98992  0.26717  0.25663  1.0000
  C   C19       1.0  0.97563  0.27865  0.18009  1.0000
  O   O1        1.0  0.97010  0.26129  0.11677  1.0000
  H   H13       1.0  0.96051  0.29615  0.18783  1.0000
  C   C20       1.0  0.21982  0.00218  0.32903  1.0000
  C   C21       1.0  0.28609  0.00395  0.34047  1.0000
  N   N2        1.0  0.27054  0.99235  0.26799  1.0000
  C   C22       1.0  0.23881  0.99076  0.25760  1.0000
  C   C23       1.0  0.22708  0.97669  0.18102  1.0000
  O   O2        1.0  0.24427  0.97122  0.11727  1.0000
  H   H14       1.0  0.20953  0.96164  0.18881  1.0000
  C   C24       1.0  0.44467  0.42211  0.33160  1.0000
  C   C25       1.0  0.42178  0.44501  0.33340  1.0000
  N   N3        1.0  0.46772  0.46789  0.34020  1.0000
  C   C26       1.0  0.47400  0.43669  0.33638  1.0000
  C   C27       1.0  0.50338  0.42072  0.33602  1.0000
  N   N4        1.0  0.03919  0.46708  0.33799  1.0000
  C   C28       1.0  0.07034  0.47321  0.33743  1.0000
  C   C29       1.0  0.08520  0.44400  0.33532  1.0000
  C   C30       1.0  0.06232  0.42110  0.33612  1.0000
  C   C31       1.0  0.08552  0.50293  0.33856  1.0000
  C   C32       1.0  0.06953  0.03228  0.34084  1.0000
  N   N5        1.0  0.03832  0.03854  0.33933  1.0000
  C   C33       1.0  0.03199  0.06973  0.34258  1.0000
  C   C34       1.0  0.06124  0.08446  0.34658  1.0000
  C   C35       1.0  0.08416  0.06158  0.34614  1.0000
  N   N6        1.0  0.46684  0.03940  0.34132  1.0000
  C   C36       1.0  0.43571  0.03334  0.34167  1.0000
  C   C37       1.0  0.42062  0.50362  0.34051  1.0000
  C   C38       1.0  0.38711  0.50341  0.34077  1.0000
  C   C39       1.0  0.37034  0.00500  0.42218  1.0000
  C   C40       1.0  0.33729  0.00526  0.42241  1.0000
  C   C41       1.0  0.31978  0.50396  0.34158  1.0000
  C   C42       1.0  0.00456  0.13605  0.42350  1.0000
  C   C43       1.0  0.00485  0.16910  0.42317  1.0000
  C   C44       1.0  0.50348  0.18645  0.34205  1.0000
  C   C45       1.0  0.11909  0.50325  0.33666  1.0000
  C   C46       1.0  0.18626  0.50268  0.33085  1.0000
  C   C47       1.0  0.16981  0.49443  0.40994  1.0000
  C   C48       1.0  0.13678  0.49473  0.41296  1.0000
  C   C49       1.0  0.50308  0.38714  0.33364  1.0000
  C   C50       1.0  0.49468  0.36961  0.41035  1.0000
  C   C51       1.0  0.49411  0.33659  0.40772  1.0000
  C   C52       1.0  0.50192  0.31995  0.32857  1.0000
  H   H15       1.0  0.48742  0.32475  0.46429  1.0000
  H   H16       1.0  0.48871  0.38081  0.46860  1.0000
  H   H17       1.0  0.39823  0.44062  0.33040  1.0000
  H   H18       1.0  0.48363  0.48375  0.34513  1.0000
  H   H19       1.0  0.02244  0.02266  0.33408  1.0000
  H   H20       1.0  0.06674  0.39754  0.33540  1.0000
  H   H21       1.0  0.10875  0.43960  0.33400  1.0000
  H   H22       1.0  0.12570  0.48832  0.47101  1.0000
  H   H23       1.0  0.18177  0.48753  0.46607  1.0000
  H   H24       1.0  0.10767  0.06608  0.34959  1.0000
  H   H25       1.0  0.00543  0.12440  0.48346  1.0000
  H   H26       1.0  0.00537  0.18025  0.48376  1.0000
  H   H27       1.0  0.32628  0.00574  0.48319  1.0000
  H   H28       1.0  0.38209  0.00591  0.48196  1.0000
  N   N7        1.0  0.01322  0.27123  0.40048  1.0000
  C   C53       1.0  0.01461  0.23961  0.40990  1.0000
  H   H29       1.0  0.02454  0.23070  0.46665  1.0000
  N   N8        1.0  0.23517  0.01380  0.40190  1.0000
  C   C54       1.0  0.26681  0.01511  0.41063  1.0000
  H   H30       1.0  0.27588  0.02490  0.46737  1.0000
  C   C55       1.0  0.43652  0.97424  0.33834  1.0000
  C   C56       1.0  0.03309  0.93592  0.33677  1.0000
  C   C57       1.0  0.50261  0.58563  0.34218  1.0000
  C   C58       1.0  0.47289  0.57054  0.34160  1.0000
  C   C59       1.0  0.42081  0.56253  0.34225  1.0000
  C   C60       1.0  0.44370  0.58544  0.34219  1.0000
  C   C61       1.0  0.33706  0.00208  0.26039  1.0000
  C   C62       1.0  0.37010  0.00195  0.25975  1.0000
  C   C63       1.0  0.50289  0.61913  0.34236  1.0000
  C   C64       1.0  0.50156  0.66901  0.26117  1.0000
  C   C65       1.0  0.50137  0.63598  0.26109  1.0000
  C   C66       1.0  0.13531  0.51213  0.25806  1.0000
  C   C67       1.0  0.16833  0.51219  0.25565  1.0000
  C   C68       1.0  0.01131  0.87075  0.25475  1.0000
  C   C69       1.0  0.01111  0.83772  0.25274  1.0000
  H   H31       1.0  0.01824  0.82678  0.19525  1.0000
  H   H32       1.0  0.01788  0.88278  0.19842  1.0000
  H   H33       1.0  0.44015  0.89862  0.32688  1.0000
  H   H34       1.0  0.12315  0.51881  0.20205  1.0000
  H   H35       1.0  0.17915  0.51961  0.19827  1.0000
  H   H36       1.0  0.06565  0.60799  0.35029  1.0000
  H   H37       1.0  0.39722  0.56685  0.34227  1.0000
  H   H38       1.0  0.43939  0.60902  0.34275  1.0000
  H   H39       1.0  0.50011  0.62430  0.20123  1.0000
  H   H40       1.0  0.50065  0.68019  0.20054  1.0000
  H   H41       1.0  0.38167  0.00084  0.19970  1.0000
  H   H42       1.0  0.32575  0.00126  0.19995  1.0000
  C   C70       1.0  0.00143  0.78637  0.32748  1.0000
  C   C71       1.0  0.00338  0.72013  0.34028  1.0000
  N   N9        1.0  0.99160  0.73548  0.26769  1.0000
  C   C72       1.0  0.98992  0.76717  0.25663  1.0000
  C   C73       1.0  0.97563  0.77865  0.18009  1.0000
  O   O3        1.0  0.97010  0.76129  0.11677  1.0000
  H   H43       1.0  0.96051  0.79615  0.18783  1.0000
  C   C74       1.0  0.21982  0.50218  0.32903  1.0000
  C   C75       1.0  0.28609  0.50395  0.34047  1.0000
  N   N10       1.0  0.27054  0.49235  0.26799  1.0000
  C   C76       1.0  0.23881  0.49076  0.25760  1.0000
  C   C77       1.0  0.22708  0.47669  0.18102  1.0000
  O   O4        1.0  0.24427  0.47122  0.11727  1.0000
  H   H44       1.0  0.20953  0.46164  0.18881  1.0000
  C   C78       1.0  0.44467  0.92210  0.33160  1.0000
  C   C79       1.0  0.42178  0.94501  0.33340  1.0000
  N   N11       1.0  0.46772  0.96789  0.34020  1.0000
  C   C80       1.0  0.47400  0.93669  0.33638  1.0000
  C   C81       1.0  0.50338  0.92072  0.33602  1.0000
  N   N12       1.0  0.03919  0.96708  0.33799  1.0000
  C   C82       1.0  0.07034  0.97321  0.33743  1.0000
  C   C83       1.0  0.08520  0.94400  0.33532  1.0000
  C   C84       1.0  0.06232  0.92110  0.33612  1.0000
  C   C85       1.0  0.08552  0.00293  0.33856  1.0000
  C   C86       1.0  0.06953  0.53228  0.34084  1.0000
  N   N13       1.0  0.03832  0.53854  0.33933  1.0000
  C   C87       1.0  0.03199  0.56973  0.34258  1.0000
  C   C88       1.0  0.06124  0.58445  0.34658  1.0000
  C   C89       1.0  0.08416  0.56158  0.34614  1.0000
  N   N14       1.0  0.46684  0.53940  0.34132  1.0000
  C   C90       1.0  0.43571  0.53334  0.34167  1.0000
  C   C91       1.0  0.42062  0.00362  0.34051  1.0000
  C   C92       1.0  0.38711  0.00341  0.34077  1.0000
  C   C93       1.0  0.37034  0.50500  0.42218  1.0000
  C   C94       1.0  0.33729  0.50526  0.42241  1.0000
  C   C95       1.0  0.31978  0.00396  0.34158  1.0000
  C   C96       1.0  0.00456  0.63605  0.42350  1.0000
  C   C97       1.0  0.00485  0.66910  0.42317  1.0000
  C   C98       1.0  0.50348  0.68645  0.34205  1.0000
  C   C99       1.0  0.11909  0.00325  0.33666  1.0000
  C   C100      1.0  0.18626  0.00268  0.33085  1.0000
  C   C101      1.0  0.16981  0.99443  0.40994  1.0000
  C   C102      1.0  0.13678  0.99473  0.41296  1.0000
  C   C103      1.0  0.50308  0.88714  0.33364  1.0000
  C   C104      1.0  0.49468  0.86961  0.41035  1.0000
  C   C105      1.0  0.49411  0.83658  0.40772  1.0000
  C   C106      1.0  0.50192  0.81995  0.32857  1.0000
  H   H45       1.0  0.48742  0.82475  0.46429  1.0000
  H   H46       1.0  0.48871  0.88080  0.46860  1.0000
  H   H47       1.0  0.39823  0.94062  0.33040  1.0000
  H   H48       1.0  0.48363  0.98375  0.34513  1.0000
  H   H49       1.0  0.02244  0.52266  0.33408  1.0000
  H   H50       1.0  0.06674  0.89754  0.33540  1.0000
  H   H51       1.0  0.10875  0.93960  0.33400  1.0000
  H   H52       1.0  0.12570  0.98832  0.47101  1.0000
  H   H53       1.0  0.18177  0.98753  0.46607  1.0000
  H   H54       1.0  0.10767  0.56608  0.34959  1.0000
  H   H55       1.0  0.00543  0.62440  0.48346  1.0000
  H   H56       1.0  0.00537  0.68025  0.48376  1.0000
  H   H57       1.0  0.32628  0.50574  0.48319  1.0000
  H   H58       1.0  0.38209  0.50591  0.48196  1.0000
  N   N15       1.0  0.01322  0.77123  0.40048  1.0000
  C   C107      1.0  0.01461  0.73961  0.40990  1.0000
  H   H59       1.0  0.02454  0.73069  0.46665  1.0000
  N   N16       1.0  0.23517  0.51380  0.40190  1.0000
  C   C108      1.0  0.26681  0.51511  0.41063  1.0000
  H   H60       1.0  0.27588  0.52490  0.46737  1.0000
  C   C109      1.0  0.93652  0.47424  0.33834  1.0000
  C   C110      1.0  0.53310  0.43592  0.33677  1.0000
  C   C111      1.0  0.00261  0.08563  0.34218  1.0000
  C   C112      1.0  0.97289  0.07054  0.34160  1.0000
  C   C113      1.0  0.92081  0.06253  0.34225  1.0000
  C   C114      1.0  0.94371  0.08543  0.34219  1.0000
  C   C115      1.0  0.83706  0.50209  0.26039  1.0000
  C   C116      1.0  0.87010  0.50195  0.25975  1.0000
  C   C117      1.0  0.00289  0.11913  0.34236  1.0000
  C   C118      1.0  0.00156  0.16901  0.26117  1.0000
  C   C119      1.0  0.00137  0.13598  0.26109  1.0000
  C   C120      1.0  0.63531  0.01213  0.25806  1.0000
  C   C121      1.0  0.66833  0.01218  0.25565  1.0000
  C   C122      1.0  0.51131  0.37075  0.25475  1.0000
  C   C123      1.0  0.51111  0.33772  0.25274  1.0000
  H   H61       1.0  0.51824  0.32678  0.19525  1.0000
  H   H62       1.0  0.51788  0.38278  0.19842  1.0000
  H   H63       1.0  0.94015  0.39862  0.32688  1.0000
  H   H64       1.0  0.62315  0.01881  0.20205  1.0000
  H   H65       1.0  0.67915  0.01961  0.19827  1.0000
  H   H66       1.0  0.56565  0.10799  0.35029  1.0000
  H   H67       1.0  0.89722  0.06685  0.34227  1.0000
  H   H68       1.0  0.93939  0.10902  0.34275  1.0000
  H   H69       1.0  0.00011  0.12430  0.20123  1.0000
  H   H70       1.0  0.00064  0.18019  0.20054  1.0000
  H   H71       1.0  0.88166  0.50084  0.19970  1.0000
  H   H72       1.0  0.82575  0.50126  0.19995  1.0000
  C   C124      1.0  0.50143  0.28637  0.32748  1.0000
  C   C125      1.0  0.50338  0.22013  0.34028  1.0000
  N   N17       1.0  0.49160  0.23548  0.26769  1.0000
  C   C126      1.0  0.48992  0.26717  0.25663  1.0000
  C   C127      1.0  0.47563  0.27865  0.18009  1.0000
  O   O5        1.0  0.47010  0.26129  0.11677  1.0000
  H   H73       1.0  0.46051  0.29615  0.18783  1.0000
  C   C128      1.0  0.71982  0.00218  0.32903  1.0000
  C   C129      1.0  0.78609  0.00395  0.34047  1.0000
  N   N18       1.0  0.77053  0.99235  0.26799  1.0000
  C   C130      1.0  0.73881  0.99076  0.25760  1.0000
  C   C131      1.0  0.72708  0.97669  0.18102  1.0000
  O   O6        1.0  0.74427  0.97122  0.11727  1.0000
  H   H74       1.0  0.70953  0.96164  0.18881  1.0000
  C   C132      1.0  0.94467  0.42211  0.33160  1.0000
  C   C133      1.0  0.92178  0.44501  0.33340  1.0000
  N   N19       1.0  0.96772  0.46789  0.34020  1.0000
  C   C134      1.0  0.97400  0.43669  0.33638  1.0000
  C   C135      1.0  0.00339  0.42072  0.33602  1.0000
  N   N20       1.0  0.53919  0.46708  0.33799  1.0000
  C   C136      1.0  0.57034  0.47321  0.33743  1.0000
  C   C137      1.0  0.58519  0.44400  0.33532  1.0000
  C   C138      1.0  0.56232  0.42110  0.33612  1.0000
  C   C139      1.0  0.58552  0.50293  0.33856  1.0000
  C   C140      1.0  0.56953  0.03228  0.34084  1.0000
  N   N21       1.0  0.53832  0.03854  0.33933  1.0000
  C   C141      1.0  0.53199  0.06973  0.34258  1.0000
  C   C142      1.0  0.56124  0.08446  0.34658  1.0000
  C   C143      1.0  0.58416  0.06158  0.34614  1.0000
  N   N22       1.0  0.96684  0.03940  0.34132  1.0000
  C   C144      1.0  0.93570  0.03334  0.34167  1.0000
  C   C145      1.0  0.92061  0.50362  0.34051  1.0000
  C   C146      1.0  0.88711  0.50341  0.34077  1.0000
  C   C147      1.0  0.87033  0.00500  0.42218  1.0000
  C   C148      1.0  0.83729  0.00526  0.42241  1.0000
  C   C149      1.0  0.81978  0.50396  0.34158  1.0000
  C   C150      1.0  0.50456  0.13605  0.42350  1.0000
  C   C151      1.0  0.50485  0.16910  0.42317  1.0000
  C   C152      1.0  0.00348  0.18645  0.34205  1.0000
  C   C153      1.0  0.61909  0.50325  0.33666  1.0000
  C   C154      1.0  0.68626  0.50268  0.33085  1.0000
  C   C155      1.0  0.66981  0.49443  0.40994  1.0000
  C   C156      1.0  0.63679  0.49473  0.41296  1.0000
  C   C157      1.0  0.00308  0.38714  0.33364  1.0000
  C   C158      1.0  0.99468  0.36961  0.41035  1.0000
  C   C159      1.0  0.99411  0.33659  0.40772  1.0000
  C   C160      1.0  0.00192  0.31995  0.32857  1.0000
  H   H75       1.0  0.98742  0.32475  0.46429  1.0000
  H   H76       1.0  0.98871  0.38081  0.46860  1.0000
  H   H77       1.0  0.89823  0.44062  0.33040  1.0000
  H   H78       1.0  0.98363  0.48375  0.34513  1.0000
  H   H79       1.0  0.52243  0.02266  0.33408  1.0000
  H   H80       1.0  0.56675  0.39754  0.33540  1.0000
  H   H81       1.0  0.60875  0.43960  0.33400  1.0000
  H   H82       1.0  0.62570  0.48832  0.47101  1.0000
  H   H83       1.0  0.68178  0.48753  0.46607  1.0000
  H   H84       1.0  0.60768  0.06608  0.34959  1.0000
  H   H85       1.0  0.50542  0.12440  0.48346  1.0000
  H   H86       1.0  0.50538  0.18025  0.48376  1.0000
  H   H87       1.0  0.82628  0.00574  0.48319  1.0000
  H   H88       1.0  0.88209  0.00591  0.48196  1.0000
  N   N23       1.0  0.51323  0.27123  0.40048  1.0000
  C   C161      1.0  0.51461  0.23961  0.40990  1.0000
  H   H89       1.0  0.52454  0.23070  0.46665  1.0000
  N   N24       1.0  0.73517  0.01380  0.40190  1.0000
  C   C162      1.0  0.76681  0.01511  0.41063  1.0000
  H   H90       1.0  0.77588  0.02490  0.46737  1.0000
  C   C163      1.0  0.93652  0.97424  0.33834  1.0000
  C   C164      1.0  0.53310  0.93592  0.33677  1.0000
  C   C165      1.0  0.00261  0.58563  0.34218  1.0000
  C   C166      1.0  0.97289  0.57054  0.34160  1.0000
  C   C167      1.0  0.92081  0.56253  0.34225  1.0000
  C   C168      1.0  0.94371  0.58544  0.34219  1.0000
  C   C169      1.0  0.83706  0.00208  0.26039  1.0000
  C   C170      1.0  0.87010  0.00195  0.25975  1.0000
  C   C171      1.0  0.00289  0.61913  0.34236  1.0000
  C   C172      1.0  0.00156  0.66901  0.26117  1.0000
  C   C173      1.0  0.00137  0.63598  0.26109  1.0000
  C   C174      1.0  0.63531  0.51213  0.25806  1.0000
  C   C175      1.0  0.66833  0.51219  0.25565  1.0000
  C   C176      1.0  0.51131  0.87075  0.25475  1.0000
  C   C177      1.0  0.51111  0.83772  0.25274  1.0000
  H   H91       1.0  0.51824  0.82678  0.19525  1.0000
  H   H92       1.0  0.51788  0.88278  0.19842  1.0000
  H   H93       1.0  0.94015  0.89862  0.32688  1.0000
  H   H94       1.0  0.62315  0.51881  0.20205  1.0000
  H   H95       1.0  0.67915  0.51961  0.19827  1.0000
  H   H96       1.0  0.56565  0.60799  0.35029  1.0000
  H   H97       1.0  0.89722  0.56685  0.34227  1.0000
  H   H98       1.0  0.93939  0.60902  0.34275  1.0000
  H   H99       1.0  0.00011  0.62430  0.20123  1.0000
  H   H100      1.0  0.00064  0.68019  0.20054  1.0000
  H   H101      1.0  0.88166  0.00084  0.19970  1.0000
  H   H102      1.0  0.82575  0.00126  0.19995  1.0000
  C   C178      1.0  0.50143  0.78637  0.32748  1.0000
  C   C179      1.0  0.50338  0.72013  0.34028  1.0000
  N   N25       1.0  0.49160  0.73548  0.26769  1.0000
  C   C180      1.0  0.48992  0.76717  0.25663  1.0000
  C   C181      1.0  0.47563  0.77865  0.18009  1.0000
  O   O7        1.0  0.47010  0.76129  0.11677  1.0000
  H   H103      1.0  0.46051  0.79615  0.18783  1.0000
  C   C182      1.0  0.71982  0.50218  0.32903  1.0000
  C   C183      1.0  0.78609  0.50395  0.34047  1.0000
  N   N26       1.0  0.77053  0.49235  0.26799  1.0000
  C   C184      1.0  0.73881  0.49076  0.25760  1.0000
  C   C185      1.0  0.72708  0.47669  0.18102  1.0000
  O   O8        1.0  0.74427  0.47122  0.11727  1.0000
  H   H104      1.0  0.70953  0.46164  0.18881  1.0000
  C   C186      1.0  0.94467  0.92210  0.33160  1.0000
  C   C187      1.0  0.92178  0.94501  0.33340  1.0000
  N   N27       1.0  0.96772  0.96789  0.34020  1.0000
  C   C188      1.0  0.97400  0.93669  0.33638  1.0000
  C   C189      1.0  0.00339  0.92072  0.33602  1.0000
  N   N28       1.0  0.53919  0.96708  0.33799  1.0000
  C   C190      1.0  0.57034  0.97321  0.33743  1.0000
  C   C191      1.0  0.58519  0.94400  0.33532  1.0000
  C   C192      1.0  0.56232  0.92110  0.33612  1.0000
  C   C193      1.0  0.58552  0.00293  0.33856  1.0000
  C   C194      1.0  0.56953  0.53228  0.34084  1.0000
  N   N29       1.0  0.53832  0.53854  0.33933  1.0000
  C   C195      1.0  0.53199  0.56973  0.34258  1.0000
  C   C196      1.0  0.56124  0.58445  0.34658  1.0000
  C   C197      1.0  0.58416  0.56158  0.34614  1.0000
  N   N30       1.0  0.96684  0.53940  0.34132  1.0000
  C   C198      1.0  0.93570  0.53334  0.34167  1.0000
  C   C199      1.0  0.92061  0.00362  0.34051  1.0000
  C   C200      1.0  0.88711  0.00341  0.34077  1.0000
  C   C201      1.0  0.87033  0.50500  0.42218  1.0000
  C   C202      1.0  0.83729  0.50526  0.42241  1.0000
  C   C203      1.0  0.81978  0.00396  0.34158  1.0000
  C   C204      1.0  0.50456  0.63605  0.42350  1.0000
  C   C205      1.0  0.50485  0.66910  0.42317  1.0000
  C   C206      1.0  0.00348  0.68645  0.34205  1.0000
  C   C207      1.0  0.61909  0.00325  0.33666  1.0000
  C   C208      1.0  0.68626  0.00268  0.33085  1.0000
  C   C209      1.0  0.66981  0.99443  0.40994  1.0000
  C   C210      1.0  0.63679  0.99473  0.41296  1.0000
  C   C211      1.0  0.00308  0.88714  0.33364  1.0000
  C   C212      1.0  0.99468  0.86961  0.41035  1.0000
  C   C213      1.0  0.99411  0.83658  0.40772  1.0000
  C   C214      1.0  0.00192  0.81995  0.32857  1.0000
  H   H105      1.0  0.98742  0.82475  0.46429  1.0000
  H   H106      1.0  0.98871  0.88080  0.46860  1.0000
  H   H107      1.0  0.89823  0.94062  0.33040  1.0000
  H   H108      1.0  0.98363  0.98375  0.34513  1.0000
  H   H109      1.0  0.52243  0.52266  0.33408  1.0000
  H   H110      1.0  0.56675  0.89754  0.33540  1.0000
  H   H111      1.0  0.60875  0.93960  0.33400  1.0000
  H   H112      1.0  0.62570  0.98832  0.47101  1.0000
  H   H113      1.0  0.68178  0.98753  0.46607  1.0000
  H   H114      1.0  0.60768  0.56608  0.34959  1.0000
  H   H115      1.0  0.50542  0.62440  0.48346  1.0000
  H   H116      1.0  0.50538  0.68025  0.48376  1.0000
  H   H117      1.0  0.82628  0.50574  0.48319  1.0000
  H   H118      1.0  0.88209  0.50591  0.48196  1.0000
  N   N31       1.0  0.51323  0.77123  0.40048  1.0000
  C   C215      1.0  0.51461  0.73961  0.40990  1.0000
  H   H119      1.0  0.52454  0.73069  0.46665  1.0000
  N   N32       1.0  0.73517  0.51380  0.40190  1.0000
  C   C216      1.0  0.76681  0.51511  0.41063  1.0000
  H   H120      1.0  0.77588  0.52490  0.46737  1.0000
