data_image0
_chemical_formula_structural       C7H2C2O2C3HCH3NHC3HCH3NHC5HC4H3C2O2CN3HCN3HC7H2C2O2C3HCH3NHC3HCH3NHC5HC4H3C2O2CN3HCN3HC7H2C2O2C3HCH3NHC3HCH3NHC5HC4H3C2O2CN3HCN3HC7H2C2O2C3HCH3NHC3HCH3NHC5HC4H3C2O2CN3HCN3H
_chemical_formula_sum              "C120 H72 O16 N32"
_cell_length_a       30.6748
_cell_length_b       30.6748
_cell_length_c       15.0714
_cell_angle_alpha    90
_cell_angle_beta     90
_cell_angle_gamma    90

_space_group_name_H-M_alt    "P 1"
_space_group_IT_number       1

loop_
  _space_group_symop_operation_xyz
  'x, y, z'

loop_
  _atom_site_type_symbol
  _atom_site_label
  _atom_site_symmetry_multiplicity
  _atom_site_fract_x
  _atom_site_fract_y
  _atom_site_fract_z
  _atom_site_occupancy
  C   C1        1.0  0.05491  0.00640  0.36660  1.0000
  C   C2        1.0  0.08785  0.03895  0.36679  1.0000
  C   C3        1.0  0.07734  0.08079  0.33526  1.0000
  C   C4        1.0  0.47883  0.48342  0.33703  1.0000
  C   C5        1.0  0.40361  0.45946  0.30288  1.0000
  C   C6        1.0  0.43603  0.49279  0.30471  1.0000
  C   C7        1.0  0.42849  0.03443  0.26760  1.0000
  H   H1        1.0  0.09318  0.45632  0.42603  1.0000
  H   H2        1.0  0.39956  0.04176  0.23745  1.0000
  C   C8        1.0  0.13259  0.03068  0.38250  1.0000
  C   C9        1.0  0.36039  0.46471  0.27092  1.0000
  O   O1        1.0  0.15517  0.06244  0.42533  1.0000
  O   O2        1.0  0.34206  0.42911  0.23244  1.0000
  C   C10       1.0  0.01720  0.23201  0.23304  1.0000
  C   C11       1.0  0.01698  0.27798  0.23965  1.0000
  C   C12       1.0  0.99459  0.29729  0.31255  1.0000
  H   H3        1.0  0.03121  0.21784  0.17887  1.0000
  C   C13       1.0  0.03868  0.30428  0.16937  1.0000
  H   H4        1.0  0.05334  0.28420  0.11751  1.0000
  H   H5        1.0  0.06456  0.32400  0.19864  1.0000
  H   H6        1.0  0.51489  0.32573  0.13780  1.0000
  N   N1        1.0  0.99197  0.34130  0.32575  1.0000
  H   H7        1.0  0.00880  0.35956  0.28556  1.0000
  C   C14       1.0  0.26331  0.97779  0.23338  1.0000
  C   C15       1.0  0.21733  0.97810  0.23985  1.0000
  C   C16       1.0  0.19801  0.00069  0.31247  1.0000
  H   H8        1.0  0.27749  0.96363  0.17938  1.0000
  C   C17       1.0  0.19104  0.95631  0.16966  1.0000
  H   H9        1.0  0.21114  0.94150  0.11800  1.0000
  H   H10       1.0  0.16967  0.98007  0.13783  1.0000
  H   H11       1.0  0.17125  0.43053  0.19910  1.0000
  N   N2        1.0  0.15400  0.00342  0.32553  1.0000
  H   H12       1.0  0.13573  0.98651  0.28546  1.0000
  C   C18       1.0  0.01186  0.01650  0.33692  1.0000
  C   C19       1.0  0.03567  0.09174  0.30249  1.0000
  C   C20       1.0  0.00240  0.05927  0.30452  1.0000
  C   C21       1.0  0.06340  0.46423  0.40007  1.0000
  C   C22       1.0  0.46072  0.06672  0.26752  1.0000
  H   H13       1.0  0.10149  0.10394  0.33405  1.0000
  C   C23       1.0  0.48903  0.44042  0.36683  1.0000
  C   C24       1.0  0.45652  0.40743  0.36727  1.0000
  C   C25       1.0  0.41465  0.41784  0.33577  1.0000
  C   C26       1.0  0.03123  0.43201  0.40014  1.0000
  H   H14       1.0  0.39154  0.39365  0.33472  1.0000
  H   H15       1.0  0.03921  0.40226  0.42620  1.0000
  H   H16       1.0  0.45331  0.09561  0.23732  1.0000
  C   C27       1.0  0.03031  0.13494  0.27047  1.0000
  C   C28       1.0  0.46488  0.36272  0.38306  1.0000
  O   O3        1.0  0.06585  0.15327  0.23173  1.0000
  O   O4        1.0  0.43323  0.34015  0.42624  1.0000
  C   C29       1.0  0.99682  0.20575  0.29811  1.0000
  N   N3        1.0  0.97418  0.26960  0.36951  1.0000
  N   N4        1.0  0.97513  0.22727  0.36320  1.0000
  N   N5        1.0  0.99876  0.16142  0.30486  1.0000
  H   H17       1.0  0.97988  0.14842  0.34993  1.0000
  C   C30       1.0  0.28956  0.99826  0.29835  1.0000
  N   N6        1.0  0.22570  0.02118  0.36933  1.0000
  N   N7        1.0  0.26803  0.02014  0.36316  1.0000
  N   N8        1.0  0.33389  0.99628  0.30513  1.0000
  H   H18       1.0  0.34683  0.01527  0.35008  1.0000
  C   C31       1.0  0.05491  0.50640  0.36660  1.0000
  C   C32       1.0  0.08785  0.53895  0.36679  1.0000
  C   C33       1.0  0.07734  0.58079  0.33526  1.0000
  C   C34       1.0  0.47883  0.98343  0.33703  1.0000
  C   C35       1.0  0.40361  0.95946  0.30288  1.0000
  C   C36       1.0  0.43603  0.99279  0.30471  1.0000
  C   C37       1.0  0.42849  0.53443  0.26760  1.0000
  H   H19       1.0  0.09318  0.95632  0.42603  1.0000
  H   H20       1.0  0.39956  0.54176  0.23745  1.0000
  C   C38       1.0  0.13259  0.53068  0.38250  1.0000
  C   C39       1.0  0.36039  0.96471  0.27092  1.0000
  O   O5        1.0  0.15517  0.56244  0.42533  1.0000
  O   O6        1.0  0.34206  0.92910  0.23244  1.0000
  C   C40       1.0  0.01720  0.73201  0.23304  1.0000
  C   C41       1.0  0.01698  0.77798  0.23965  1.0000
  C   C42       1.0  0.99459  0.79729  0.31255  1.0000
  H   H21       1.0  0.03121  0.71784  0.17887  1.0000
  C   C43       1.0  0.03868  0.80428  0.16937  1.0000
  H   H22       1.0  0.05334  0.78420  0.11751  1.0000
  H   H23       1.0  0.06456  0.82400  0.19864  1.0000
  H   H24       1.0  0.51489  0.82573  0.13780  1.0000
  N   N9        1.0  0.99197  0.84130  0.32575  1.0000
  H   H25       1.0  0.00880  0.85956  0.28556  1.0000
  C   C44       1.0  0.26331  0.47779  0.23338  1.0000
  C   C45       1.0  0.21733  0.47810  0.23985  1.0000
  C   C46       1.0  0.19801  0.50069  0.31247  1.0000
  H   H26       1.0  0.27749  0.46363  0.17938  1.0000
  C   C47       1.0  0.19104  0.45631  0.16966  1.0000
  H   H27       1.0  0.21114  0.44150  0.11800  1.0000
  H   H28       1.0  0.16967  0.48007  0.13783  1.0000
  H   H29       1.0  0.17125  0.93053  0.19910  1.0000
  N   N10       1.0  0.15400  0.50342  0.32553  1.0000
  H   H30       1.0  0.13573  0.48651  0.28546  1.0000
  C   C48       1.0  0.01186  0.51650  0.33692  1.0000
  C   C49       1.0  0.03567  0.59174  0.30249  1.0000
  C   C50       1.0  0.00240  0.55927  0.30452  1.0000
  C   C51       1.0  0.06340  0.96423  0.40007  1.0000
  C   C52       1.0  0.46072  0.56672  0.26752  1.0000
  H   H31       1.0  0.10149  0.60394  0.33405  1.0000
  C   C53       1.0  0.48903  0.94042  0.36683  1.0000
  C   C54       1.0  0.45652  0.90743  0.36727  1.0000
  C   C55       1.0  0.41465  0.91784  0.33577  1.0000
  C   C56       1.0  0.03123  0.93201  0.40014  1.0000
  H   H32       1.0  0.39154  0.89365  0.33472  1.0000
  H   H33       1.0  0.03921  0.90226  0.42620  1.0000
  H   H34       1.0  0.45331  0.59561  0.23732  1.0000
  C   C57       1.0  0.03031  0.63494  0.27047  1.0000
  C   C58       1.0  0.46488  0.86272  0.38306  1.0000
  O   O7        1.0  0.06585  0.65327  0.23173  1.0000
  O   O8        1.0  0.43323  0.84015  0.42624  1.0000
  C   C59       1.0  0.99682  0.70575  0.29811  1.0000
  N   N11       1.0  0.97418  0.76960  0.36951  1.0000
  N   N12       1.0  0.97513  0.72727  0.36320  1.0000
  N   N13       1.0  0.99876  0.66142  0.30486  1.0000
  H   H35       1.0  0.97988  0.64842  0.34993  1.0000
  C   C60       1.0  0.28956  0.49826  0.29835  1.0000
  N   N14       1.0  0.22570  0.52118  0.36933  1.0000
  N   N15       1.0  0.26803  0.52014  0.36316  1.0000
  N   N16       1.0  0.33389  0.49628  0.30513  1.0000
  H   H36       1.0  0.34683  0.51527  0.35008  1.0000
  C   C61       1.0  0.55491  0.00640  0.36660  1.0000
  C   C62       1.0  0.58785  0.03895  0.36679  1.0000
  C   C63       1.0  0.57734  0.08079  0.33526  1.0000
  C   C64       1.0  0.97883  0.48342  0.33703  1.0000
  C   C65       1.0  0.90361  0.45946  0.30288  1.0000
  C   C66       1.0  0.93602  0.49279  0.30471  1.0000
  C   C67       1.0  0.92849  0.03443  0.26760  1.0000
  H   H37       1.0  0.59318  0.45632  0.42603  1.0000
  H   H38       1.0  0.89956  0.04176  0.23745  1.0000
  C   C68       1.0  0.63259  0.03068  0.38250  1.0000
  C   C69       1.0  0.86039  0.46471  0.27092  1.0000
  O   O9        1.0  0.65517  0.06244  0.42533  1.0000
  O   O10       1.0  0.84206  0.42911  0.23244  1.0000
  C   C70       1.0  0.51720  0.23201  0.23304  1.0000
  C   C71       1.0  0.51698  0.27798  0.23965  1.0000
  C   C72       1.0  0.49460  0.29729  0.31255  1.0000
  H   H39       1.0  0.53121  0.21784  0.17887  1.0000
  C   C73       1.0  0.53868  0.30428  0.16937  1.0000
  H   H40       1.0  0.55334  0.28420  0.11751  1.0000
  H   H41       1.0  0.56456  0.32400  0.19864  1.0000
  H   H42       1.0  0.01489  0.32573  0.13780  1.0000
  N   N17       1.0  0.49197  0.34130  0.32575  1.0000
  H   H43       1.0  0.50880  0.35956  0.28556  1.0000
  C   C74       1.0  0.76331  0.97779  0.23338  1.0000
  C   C75       1.0  0.71733  0.97810  0.23985  1.0000
  C   C76       1.0  0.69801  0.00069  0.31247  1.0000
  H   H44       1.0  0.77749  0.96363  0.17938  1.0000
  C   C77       1.0  0.69104  0.95631  0.16966  1.0000
  H   H45       1.0  0.71114  0.94150  0.11800  1.0000
  H   H46       1.0  0.66967  0.98007  0.13783  1.0000
  H   H47       1.0  0.67125  0.43053  0.19910  1.0000
  N   N18       1.0  0.65400  0.00342  0.32553  1.0000
  H   H48       1.0  0.63573  0.98651  0.28546  1.0000
  C   C78       1.0  0.51186  0.01650  0.33692  1.0000
  C   C79       1.0  0.53567  0.09174  0.30249  1.0000
  C   C80       1.0  0.50240  0.05927  0.30452  1.0000
  C   C81       1.0  0.56340  0.46423  0.40007  1.0000
  C   C82       1.0  0.96072  0.06672  0.26752  1.0000
  H   H49       1.0  0.60149  0.10394  0.33405  1.0000
  C   C83       1.0  0.98903  0.44042  0.36683  1.0000
  C   C84       1.0  0.95652  0.40743  0.36727  1.0000
  C   C85       1.0  0.91465  0.41784  0.33577  1.0000
  C   C86       1.0  0.53123  0.43201  0.40014  1.0000
  H   H50       1.0  0.89154  0.39365  0.33472  1.0000
  H   H51       1.0  0.53921  0.40226  0.42620  1.0000
  H   H52       1.0  0.95331  0.09561  0.23732  1.0000
  C   C87       1.0  0.53031  0.13494  0.27047  1.0000
  C   C88       1.0  0.96488  0.36272  0.38306  1.0000
  O   O11       1.0  0.56584  0.15327  0.23173  1.0000
  O   O12       1.0  0.93323  0.34015  0.42624  1.0000
  C   C89       1.0  0.49683  0.20575  0.29811  1.0000
  N   N19       1.0  0.47418  0.26960  0.36951  1.0000
  N   N20       1.0  0.47513  0.22727  0.36320  1.0000
  N   N21       1.0  0.49876  0.16142  0.30486  1.0000
  H   H53       1.0  0.47988  0.14842  0.34993  1.0000
  C   C90       1.0  0.78956  0.99826  0.29835  1.0000
  N   N22       1.0  0.72570  0.02118  0.36933  1.0000
  N   N23       1.0  0.76802  0.02014  0.36316  1.0000
  N   N24       1.0  0.83389  0.99628  0.30513  1.0000
  H   H54       1.0  0.84683  0.01527  0.35008  1.0000
  C   C91       1.0  0.55491  0.50640  0.36660  1.0000
  C   C92       1.0  0.58785  0.53895  0.36679  1.0000
  C   C93       1.0  0.57734  0.58079  0.33526  1.0000
  C   C94       1.0  0.97883  0.98343  0.33703  1.0000
  C   C95       1.0  0.90361  0.95946  0.30288  1.0000
  C   C96       1.0  0.93602  0.99279  0.30471  1.0000
  C   C97       1.0  0.92849  0.53443  0.26760  1.0000
  H   H55       1.0  0.59318  0.95632  0.42603  1.0000
  H   H56       1.0  0.89956  0.54176  0.23745  1.0000
  C   C98       1.0  0.63259  0.53068  0.38250  1.0000
  C   C99       1.0  0.86039  0.96471  0.27092  1.0000
  O   O13       1.0  0.65517  0.56244  0.42533  1.0000
  O   O14       1.0  0.84206  0.92910  0.23244  1.0000
  C   C100      1.0  0.51720  0.73201  0.23304  1.0000
  C   C101      1.0  0.51698  0.77798  0.23965  1.0000
  C   C102      1.0  0.49460  0.79729  0.31255  1.0000
  H   H57       1.0  0.53121  0.71784  0.17887  1.0000
  C   C103      1.0  0.53868  0.80428  0.16937  1.0000
  H   H58       1.0  0.55334  0.78420  0.11751  1.0000
  H   H59       1.0  0.56456  0.82400  0.19864  1.0000
  H   H60       1.0  0.01489  0.82573  0.13780  1.0000
  N   N25       1.0  0.49197  0.84130  0.32575  1.0000
  H   H61       1.0  0.50880  0.85956  0.28556  1.0000
  C   C104      1.0  0.76331  0.47779  0.23338  1.0000
  C   C105      1.0  0.71733  0.47810  0.23985  1.0000
  C   C106      1.0  0.69801  0.50069  0.31247  1.0000
  H   H62       1.0  0.77749  0.46363  0.17938  1.0000
  C   C107      1.0  0.69104  0.45631  0.16966  1.0000
  H   H63       1.0  0.71114  0.44150  0.11800  1.0000
  H   H64       1.0  0.66967  0.48007  0.13783  1.0000
  H   H65       1.0  0.67125  0.93053  0.19910  1.0000
  N   N26       1.0  0.65400  0.50342  0.32553  1.0000
  H   H66       1.0  0.63573  0.48651  0.28546  1.0000
  C   C108      1.0  0.51186  0.51650  0.33692  1.0000
  C   C109      1.0  0.53567  0.59174  0.30249  1.0000
  C   C110      1.0  0.50240  0.55927  0.30452  1.0000
  C   C111      1.0  0.56340  0.96423  0.40007  1.0000
  C   C112      1.0  0.96072  0.56672  0.26752  1.0000
  H   H67       1.0  0.60149  0.60394  0.33405  1.0000
  C   C113      1.0  0.98903  0.94042  0.36683  1.0000
  C   C114      1.0  0.95652  0.90743  0.36727  1.0000
  C   C115      1.0  0.91465  0.91784  0.33577  1.0000
  C   C116      1.0  0.53123  0.93201  0.40014  1.0000
  H   H68       1.0  0.89154  0.89365  0.33472  1.0000
  H   H69       1.0  0.53921  0.90226  0.42620  1.0000
  H   H70       1.0  0.95331  0.59561  0.23732  1.0000
  C   C117      1.0  0.53031  0.63494  0.27047  1.0000
  C   C118      1.0  0.96488  0.86272  0.38306  1.0000
  O   O15       1.0  0.56584  0.65327  0.23173  1.0000
  O   O16       1.0  0.93323  0.84015  0.42624  1.0000
  C   C119      1.0  0.49683  0.70575  0.29811  1.0000
  N   N27       1.0  0.47418  0.76960  0.36951  1.0000
  N   N28       1.0  0.47513  0.72727  0.36320  1.0000
  N   N29       1.0  0.49876  0.66142  0.30486  1.0000
  H   H71       1.0  0.47988  0.64842  0.34993  1.0000
  C   C120      1.0  0.78956  0.49826  0.29835  1.0000
  N   N30       1.0  0.72570  0.52118  0.36933  1.0000
  N   N31       1.0  0.76802  0.52014  0.36316  1.0000
  N   N32       1.0  0.83389  0.49628  0.30513  1.0000
  H   H72       1.0  0.84683  0.51527  0.35008  1.0000
