data_image0
_chemical_formula_structural       C2HC2HC2H4C2HC2HC2H4C2HC2HC2H4C8H4C8H4C8H4C8H4C8H4C8H4C24H15C24H15C24H15C24H15C24H15C24H15C8H4C8H4C8H4C2HC2HC2H4C2HC2HC2H4C2HC2HC2H4C2HC2HC2H4C2HC2HC2H4C2HC2HC2H4
_chemical_formula_sum              "C270 H180"
_cell_length_a       77.5852
_cell_length_b       77.5852
_cell_length_c       14.9796
_cell_angle_alpha    90
_cell_angle_beta     90
_cell_angle_gamma    120

_space_group_name_H-M_alt    "P 1"
_space_group_IT_number       1

loop_
  _space_group_symop_operation_xyz
  'x, y, z'

loop_
  _atom_site_type_symbol
  _atom_site_label
  _atom_site_symmetry_multiplicity
  _atom_site_fract_x
  _atom_site_fract_y
  _atom_site_fract_z
  _atom_site_occupancy
  C   C1        1.0  0.02231  0.50986  0.26075  1.0000
  C   C2        1.0  0.04336  0.52033  0.25901  1.0000
  H   H1        1.0  0.05046  0.52279  0.19880  1.0000
  C   C3        1.0  0.95881  0.48242  0.25963  1.0000
  C   C4        1.0  0.97987  0.49299  0.26148  1.0000
  H   H2        1.0  0.95174  0.48070  0.19984  1.0000
  C   C5        1.0  0.99119  0.50217  0.17799  1.0000
  C   C6        1.0  0.01100  0.50189  0.17610  1.0000
  H   H3        1.0  0.99437  0.51757  0.17497  1.0000
  H   H4        1.0  0.98257  0.49443  0.11869  1.0000
  H   H5        1.0  0.01964  0.51049  0.11834  1.0000
  H   H6        1.0  0.00783  0.48658  0.16770  1.0000
  C   C7        1.0  0.49184  0.51279  0.26074  1.0000
  C   C8        1.0  0.48137  0.52337  0.25901  1.0000
  H   H7        1.0  0.47891  0.52800  0.19880  1.0000
  C   C9        1.0  0.51929  0.47674  0.25962  1.0000
  C   C10       1.0  0.50871  0.48722  0.26148  1.0000
  H   H8        1.0  0.52100  0.47139  0.19983  1.0000
  C   C11       1.0  0.49953  0.48936  0.17799  1.0000
  C   C12       1.0  0.49981  0.50944  0.17609  1.0000
  H   H9        1.0  0.48414  0.47714  0.17497  1.0000
  H   H10       1.0  0.50727  0.48848  0.11867  1.0000
  H   H11       1.0  0.49120  0.50948  0.11834  1.0000
  H   H12       1.0  0.51512  0.52159  0.16769  1.0000
  C   C13       1.0  0.48891  0.97940  0.26073  1.0000
  C   C14       1.0  0.47833  0.95834  0.25899  1.0000
  H   H13       1.0  0.47369  0.95124  0.19878  1.0000
  C   C15       1.0  0.52495  0.04289  0.25961  1.0000
  C   C16       1.0  0.51447  0.02183  0.26147  1.0000
  H   H14       1.0  0.53031  0.04996  0.19982  1.0000
  C   C17       1.0  0.51233  0.01051  0.17799  1.0000
  C   C18       1.0  0.49225  0.99070  0.17608  1.0000
  H   H15       1.0  0.52455  0.00733  0.17497  1.0000
  H   H16       1.0  0.51322  0.01913  0.11867  1.0000
  H   H17       1.0  0.49222  0.98206  0.11833  1.0000
  H   H18       1.0  0.48011  0.99387  0.16767  1.0000
  C   C19       1.0  0.31570  0.53845  0.33469  1.0000
  C   C20       1.0  0.30619  0.53578  0.25120  1.0000
  C   C21       1.0  0.28660  0.53228  0.24545  1.0000
  C   C22       1.0  0.27565  0.53141  0.32280  1.0000
  C   C23       1.0  0.25677  0.53090  0.31944  1.0000
  C   C24       1.0  0.25055  0.53743  0.24392  1.0000
  C   C25       1.0  0.23389  0.54004  0.24736  1.0000
  C   C26       1.0  0.22284  0.53647  0.32692  1.0000
  H   H19       1.0  0.25887  0.54190  0.18695  1.0000
  H   H20       1.0  0.23087  0.54610  0.19303  1.0000
  H   H21       1.0  0.31386  0.53766  0.19308  1.0000
  H   H22       1.0  0.28076  0.53101  0.18313  1.0000
  C   C27       1.0  0.46326  0.77759  0.33471  1.0000
  C   C28       1.0  0.46594  0.77076  0.25122  1.0000
  C   C29       1.0  0.46943  0.75467  0.24545  1.0000
  C   C30       1.0  0.47029  0.74459  0.32281  1.0000
  C   C31       1.0  0.47080  0.72622  0.31943  1.0000
  C   C32       1.0  0.46428  0.71347  0.24390  1.0000
  C   C33       1.0  0.46167  0.69419  0.24733  1.0000
  C   C34       1.0  0.46523  0.68671  0.32688  1.0000
  H   H23       1.0  0.45981  0.71732  0.18693  1.0000
  H   H24       1.0  0.45561  0.68512  0.19299  1.0000
  H   H25       1.0  0.46406  0.77656  0.19310  1.0000
  H   H26       1.0  0.47070  0.75010  0.18314  1.0000
  C   C35       1.0  0.22410  0.68601  0.33468  1.0000
  C   C36       1.0  0.23094  0.69552  0.25119  1.0000
  C   C37       1.0  0.24704  0.71510  0.24543  1.0000
  C   C38       1.0  0.25712  0.72605  0.32279  1.0000
  C   C39       1.0  0.27549  0.74492  0.31943  1.0000
  C   C40       1.0  0.28824  0.75115  0.24390  1.0000
  C   C41       1.0  0.30751  0.76781  0.24734  1.0000
  C   C42       1.0  0.31499  0.77886  0.32689  1.0000
  H   H27       1.0  0.28439  0.74283  0.18693  1.0000
  H   H28       1.0  0.31659  0.77083  0.19300  1.0000
  H   H29       1.0  0.22515  0.68784  0.19307  1.0000
  H   H30       1.0  0.25161  0.72094  0.18312  1.0000
  C   C43       1.0  0.68629  0.46293  0.33427  1.0000
  C   C44       1.0  0.69583  0.46559  0.25088  1.0000
  C   C45       1.0  0.71543  0.46910  0.24533  1.0000
  C   C46       1.0  0.72635  0.46999  0.32281  1.0000
  C   C47       1.0  0.74523  0.47049  0.31967  1.0000
  C   C48       1.0  0.75149  0.46398  0.24424  1.0000
  C   C49       1.0  0.76815  0.46137  0.24787  1.0000
  C   C50       1.0  0.77916  0.46492  0.32753  1.0000
  H   H31       1.0  0.74321  0.45952  0.18717  1.0000
  H   H32       1.0  0.77120  0.45533  0.19356  1.0000
  H   H33       1.0  0.68819  0.46371  0.19267  1.0000
  H   H34       1.0  0.72130  0.47037  0.18307  1.0000
  C   C51       1.0  0.53877  0.22369  0.33425  1.0000
  C   C52       1.0  0.53610  0.23058  0.25087  1.0000
  C   C53       1.0  0.53260  0.24667  0.24533  1.0000
  C   C54       1.0  0.53171  0.25670  0.32281  1.0000
  C   C55       1.0  0.53121  0.27508  0.31969  1.0000
  C   C56       1.0  0.53773  0.28786  0.24426  1.0000
  C   C57       1.0  0.54034  0.30713  0.24791  1.0000
  C   C58       1.0  0.53678  0.31458  0.32757  1.0000
  H   H35       1.0  0.54219  0.28403  0.18719  1.0000
  H   H36       1.0  0.54638  0.31622  0.19361  1.0000
  H   H37       1.0  0.53800  0.22482  0.19266  1.0000
  H   H38       1.0  0.53134  0.25127  0.18307  1.0000
  C   C59       1.0  0.77800  0.31541  0.33430  1.0000
  C   C60       1.0  0.77112  0.30587  0.25091  1.0000
  C   C61       1.0  0.75503  0.28628  0.24535  1.0000
  C   C62       1.0  0.74500  0.27536  0.32283  1.0000
  C   C63       1.0  0.72662  0.25648  0.31971  1.0000
  C   C64       1.0  0.71384  0.25022  0.24429  1.0000
  C   C65       1.0  0.69457  0.23356  0.24793  1.0000
  C   C66       1.0  0.68711  0.22255  0.32758  1.0000
  H   H39       1.0  0.71766  0.25851  0.18723  1.0000
  H   H40       1.0  0.68547  0.23051  0.19363  1.0000
  H   H41       1.0  0.77688  0.31353  0.19270  1.0000
  H   H42       1.0  0.75042  0.28042  0.18309  1.0000
  C   C67       1.0  0.17259  0.60154  0.33711  1.0000
  C   C68       1.0  0.15155  0.59113  0.33328  1.0000
  C   C69       1.0  0.14030  0.57002  0.33137  1.0000
  C   C70       1.0  0.15077  0.55938  0.33204  1.0000
  C   C71       1.0  0.17176  0.56930  0.33578  1.0000
  C   C72       1.0  0.18235  0.59030  0.33730  1.0000
  C   C73       1.0  0.11896  0.55969  0.33170  1.0000
  C   C74       1.0  0.10833  0.56596  0.38709  1.0000
  C   C75       1.0  0.08739  0.55561  0.38880  1.0000
  C   C76       1.0  0.07612  0.53849  0.33540  1.0000
  C   C77       1.0  0.08676  0.53226  0.27985  1.0000
  C   C78       1.0  0.10771  0.54262  0.27804  1.0000
  C   C79       1.0  0.18403  0.62278  0.34159  1.0000
  C   C80       1.0  0.18049  0.63501  0.28319  1.0000
  C   C81       1.0  0.19323  0.65582  0.28230  1.0000
  C   C82       1.0  0.20987  0.66518  0.34025  1.0000
  C   C83       1.0  0.21292  0.65292  0.40064  1.0000
  C   C84       1.0  0.20022  0.63220  0.40164  1.0000
  C   C85       1.0  0.18244  0.55881  0.33927  1.0000
  C   C86       1.0  0.19674  0.56320  0.40705  1.0000
  C   C87       1.0  0.20932  0.55503  0.40484  1.0000
  C   C88       1.0  0.20816  0.54234  0.33434  1.0000
  C   C89       1.0  0.19346  0.53753  0.26788  1.0000
  C   C90       1.0  0.18061  0.54546  0.27077  1.0000
  H   H43       1.0  0.19041  0.66407  0.23758  1.0000
  H   H44       1.0  0.16916  0.62880  0.23758  1.0000
  H   H45       1.0  0.22501  0.65881  0.44219  1.0000
  H   H46       1.0  0.20328  0.62397  0.44557  1.0000
  H   H47       1.0  0.19860  0.57296  0.45717  1.0000
  H   H48       1.0  0.22016  0.55944  0.45261  1.0000
  H   H49       1.0  0.17080  0.54242  0.21938  1.0000
  H   H50       1.0  0.19232  0.52858  0.21536  1.0000
  H   H51       1.0  0.11468  0.53761  0.23617  1.0000
  H   H52       1.0  0.07934  0.51980  0.24103  1.0000
  H   H53       1.0  0.08044  0.56090  0.42920  1.0000
  H   H54       1.0  0.11575  0.57798  0.42839  1.0000
  H   H55       1.0  0.14430  0.59911  0.33287  1.0000
  H   H56       1.0  0.19761  0.59757  0.33717  1.0000
  H   H57       1.0  0.14304  0.54414  0.33370  1.0000
  C   C91       1.0  0.40016  0.57138  0.33712  1.0000
  C   C92       1.0  0.41057  0.56076  0.33329  1.0000
  C   C93       1.0  0.43168  0.57062  0.33137  1.0000
  C   C94       1.0  0.44233  0.59173  0.33204  1.0000
  C   C95       1.0  0.43240  0.60280  0.33578  1.0000
  C   C96       1.0  0.41140  0.59240  0.33731  1.0000
  C   C97       1.0  0.44201  0.55961  0.33170  1.0000
  C   C98       1.0  0.43575  0.54272  0.38710  1.0000
  C   C99       1.0  0.44609  0.53212  0.38883  1.0000
  C   C100      1.0  0.46321  0.53797  0.33541  1.0000
  C   C101      1.0  0.46944  0.55484  0.27986  1.0000
  C   C102      1.0  0.45908  0.56543  0.27804  1.0000
  C   C103      1.0  0.37892  0.56159  0.34162  1.0000
  C   C104      1.0  0.36669  0.54582  0.28320  1.0000
  C   C105      1.0  0.34588  0.53776  0.28232  1.0000
  C   C106      1.0  0.33652  0.54504  0.34028  1.0000
  C   C107      1.0  0.34879  0.56034  0.40070  1.0000
  C   C108      1.0  0.36951  0.56837  0.40168  1.0000
  C   C109      1.0  0.44289  0.62397  0.33929  1.0000
  C   C110      1.0  0.43852  0.63389  0.40711  1.0000
  C   C111      1.0  0.44666  0.65463  0.40478  1.0000
  C   C112      1.0  0.45935  0.66615  0.33430  1.0000
  C   C113      1.0  0.46418  0.65627  0.26788  1.0000
  C   C114      1.0  0.45622  0.63549  0.27073  1.0000
  H   H58       1.0  0.33763  0.52669  0.23757  1.0000
  H   H59       1.0  0.37290  0.54071  0.23758  1.0000
  H   H60       1.0  0.34290  0.56655  0.44222  1.0000
  H   H61       1.0  0.37774  0.57965  0.44561  1.0000
  H   H62       1.0  0.42875  0.62599  0.45718  1.0000
  H   H63       1.0  0.44226  0.66106  0.45259  1.0000
  H   H64       1.0  0.45928  0.62872  0.21939  1.0000
  H   H65       1.0  0.47312  0.66407  0.21533  1.0000
  H   H66       1.0  0.46409  0.57741  0.23617  1.0000
  H   H67       1.0  0.48190  0.55988  0.24104  1.0000
  H   H68       1.0  0.44079  0.51987  0.42920  1.0000
  H   H69       1.0  0.42372  0.53812  0.42839  1.0000
  H   H70       1.0  0.40259  0.54553  0.33288  1.0000
  H   H71       1.0  0.40413  0.60038  0.33720  1.0000
  H   H72       1.0  0.45756  0.59924  0.33369  1.0000
  C   C115      1.0  0.43032  0.82911  0.33711  1.0000
  C   C116      1.0  0.44094  0.85015  0.33326  1.0000
  C   C117      1.0  0.43108  0.86140  0.33136  1.0000
  C   C118      1.0  0.40997  0.85093  0.33205  1.0000
  C   C119      1.0  0.39890  0.82994  0.33580  1.0000
  C   C120      1.0  0.40931  0.81935  0.33733  1.0000
  C   C121      1.0  0.44209  0.88274  0.33168  1.0000
  C   C122      1.0  0.45899  0.89337  0.38705  1.0000
  C   C123      1.0  0.46958  0.91431  0.38879  1.0000
  C   C124      1.0  0.46374  0.92558  0.33538  1.0000
  C   C125      1.0  0.44686  0.91494  0.27982  1.0000
  C   C126      1.0  0.43628  0.89399  0.27800  1.0000
  C   C127      1.0  0.44011  0.81767  0.34158  1.0000
  C   C128      1.0  0.45589  0.82122  0.28320  1.0000
  C   C129      1.0  0.46395  0.80846  0.28232  1.0000
  C   C130      1.0  0.45669  0.79184  0.34031  1.0000
  C   C131      1.0  0.44137  0.78879  0.40070  1.0000
  C   C132      1.0  0.43334  0.80149  0.40169  1.0000
  C   C133      1.0  0.37773  0.81926  0.33931  1.0000
  C   C134      1.0  0.36781  0.80497  0.40712  1.0000
  C   C135      1.0  0.34706  0.79238  0.40488  1.0000
  C   C136      1.0  0.33555  0.79353  0.33431  1.0000
  C   C137      1.0  0.34544  0.80825  0.26788  1.0000
  C   C138      1.0  0.36622  0.82106  0.27071  1.0000
  H   H73       1.0  0.47502  0.81129  0.23761  1.0000
  H   H74       1.0  0.46100  0.83253  0.23758  1.0000
  H   H75       1.0  0.43516  0.77669  0.44221  1.0000
  H   H76       1.0  0.42205  0.79842  0.44557  1.0000
  H   H77       1.0  0.37571  0.80309  0.45718  1.0000
  H   H78       1.0  0.34064  0.78153  0.45257  1.0000
  H   H79       1.0  0.37298  0.83091  0.21945  1.0000
  H   H80       1.0  0.33763  0.80939  0.21536  1.0000
  H   H81       1.0  0.42429  0.88702  0.23617  1.0000
  H   H82       1.0  0.44182  0.92235  0.24103  1.0000
  H   H83       1.0  0.48182  0.92126  0.42919  1.0000
  H   H84       1.0  0.46359  0.88595  0.42838  1.0000
  H   H85       1.0  0.45617  0.85739  0.33286  1.0000
  H   H86       1.0  0.40132  0.80410  0.33720  1.0000
  H   H87       1.0  0.40246  0.85866  0.33371  1.0000
  C   C139      1.0  0.82947  0.39990  0.33660  1.0000
  C   C140      1.0  0.85051  0.41034  0.33246  1.0000
  C   C141      1.0  0.86177  0.43145  0.33128  1.0000
  C   C142      1.0  0.85126  0.44206  0.33283  1.0000
  C   C143      1.0  0.83027  0.43213  0.33650  1.0000
  C   C144      1.0  0.81969  0.41113  0.33745  1.0000
  C   C145      1.0  0.88312  0.44182  0.33140  1.0000
  C   C146      1.0  0.89382  0.43519  0.38425  1.0000
  C   C147      1.0  0.91477  0.44556  0.38584  1.0000
  C   C148      1.0  0.92601  0.46312  0.33505  1.0000
  C   C149      1.0  0.91531  0.46973  0.28207  1.0000
  C   C150      1.0  0.89436  0.45929  0.28013  1.0000
  C   C151      1.0  0.81804  0.37866  0.34090  1.0000
  C   C152      1.0  0.82152  0.36644  0.28218  1.0000
  C   C153      1.0  0.80880  0.34563  0.28140  1.0000
  C   C154      1.0  0.79224  0.33624  0.33973  1.0000
  C   C155      1.0  0.78923  0.34850  0.40038  1.0000
  C   C156      1.0  0.80191  0.36922  0.40129  1.0000
  C   C157      1.0  0.81958  0.44260  0.34016  1.0000
  C   C158      1.0  0.80520  0.43813  0.40766  1.0000
  C   C159      1.0  0.79260  0.44628  0.40537  1.0000
  C   C160      1.0  0.79383  0.45904  0.33508  1.0000
  C   C161      1.0  0.80861  0.46394  0.26890  1.0000
  C   C162      1.0  0.82145  0.45601  0.27184  1.0000
  H   H88       1.0  0.81160  0.33738  0.23654  1.0000
  H   H89       1.0  0.83282  0.37266  0.23647  1.0000
  H   H90       1.0  0.77716  0.34261  0.44205  1.0000
  H   H91       1.0  0.79887  0.37744  0.44539  1.0000
  H   H92       1.0  0.80330  0.42832  0.45762  1.0000
  H   H93       1.0  0.78173  0.44183  0.45299  1.0000
  H   H94       1.0  0.83133  0.45913  0.22069  1.0000
  H   H95       1.0  0.80980  0.47296  0.21656  1.0000
  H   H96       1.0  0.88738  0.46460  0.24000  1.0000
  H   H97       1.0  0.92267  0.48250  0.24527  1.0000
  H   H98       1.0  0.92173  0.43996  0.42424  1.0000
  H   H99       1.0  0.88646  0.42288  0.42394  1.0000
  H   H100      1.0  0.85773  0.40234  0.33136  1.0000
  H   H101      1.0  0.80444  0.40385  0.33736  1.0000
  H   H102      1.0  0.85896  0.45730  0.33508  1.0000
  C   C163      1.0  0.60180  0.42991  0.33660  1.0000
  C   C164      1.0  0.59137  0.44051  0.33246  1.0000
  C   C165      1.0  0.57025  0.43065  0.33129  1.0000
  C   C166      1.0  0.55964  0.40953  0.33282  1.0000
  C   C167      1.0  0.56957  0.39848  0.33652  1.0000
  C   C168      1.0  0.59057  0.40889  0.33747  1.0000
  C   C169      1.0  0.55989  0.44165  0.33142  1.0000
  C   C170      1.0  0.56652  0.45898  0.38424  1.0000
  C   C171      1.0  0.55615  0.46955  0.38581  1.0000
  C   C172      1.0  0.53859  0.46324  0.33504  1.0000
  C   C173      1.0  0.53198  0.44593  0.28206  1.0000
  C   C174      1.0  0.54241  0.43541  0.28014  1.0000
  C   C175      1.0  0.62304  0.43971  0.34089  1.0000
  C   C176      1.0  0.63526  0.45542  0.28216  1.0000
  C   C177      1.0  0.65608  0.46351  0.28139  1.0000
  C   C178      1.0  0.66546  0.45632  0.33969  1.0000
  C   C179      1.0  0.65320  0.44105  0.40026  1.0000
  C   C180      1.0  0.63248  0.43301  0.40126  1.0000
  C   C181      1.0  0.55910  0.37731  0.34020  1.0000
  C   C182      1.0  0.56356  0.36740  0.40773  1.0000
  C   C183      1.0  0.55542  0.34666  0.40542  1.0000
  C   C184      1.0  0.54266  0.33514  0.33513  1.0000
  C   C185      1.0  0.53775  0.34500  0.26897  1.0000
  C   C186      1.0  0.54570  0.36578  0.27185  1.0000
  H   H103      1.0  0.66432  0.47456  0.23655  1.0000
  H   H104      1.0  0.62904  0.46050  0.23647  1.0000
  H   H105      1.0  0.65910  0.43489  0.44205  1.0000
  H   H106      1.0  0.62427  0.42177  0.44539  1.0000
  H   H107      1.0  0.57337  0.37531  0.45767  1.0000
  H   H108      1.0  0.55986  0.34024  0.45304  1.0000
  H   H109      1.0  0.54258  0.37254  0.22071  1.0000
  H   H110      1.0  0.52875  0.33719  0.21657  1.0000
  H   H111      1.0  0.53710  0.42312  0.24000  1.0000
  H   H112      1.0  0.51920  0.44051  0.24526  1.0000
  H   H113      1.0  0.56175  0.48212  0.42424  1.0000
  H   H114      1.0  0.57883  0.46393  0.42394  1.0000
  H   H115      1.0  0.59937  0.45573  0.33137  1.0000
  H   H116      1.0  0.59785  0.40092  0.33738  1.0000
  H   H117      1.0  0.54441  0.40201  0.33512  1.0000
  C   C187      1.0  0.57180  0.17224  0.33659  1.0000
  C   C188      1.0  0.56119  0.15120  0.33244  1.0000
  C   C189      1.0  0.57104  0.13993  0.33128  1.0000
  C   C190      1.0  0.59216  0.15044  0.33283  1.0000
  C   C191      1.0  0.60322  0.17142  0.33654  1.0000
  C   C192      1.0  0.59281  0.18201  0.33747  1.0000
  C   C193      1.0  0.56005  0.11858  0.33140  1.0000
  C   C194      1.0  0.54272  0.10788  0.38426  1.0000
  C   C195      1.0  0.53214  0.08693  0.38580  1.0000
  C   C196      1.0  0.53845  0.07569  0.33503  1.0000
  C   C197      1.0  0.55576  0.08639  0.28204  1.0000
  C   C198      1.0  0.56628  0.10734  0.28013  1.0000
  C   C199      1.0  0.56200  0.18368  0.34085  1.0000
  C   C200      1.0  0.54629  0.18019  0.28214  1.0000
  C   C201      1.0  0.53819  0.19290  0.28136  1.0000
  C   C202      1.0  0.54538  0.20947  0.33964  1.0000
  C   C203      1.0  0.56066  0.21250  0.40020  1.0000
  C   C204      1.0  0.56870  0.19982  0.40116  1.0000
  C   C205      1.0  0.62439  0.18211  0.34022  1.0000
  C   C206      1.0  0.63430  0.19648  0.40775  1.0000
  C   C207      1.0  0.65504  0.20907  0.40550  1.0000
  C   C208      1.0  0.66656  0.20787  0.33513  1.0000
  C   C209      1.0  0.65669  0.19310  0.26892  1.0000
  C   C210      1.0  0.63592  0.18025  0.27184  1.0000
  H   H118      1.0  0.52714  0.19009  0.23653  1.0000
  H   H119      1.0  0.54120  0.16888  0.23647  1.0000
  H   H120      1.0  0.56681  0.22455  0.44199  1.0000
  H   H121      1.0  0.57994  0.20284  0.44534  1.0000
  H   H122      1.0  0.62638  0.19838  0.45769  1.0000
  H   H123      1.0  0.66145  0.21996  0.45306  1.0000
  H   H124      1.0  0.62916  0.17037  0.22069  1.0000
  H   H125      1.0  0.66451  0.19192  0.21654  1.0000
  H   H126      1.0  0.57857  0.11431  0.24000  1.0000
  H   H127      1.0  0.56118  0.07903  0.24528  1.0000
  H   H128      1.0  0.51958  0.07997  0.42422  1.0000
  H   H129      1.0  0.53776  0.11524  0.42390  1.0000
  H   H130      1.0  0.54597  0.14398  0.33135  1.0000
  H   H131      1.0  0.60079  0.19726  0.33738  1.0000
  H   H132      1.0  0.59969  0.14273  0.33515  1.0000
  C   C211      1.0  0.05478  0.52785  0.33782  1.0000
  C   C212      1.0  0.04431  0.52452  0.41912  1.0000
  C   C213      1.0  0.02339  0.51405  0.42169  1.0000
  C   C214      1.0  0.01185  0.50622  0.34315  1.0000
  C   C215      1.0  0.99032  0.49558  0.34316  1.0000
  C   C216      1.0  0.97877  0.48670  0.42075  1.0000
  C   C217      1.0  0.95785  0.47620  0.41807  1.0000
  C   C218      1.0  0.94737  0.47383  0.33756  1.0000
  H   H133      1.0  0.98534  0.48737  0.48066  1.0000
  H   H134      1.0  0.95032  0.47047  0.47658  1.0000
  H   H135      1.0  0.05186  0.52949  0.47814  1.0000
  H   H136      1.0  0.01682  0.51261  0.48236  1.0000
  C   C219      1.0  0.47385  0.52727  0.33783  1.0000
  C   C220      1.0  0.47718  0.52013  0.41912  1.0000
  C   C221      1.0  0.48765  0.50968  0.42169  1.0000
  C   C222      1.0  0.49548  0.50597  0.34315  1.0000
  C   C223      1.0  0.50612  0.49508  0.34315  1.0000
  C   C224      1.0  0.51500  0.49241  0.42074  1.0000
  C   C225      1.0  0.52551  0.48200  0.41806  1.0000
  C   C226      1.0  0.52787  0.47388  0.33755  1.0000
  H   H137      1.0  0.51433  0.49831  0.48065  1.0000
  H   H138      1.0  0.53124  0.48020  0.47657  1.0000
  H   H139      1.0  0.47221  0.52271  0.47815  1.0000
  H   H140      1.0  0.48909  0.50455  0.48236  1.0000
  C   C227      1.0  0.47443  0.94692  0.33781  1.0000
  C   C228      1.0  0.48157  0.95739  0.41910  1.0000
  C   C229      1.0  0.49201  0.97831  0.42168  1.0000
  C   C230      1.0  0.49572  0.98985  0.34313  1.0000
  C   C231      1.0  0.50661  0.01138  0.34315  1.0000
  C   C232      1.0  0.50928  0.02293  0.42073  1.0000
  C   C233      1.0  0.51969  0.04385  0.41805  1.0000
  C   C234      1.0  0.52781  0.05433  0.33754  1.0000
  H   H141      1.0  0.50338  0.01636  0.48064  1.0000
  H   H142      1.0  0.52149  0.05138  0.47655  1.0000
  H   H143      1.0  0.47899  0.94985  0.47813  1.0000
  H   H144      1.0  0.49714  0.98488  0.48234  1.0000
  C   C235      1.0  0.28454  0.53234  0.40732  1.0000
  C   C236      1.0  0.30432  0.53609  0.41225  1.0000
  H   H145      1.0  0.31066  0.53757  0.47380  1.0000
  C   C237      1.0  0.22846  0.52929  0.40166  1.0000
  C   C238      1.0  0.24511  0.52648  0.39855  1.0000
  H   H146      1.0  0.22063  0.52657  0.46000  1.0000
  C   C239      1.0  0.25106  0.51955  0.47926  1.0000
  C   C240      1.0  0.27391  0.53140  0.49163  1.0000
  H   H147      1.0  0.24626  0.50380  0.47029  1.0000
  H   H148      1.0  0.24399  0.52094  0.53987  1.0000
  H   H149      1.0  0.27777  0.52419  0.54446  1.0000
  H   H150      1.0  0.27856  0.54658  0.51310  1.0000
  C   C241      1.0  0.46937  0.75254  0.40733  1.0000
  C   C242      1.0  0.46562  0.76857  0.41227  1.0000
  H   H151      1.0  0.46414  0.77343  0.47382  1.0000
  C   C243      1.0  0.47241  0.69951  0.40163  1.0000
  C   C244      1.0  0.47522  0.71897  0.39854  1.0000
  H   H152      1.0  0.47512  0.69440  0.45996  1.0000
  C   C245      1.0  0.48215  0.73184  0.47926  1.0000
  C   C246      1.0  0.47030  0.74285  0.49163  1.0000
  H   H153      1.0  0.49790  0.74280  0.47031  1.0000
  H   H154      1.0  0.48075  0.72338  0.53986  1.0000
  H   H155      1.0  0.47751  0.75392  0.54447  1.0000
  H   H156      1.0  0.45512  0.73232  0.51308  1.0000
  C   C247      1.0  0.24916  0.71716  0.40731  1.0000
  C   C248      1.0  0.23313  0.69739  0.41223  1.0000
  H   H157      1.0  0.22827  0.69105  0.47378  1.0000
  C   C249      1.0  0.30219  0.77324  0.40163  1.0000
  C   C250      1.0  0.28273  0.75659  0.39854  1.0000
  H   H158      1.0  0.30730  0.78106  0.45998  1.0000
  C   C251      1.0  0.26986  0.75064  0.47925  1.0000
  C   C252      1.0  0.25885  0.72779  0.49162  1.0000
  H   H159      1.0  0.25890  0.75544  0.47032  1.0000
  H   H160      1.0  0.27832  0.75771  0.53986  1.0000
  H   H161      1.0  0.24778  0.72393  0.54446  1.0000
  H   H162      1.0  0.26938  0.72313  0.51306  1.0000
  C   C253      1.0  0.71743  0.46907  0.40722  1.0000
  C   C254      1.0  0.69765  0.46532  0.41194  1.0000
  H   H163      1.0  0.69129  0.46385  0.47344  1.0000
  C   C255      1.0  0.77349  0.47207  0.40221  1.0000
  C   C256      1.0  0.75686  0.47489  0.39892  1.0000
  H   H164      1.0  0.78128  0.47477  0.46065  1.0000
  C   C257      1.0  0.75088  0.48182  0.47951  1.0000
  C   C258      1.0  0.72801  0.47000  0.49166  1.0000
  H   H165      1.0  0.75569  0.49758  0.47054  1.0000
  H   H166      1.0  0.75791  0.48042  0.54021  1.0000
  H   H167      1.0  0.72414  0.47723  0.54438  1.0000
  H   H168      1.0  0.72334  0.45482  0.51320  1.0000
  C   C259      1.0  0.53263  0.24870  0.40722  1.0000
  C   C260      1.0  0.53638  0.23267  0.41193  1.0000
  H   H169      1.0  0.53785  0.22777  0.47342  1.0000
  C   C261      1.0  0.52964  0.30176  0.40225  1.0000
  C   C262      1.0  0.52681  0.28230  0.39894  1.0000
  H   H170      1.0  0.52694  0.30685  0.46068  1.0000
  C   C263      1.0  0.51988  0.26939  0.47952  1.0000
  C   C264      1.0  0.53170  0.25835  0.49167  1.0000
  H   H171      1.0  0.50412  0.25845  0.47055  1.0000
  H   H172      1.0  0.52129  0.27783  0.54023  1.0000
  H   H173      1.0  0.52447  0.24725  0.54438  1.0000
  H   H174      1.0  0.54688  0.26885  0.51321  1.0000
  C   C265      1.0  0.75300  0.28427  0.40725  1.0000
  C   C266      1.0  0.76904  0.30405  0.41197  1.0000
  H   H175      1.0  0.77393  0.31040  0.47346  1.0000
  C   C267      1.0  0.69994  0.22821  0.40225  1.0000
  C   C268      1.0  0.71940  0.24485  0.39894  1.0000
  H   H176      1.0  0.69485  0.22042  0.46067  1.0000
  C   C269      1.0  0.73231  0.25082  0.47952  1.0000
  C   C270      1.0  0.74336  0.27369  0.49169  1.0000
  H   H177      1.0  0.74325  0.24600  0.47051  1.0000
  H   H178      1.0  0.72388  0.24379  0.54022  1.0000
  H   H179      1.0  0.75445  0.27755  0.54439  1.0000
  H   H180      1.0  0.73286  0.27837  0.51326  1.0000
