data_image0
_chemical_formula_structural       C30H17NHNHNHC30H17NHNHNHCNC2HNCHCH2CNC2HNCHCH2CNC2HNCHCH10C4HC2N2HCH2C4HC2N2HCH2C4HC2N2HCH2
_chemical_formula_sum              "C96 H72 N18"
_cell_length_a       52.0947
_cell_length_b       52.0947
_cell_length_c       15.0091
_cell_angle_alpha    90
_cell_angle_beta     90
_cell_angle_gamma    120

_space_group_name_H-M_alt    "P 1"
_space_group_IT_number       1

loop_
  _space_group_symop_operation_xyz
  'x, y, z'

loop_
  _atom_site_type_symbol
  _atom_site_label
  _atom_site_symmetry_multiplicity
  _atom_site_fract_x
  _atom_site_fract_y
  _atom_site_fract_z
  _atom_site_occupancy
  C   C1        1.0  0.15916  0.58173  0.32032  1.0000
  C   C2        1.0  0.17617  0.61071  0.35496  1.0000
  C   C3        1.0  0.20685  0.62315  0.36849  1.0000
  C   C4        1.0  0.22101  0.60678  0.34763  1.0000
  C   C5        1.0  0.20390  0.57767  0.31407  1.0000
  C   C6        1.0  0.17327  0.56538  0.29987  1.0000
  C   C7        1.0  0.25127  0.61898  0.35820  1.0000
  C   C8        1.0  0.27100  0.64138  0.30708  1.0000
  C   C9        1.0  0.30150  0.65346  0.31323  1.0000
  C   C10       1.0  0.31465  0.63539  0.31250  1.0000
  C   C11       1.0  0.34578  0.64789  0.31310  1.0000
  C   C12       1.0  0.36385  0.67912  0.31242  1.0000
  C   C13       1.0  0.35135  0.69774  0.31311  1.0000
  C   C14       1.0  0.32013  0.68459  0.31252  1.0000
  C   C15       1.0  0.36976  0.72824  0.30694  1.0000
  C   C16       1.0  0.36711  0.74798  0.35809  1.0000
  C   C17       1.0  0.38517  0.77823  0.34755  1.0000
  C   C18       1.0  0.37318  0.79535  0.31394  1.0000
  C   C19       1.0  0.41570  0.79239  0.36843  1.0000
  C   C20       1.0  0.43393  0.82307  0.35496  1.0000
  C   C21       1.0  0.42198  0.84009  0.32029  1.0000
  C   C22       1.0  0.39152  0.82598  0.29982  1.0000
  C   C23       1.0  0.35787  0.62948  0.30694  1.0000
  C   C24       1.0  0.38027  0.63214  0.35806  1.0000
  C   C25       1.0  0.39246  0.61408  0.34753  1.0000
  C   C26       1.0  0.37608  0.58355  0.36843  1.0000
  C   C27       1.0  0.42156  0.62606  0.31389  1.0000
  C   C28       1.0  0.43385  0.60772  0.29977  1.0000
  C   C29       1.0  0.41750  0.57726  0.32026  1.0000
  C   C30       1.0  0.38853  0.56531  0.35494  1.0000
  H   H1        1.0  0.16634  0.62299  0.36918  1.0000
  H   H2        1.0  0.21877  0.64430  0.39280  1.0000
  H   H3        1.0  0.31081  0.69788  0.30971  1.0000
  H   H4        1.0  0.30137  0.61279  0.30971  1.0000
  H   H5        1.0  0.38645  0.68843  0.30958  1.0000
  H   H6        1.0  0.35494  0.57433  0.39277  1.0000
  H   H7        1.0  0.35116  0.78560  0.29786  1.0000
  H   H8        1.0  0.45606  0.83290  0.36915  1.0000
  H   H9        1.0  0.42492  0.78046  0.39275  1.0000
  H   H10       1.0  0.37623  0.54319  0.36917  1.0000
  H   H11       1.0  0.43384  0.64808  0.29781  1.0000
  H   H12       1.0  0.35092  0.74101  0.40292  1.0000
  H   H13       1.0  0.38599  0.73568  0.26194  1.0000
  H   H14       1.0  0.25822  0.60972  0.40293  1.0000
  H   H15       1.0  0.26356  0.65018  0.26213  1.0000
  H   H16       1.0  0.38951  0.64835  0.40286  1.0000
  H   H17       1.0  0.34907  0.61324  0.26197  1.0000
  N   N1        1.0  0.43960  0.87076  0.30291  1.0000
  H   H18       1.0  0.45695  0.87416  0.26247  1.0000
  N   N2        1.0  0.12848  0.56867  0.30291  1.0000
  H   H19       1.0  0.12509  0.58262  0.26245  1.0000
  N   N3        1.0  0.43055  0.55964  0.30289  1.0000
  H   H20       1.0  0.41660  0.54229  0.26246  1.0000
  C   C31       1.0  0.83990  0.41731  0.34504  1.0000
  C   C32       1.0  0.82286  0.38840  0.30990  1.0000
  C   C33       1.0  0.79222  0.37606  0.29597  1.0000
  C   C34       1.0  0.77811  0.39249  0.31684  1.0000
  C   C35       1.0  0.79525  0.42155  0.35078  1.0000
  C   C36       1.0  0.82584  0.43372  0.36541  1.0000
  C   C37       1.0  0.74787  0.38036  0.30612  1.0000
  C   C38       1.0  0.72808  0.35794  0.35705  1.0000
  C   C39       1.0  0.69758  0.34589  0.35073  1.0000
  C   C40       1.0  0.68447  0.36400  0.35144  1.0000
  C   C41       1.0  0.65335  0.35154  0.35076  1.0000
  C   C42       1.0  0.63524  0.32032  0.35143  1.0000
  C   C43       1.0  0.64770  0.30166  0.35075  1.0000
  C   C44       1.0  0.67892  0.31477  0.35141  1.0000
  C   C45       1.0  0.62926  0.27116  0.35709  1.0000
  C   C46       1.0  0.63188  0.25137  0.30613  1.0000
  C   C47       1.0  0.61376  0.22113  0.31685  1.0000
  C   C48       1.0  0.62568  0.20399  0.35079  1.0000
  C   C49       1.0  0.58323  0.20702  0.29600  1.0000
  C   C50       1.0  0.56492  0.17638  0.30992  1.0000
  C   C51       1.0  0.57680  0.15934  0.34505  1.0000
  C   C52       1.0  0.60726  0.17340  0.36542  1.0000
  C   C53       1.0  0.64130  0.36999  0.35710  1.0000
  C   C54       1.0  0.61888  0.36737  0.30615  1.0000
  C   C55       1.0  0.60675  0.38548  0.31689  1.0000
  C   C56       1.0  0.62318  0.41601  0.29603  1.0000
  C   C57       1.0  0.57771  0.37356  0.35089  1.0000
  C   C58       1.0  0.56553  0.39198  0.36548  1.0000
  C   C59       1.0  0.58193  0.42244  0.34511  1.0000
  C   C60       1.0  0.61084  0.43432  0.30998  1.0000
  H   H21       1.0  0.83265  0.37605  0.29584  1.0000
  H   H22       1.0  0.78027  0.35494  0.27146  1.0000
  H   H23       1.0  0.68821  0.30146  0.35430  1.0000
  H   H24       1.0  0.69778  0.38659  0.35430  1.0000
  H   H25       1.0  0.61265  0.31103  0.35433  1.0000
  H   H26       1.0  0.64429  0.42518  0.27147  1.0000
  H   H27       1.0  0.64769  0.21371  0.36698  1.0000
  H   H28       1.0  0.54279  0.16659  0.29585  1.0000
  H   H29       1.0  0.57406  0.21897  0.27147  1.0000
  H   H30       1.0  0.62318  0.45645  0.29587  1.0000
  H   H31       1.0  0.56541  0.35155  0.36700  1.0000
  H   H32       1.0  0.64806  0.25827  0.26131  1.0000
  H   H33       1.0  0.61303  0.26378  0.40207  1.0000
  H   H34       1.0  0.74097  0.38965  0.26131  1.0000
  H   H35       1.0  0.73546  0.34909  0.40203  1.0000
  H   H36       1.0  0.60960  0.35118  0.26132  1.0000
  H   H37       1.0  0.65014  0.38621  0.40209  1.0000
  N   N4        1.0  0.55908  0.12873  0.36319  1.0000
  H   H38       1.0  0.54180  0.12554  0.40365  1.0000
  N   N5        1.0  0.87051  0.43020  0.36318  1.0000
  H   H39       1.0  0.87370  0.41611  0.40363  1.0000
  N   N6        1.0  0.56904  0.44016  0.36323  1.0000
  H   H40       1.0  0.58312  0.45744  0.40368  1.0000
  C   C61       1.0  0.46712  0.53219  0.28017  1.0000
  N   N7        1.0  0.48370  0.51899  0.26893  1.0000
  C   C62       1.0  0.50861  0.49353  0.32455  1.0000
  C   C63       1.0  0.54291  0.46592  0.30168  1.0000
  H   H41       1.0  0.46244  0.54060  0.22512  1.0000
  N   N8        1.0  0.51838  0.49112  0.24280  1.0000
  C   C64       1.0  0.53490  0.47796  0.22949  1.0000
  H   H42       1.0  0.54144  0.47696  0.16599  1.0000
  C   C65       1.0  0.56098  0.45159  0.28355  1.0000
  H   H43       1.0  0.58127  0.46764  0.24921  1.0000
  H   H44       1.0  0.54818  0.43309  0.23799  1.0000
  C   C66       1.0  0.46705  0.93478  0.28017  1.0000
  N   N9        1.0  0.48025  0.96456  0.26893  1.0000
  C   C67       1.0  0.50571  0.01494  0.32454  1.0000
  C   C68       1.0  0.53331  0.07684  0.30166  1.0000
  H   H45       1.0  0.45864  0.92169  0.22513  1.0000
  N   N10       1.0  0.50812  0.02711  0.24279  1.0000
  C   C69       1.0  0.52128  0.05679  0.22948  1.0000
  H   H46       1.0  0.52228  0.06433  0.16597  1.0000
  C   C70       1.0  0.54764  0.10924  0.28352  1.0000
  H   H47       1.0  0.53159  0.11348  0.24918  1.0000
  H   H48       1.0  0.56614  0.11493  0.23795  1.0000
  C   C71       1.0  0.06446  0.53211  0.28017  1.0000
  N   N11       1.0  0.03468  0.51553  0.26892  1.0000
  C   C72       1.0  0.98430  0.49062  0.32453  1.0000
  C   C73       1.0  0.92240  0.45632  0.30165  1.0000
  H   H49       1.0  0.07755  0.53679  0.22512  1.0000
  N   N12       1.0  0.97214  0.48086  0.24278  1.0000
  C   C74       1.0  0.94245  0.46433  0.22947  1.0000
  H   H50       1.0  0.93491  0.45779  0.16596  1.0000
  C   C75       1.0  0.89000  0.43825  0.28351  1.0000
  H   H51       1.0  0.88576  0.41796  0.24917  1.0000
  H   H52       1.0  0.88431  0.45106  0.23794  1.0000
  H   H53       1.0  0.16128  0.54443  0.27433  1.0000
  H   H54       1.0  0.21365  0.56541  0.29794  1.0000
  H   H55       1.0  0.38256  0.83797  0.27428  1.0000
  H   H56       1.0  0.45480  0.61668  0.27423  1.0000
  H   H57       1.0  0.83784  0.45461  0.39133  1.0000
  H   H58       1.0  0.78553  0.43383  0.36697  1.0000
  H   H59       1.0  0.61616  0.16140  0.39134  1.0000
  H   H60       1.0  0.54463  0.38308  0.39137  1.0000
  C   C76       1.0  0.45683  0.53422  0.36580  1.0000
  C   C77       1.0  0.49145  0.50723  0.33742  1.0000
  C   C78       1.0  0.48205  0.50875  0.42486  1.0000
  C   C79       1.0  0.46481  0.52229  0.43836  1.0000
  H   H61       1.0  0.45798  0.52336  0.50153  1.0000
  C   C80       1.0  0.53283  0.46802  0.38760  1.0000
  C   C81       1.0  0.51577  0.48183  0.39960  1.0000
  N   N13       1.0  0.50590  0.48427  0.48121  1.0000
  N   N14       1.0  0.48994  0.49701  0.49317  1.0000
  H   H62       1.0  0.53769  0.45945  0.44206  1.0000
  C   C82       1.0  0.43855  0.54838  0.38309  1.0000
  H   H63       1.0  0.45118  0.56694  0.42862  1.0000
  H   H64       1.0  0.41824  0.53227  0.41717  1.0000
  C   C83       1.0  0.46503  0.92246  0.36580  1.0000
  C   C84       1.0  0.49201  0.98407  0.33742  1.0000
  C   C85       1.0  0.49049  0.97315  0.42486  1.0000
  C   C86       1.0  0.47695  0.94237  0.43837  1.0000
  H   H65       1.0  0.47588  0.93447  0.50153  1.0000
  C   C87       1.0  0.53122  0.06467  0.38758  1.0000
  C   C88       1.0  0.51741  0.03380  0.39959  1.0000
  N   N15       1.0  0.51497  0.02148  0.48119  1.0000
  N   N16       1.0  0.50223  0.99279  0.49317  1.0000
  H   H66       1.0  0.53979  0.07809  0.44204  1.0000
  C   C89       1.0  0.45086  0.89002  0.38310  1.0000
  H   H67       1.0  0.43231  0.88409  0.42864  1.0000
  H   H68       1.0  0.46698  0.88582  0.41718  1.0000
  C   C90       1.0  0.07678  0.54241  0.36580  1.0000
  C   C91       1.0  0.01517  0.50778  0.33741  1.0000
  C   C92       1.0  0.02609  0.51718  0.42485  1.0000
  C   C93       1.0  0.05687  0.53443  0.43836  1.0000
  H   H69       1.0  0.06477  0.54125  0.50153  1.0000
  C   C94       1.0  0.93457  0.46640  0.38757  1.0000
  C   C95       1.0  0.96544  0.48346  0.39958  1.0000
  N   N17       1.0  0.97776  0.49334  0.48118  1.0000
  N   N18       1.0  0.00645  0.50929  0.49315  1.0000
  H   H70       1.0  0.92115  0.46155  0.44202  1.0000
  C   C96       1.0  0.10921  0.56067  0.38310  1.0000
  H   H71       1.0  0.11514  0.54805  0.42865  1.0000
  H   H72       1.0  0.11342  0.58100  0.41716  1.0000
