data_image0
_chemical_formula_structural       C2HC2H3N2CNCNO2CHCNCNO2CHC4NC4NH4N3C2HCHNC2HCHC2HC2H3N2CNCNO2CHCNCNO2CHC4NC4NH4N3C2HCHNC2HCHC2HC2H3N2CNCNO2CHCNCNO2CHC4NC4NH4N3C2HCHNC2HCHC2HC2H3N2CNCNO2CHCNCNO2CHC4NC4NH4N3C2HCHNC2HCH
_chemical_formula_sum              "C96 H56 N48 O16"
_cell_length_a       31.2112
_cell_length_b       31.2112
_cell_length_c       14.884
_cell_angle_alpha    90
_cell_angle_beta     90
_cell_angle_gamma    90

_space_group_name_H-M_alt    "P 1"
_space_group_IT_number       1

loop_
  _space_group_symop_operation_xyz
  'x, y, z'

loop_
  _atom_site_type_symbol
  _atom_site_label
  _atom_site_symmetry_multiplicity
  _atom_site_fract_x
  _atom_site_fract_y
  _atom_site_fract_z
  _atom_site_occupancy
  C   C1        1.0  0.49233  0.44740  0.32333  1.0000
  C   C2        1.0  0.46081  0.41478  0.32374  1.0000
  H   H1        1.0  0.02310  0.43713  0.32110  1.0000
  C   C3        1.0  0.03782  0.10225  0.32629  1.0000
  C   C4        1.0  0.00622  0.06973  0.32642  1.0000
  H   H2        1.0  0.47544  0.08007  0.32582  1.0000
  H   H3        1.0  0.10603  0.15243  0.32679  1.0000
  H   H4        1.0  0.39267  0.36455  0.32475  1.0000
  N   N1        1.0  0.02766  0.14456  0.32586  1.0000
  N   N2        1.0  0.47106  0.37248  0.32237  1.0000
  C   C5        1.0  0.50450  0.30342  0.32019  1.0000
  N   N3        1.0  0.03447  0.23309  0.31790  1.0000
  C   C6        1.0  0.54087  0.27631  0.31506  1.0000
  N   N4        1.0  0.58262  0.29301  0.30605  1.0000
  O   O1        1.0  0.10577  0.28086  0.37015  1.0000
  O   O2        1.0  0.59928  0.28003  0.23422  1.0000
  C   C7        1.0  0.50703  0.34847  0.31890  1.0000
  H   H5        1.0  0.53618  0.36325  0.31513  1.0000
  C   C8        1.0  0.20440  0.50327  0.32408  1.0000
  N   N5        1.0  0.27473  0.97330  0.32176  1.0000
  C   C9        1.0  0.23151  0.46691  0.31901  1.0000
  N   N6        1.0  0.21481  0.42516  0.30994  1.0000
  O   O3        1.0  0.22696  0.90199  0.37402  1.0000
  O   O4        1.0  0.22777  0.40851  0.23810  1.0000
  C   C10       1.0  0.15935  0.50076  0.32255  1.0000
  H   H6        1.0  0.14457  0.47162  0.31868  1.0000
  C   C11       1.0  0.48284  0.49213  0.32591  1.0000
  C   C12       1.0  0.41675  0.42593  0.32591  1.0000
  C   C13       1.0  0.40557  0.46999  0.32781  1.0000
  C   C14       1.0  0.43810  0.50159  0.32831  1.0000
  N   N7        1.0  0.38576  0.39490  0.32605  1.0000
  C   C15       1.0  0.01568  0.02497  0.32594  1.0000
  C   C16       1.0  0.06043  0.01548  0.32539  1.0000
  C   C17       1.0  0.09304  0.04700  0.32546  1.0000
  C   C18       1.0  0.08189  0.09107  0.32603  1.0000
  N   N8        1.0  0.11291  0.12207  0.32623  1.0000
  H   H7        1.0  0.14326  0.11515  0.32612  1.0000
  H   H8        1.0  0.35540  0.40177  0.32773  1.0000
  H   H9        1.0  0.42777  0.03235  0.33038  1.0000
  H   H10       1.0  0.07071  0.48470  0.32582  1.0000
  N   N9        1.0  0.13535  0.03675  0.32505  1.0000
  N   N10       1.0  0.36327  0.48014  0.32838  1.0000
  N   N11       1.0  0.46544  0.28416  0.32703  1.0000
  C   C19       1.0  0.95946  0.24110  0.32940  1.0000
  C   C20       1.0  0.99546  0.21391  0.32510  1.0000
  H   H11       1.0  0.92907  0.22917  0.33480  1.0000
  C   C21       1.0  0.99197  0.16901  0.32748  1.0000
  H   H12       1.0  0.96248  0.15488  0.33154  1.0000
  N   N12       1.0  0.22366  0.54234  0.33091  1.0000
  C   C22       1.0  0.26672  0.04831  0.33336  1.0000
  C   C23       1.0  0.29391  0.01231  0.32896  1.0000
  H   H13       1.0  0.27866  0.07870  0.33866  1.0000
  C   C24       1.0  0.33881  0.01581  0.33106  1.0000
  H   H14       1.0  0.35294  0.04530  0.33500  1.0000
  C   C25       1.0  0.49233  0.94740  0.32333  1.0000
  C   C26       1.0  0.46081  0.91478  0.32374  1.0000
  H   H15       1.0  0.02310  0.93713  0.32110  1.0000
  C   C27       1.0  0.03782  0.60226  0.32629  1.0000
  C   C28       1.0  0.00622  0.56973  0.32642  1.0000
  H   H16       1.0  0.47544  0.58007  0.32582  1.0000
  H   H17       1.0  0.10603  0.65243  0.32679  1.0000
  H   H18       1.0  0.39267  0.86455  0.32475  1.0000
  N   N13       1.0  0.02766  0.64456  0.32586  1.0000
  N   N14       1.0  0.47106  0.87248  0.32237  1.0000
  C   C29       1.0  0.50450  0.80342  0.32019  1.0000
  N   N15       1.0  0.03447  0.73309  0.31790  1.0000
  C   C30       1.0  0.54087  0.77631  0.31506  1.0000
  N   N16       1.0  0.58262  0.79301  0.30605  1.0000
  O   O5        1.0  0.10577  0.78086  0.37015  1.0000
  O   O6        1.0  0.59928  0.78003  0.23422  1.0000
  C   C31       1.0  0.50703  0.84847  0.31890  1.0000
  H   H19       1.0  0.53618  0.86325  0.31513  1.0000
  C   C32       1.0  0.20440  0.00327  0.32408  1.0000
  N   N17       1.0  0.27473  0.47330  0.32176  1.0000
  C   C33       1.0  0.23151  0.96691  0.31901  1.0000
  N   N18       1.0  0.21481  0.92516  0.30994  1.0000
  O   O7        1.0  0.22696  0.40199  0.37402  1.0000
  O   O8        1.0  0.22777  0.90851  0.23810  1.0000
  C   C34       1.0  0.15935  0.00076  0.32255  1.0000
  H   H20       1.0  0.14457  0.97162  0.31868  1.0000
  C   C35       1.0  0.48284  0.99213  0.32591  1.0000
  C   C36       1.0  0.41675  0.92593  0.32591  1.0000
  C   C37       1.0  0.40557  0.96999  0.32781  1.0000
  C   C38       1.0  0.43810  0.00159  0.32831  1.0000
  N   N19       1.0  0.38576  0.89490  0.32605  1.0000
  C   C39       1.0  0.01568  0.52497  0.32594  1.0000
  C   C40       1.0  0.06043  0.51548  0.32539  1.0000
  C   C41       1.0  0.09304  0.54700  0.32546  1.0000
  C   C42       1.0  0.08189  0.59107  0.32603  1.0000
  N   N20       1.0  0.11291  0.62207  0.32623  1.0000
  H   H21       1.0  0.14326  0.61515  0.32612  1.0000
  H   H22       1.0  0.35540  0.90177  0.32773  1.0000
  H   H23       1.0  0.42777  0.53235  0.33038  1.0000
  H   H24       1.0  0.07071  0.98470  0.32582  1.0000
  N   N21       1.0  0.13535  0.53675  0.32505  1.0000
  N   N22       1.0  0.36327  0.98014  0.32838  1.0000
  N   N23       1.0  0.46544  0.78416  0.32703  1.0000
  C   C43       1.0  0.95946  0.74110  0.32940  1.0000
  C   C44       1.0  0.99546  0.71391  0.32510  1.0000
  H   H25       1.0  0.92907  0.72917  0.33480  1.0000
  C   C45       1.0  0.99197  0.66901  0.32748  1.0000
  H   H26       1.0  0.96248  0.65489  0.33154  1.0000
  N   N24       1.0  0.22366  0.04233  0.33091  1.0000
  C   C46       1.0  0.26672  0.54831  0.33336  1.0000
  C   C47       1.0  0.29391  0.51231  0.32896  1.0000
  H   H27       1.0  0.27866  0.57870  0.33866  1.0000
  C   C48       1.0  0.33881  0.51581  0.33106  1.0000
  H   H28       1.0  0.35294  0.54530  0.33500  1.0000
  C   C49       1.0  0.99233  0.44740  0.32333  1.0000
  C   C50       1.0  0.96081  0.41478  0.32374  1.0000
  H   H29       1.0  0.52310  0.43713  0.32110  1.0000
  C   C51       1.0  0.53782  0.10225  0.32629  1.0000
  C   C52       1.0  0.50621  0.06973  0.32642  1.0000
  H   H30       1.0  0.97544  0.08007  0.32582  1.0000
  H   H31       1.0  0.60603  0.15243  0.32679  1.0000
  H   H32       1.0  0.89267  0.36455  0.32475  1.0000
  N   N25       1.0  0.52766  0.14456  0.32586  1.0000
  N   N26       1.0  0.97106  0.37248  0.32237  1.0000
  C   C53       1.0  0.00450  0.30342  0.32019  1.0000
  N   N27       1.0  0.53447  0.23309  0.31790  1.0000
  C   C54       1.0  0.04086  0.27631  0.31506  1.0000
  N   N28       1.0  0.08262  0.29301  0.30605  1.0000
  O   O9        1.0  0.60577  0.28086  0.37015  1.0000
  O   O10       1.0  0.09928  0.28003  0.23422  1.0000
  C   C55       1.0  0.00703  0.34847  0.31890  1.0000
  H   H33       1.0  0.03617  0.36325  0.31513  1.0000
  C   C56       1.0  0.70440  0.50327  0.32408  1.0000
  N   N29       1.0  0.77473  0.97330  0.32176  1.0000
  C   C57       1.0  0.73151  0.46691  0.31901  1.0000
  N   N30       1.0  0.71481  0.42516  0.30994  1.0000
  O   O11       1.0  0.72696  0.90199  0.37402  1.0000
  O   O12       1.0  0.72777  0.40851  0.23810  1.0000
  C   C58       1.0  0.65935  0.50076  0.32255  1.0000
  H   H34       1.0  0.64457  0.47162  0.31868  1.0000
  C   C59       1.0  0.98285  0.49213  0.32591  1.0000
  C   C60       1.0  0.91675  0.42593  0.32591  1.0000
  C   C61       1.0  0.90557  0.46999  0.32781  1.0000
  C   C62       1.0  0.93810  0.50159  0.32831  1.0000
  N   N31       1.0  0.88576  0.39490  0.32605  1.0000
  C   C63       1.0  0.51568  0.02497  0.32594  1.0000
  C   C64       1.0  0.56043  0.01548  0.32539  1.0000
  C   C65       1.0  0.59304  0.04700  0.32546  1.0000
  C   C66       1.0  0.58189  0.09107  0.32603  1.0000
  N   N32       1.0  0.61291  0.12207  0.32623  1.0000
  H   H35       1.0  0.64326  0.11515  0.32612  1.0000
  H   H36       1.0  0.85541  0.40177  0.32773  1.0000
  H   H37       1.0  0.92777  0.03235  0.33038  1.0000
  H   H38       1.0  0.57071  0.48470  0.32582  1.0000
  N   N33       1.0  0.63535  0.03675  0.32505  1.0000
  N   N34       1.0  0.86327  0.48014  0.32838  1.0000
  N   N35       1.0  0.96544  0.28416  0.32703  1.0000
  C   C67       1.0  0.45946  0.24110  0.32940  1.0000
  C   C68       1.0  0.49546  0.21391  0.32510  1.0000
  H   H39       1.0  0.42907  0.22917  0.33480  1.0000
  C   C69       1.0  0.49197  0.16901  0.32748  1.0000
  H   H40       1.0  0.46248  0.15488  0.33154  1.0000
  N   N36       1.0  0.72366  0.54234  0.33091  1.0000
  C   C70       1.0  0.76672  0.04831  0.33336  1.0000
  C   C71       1.0  0.79391  0.01231  0.32896  1.0000
  H   H41       1.0  0.77866  0.07870  0.33866  1.0000
  C   C72       1.0  0.83881  0.01581  0.33106  1.0000
  H   H42       1.0  0.85294  0.04530  0.33500  1.0000
  C   C73       1.0  0.99233  0.94740  0.32333  1.0000
  C   C74       1.0  0.96081  0.91478  0.32374  1.0000
  H   H43       1.0  0.52310  0.93713  0.32110  1.0000
  C   C75       1.0  0.53782  0.60226  0.32629  1.0000
  C   C76       1.0  0.50621  0.56973  0.32642  1.0000
  H   H44       1.0  0.97544  0.58007  0.32582  1.0000
  H   H45       1.0  0.60603  0.65243  0.32679  1.0000
  H   H46       1.0  0.89267  0.86455  0.32475  1.0000
  N   N37       1.0  0.52766  0.64456  0.32586  1.0000
  N   N38       1.0  0.97106  0.87248  0.32237  1.0000
  C   C77       1.0  0.00450  0.80342  0.32019  1.0000
  N   N39       1.0  0.53447  0.73309  0.31790  1.0000
  C   C78       1.0  0.04086  0.77631  0.31506  1.0000
  N   N40       1.0  0.08262  0.79301  0.30605  1.0000
  O   O13       1.0  0.60577  0.78086  0.37015  1.0000
  O   O14       1.0  0.09928  0.78003  0.23422  1.0000
  C   C79       1.0  0.00703  0.84847  0.31890  1.0000
  H   H47       1.0  0.03617  0.86325  0.31513  1.0000
  C   C80       1.0  0.70440  0.00327  0.32408  1.0000
  N   N41       1.0  0.77473  0.47330  0.32176  1.0000
  C   C81       1.0  0.73151  0.96691  0.31901  1.0000
  N   N42       1.0  0.71481  0.92516  0.30994  1.0000
  O   O15       1.0  0.72696  0.40199  0.37402  1.0000
  O   O16       1.0  0.72777  0.90851  0.23810  1.0000
  C   C82       1.0  0.65935  0.00076  0.32255  1.0000
  H   H48       1.0  0.64457  0.97162  0.31868  1.0000
  C   C83       1.0  0.98285  0.99213  0.32591  1.0000
  C   C84       1.0  0.91675  0.92593  0.32591  1.0000
  C   C85       1.0  0.90557  0.96999  0.32781  1.0000
  C   C86       1.0  0.93810  0.00159  0.32831  1.0000
  N   N43       1.0  0.88576  0.89490  0.32605  1.0000
  C   C87       1.0  0.51568  0.52497  0.32594  1.0000
  C   C88       1.0  0.56043  0.51548  0.32539  1.0000
  C   C89       1.0  0.59304  0.54700  0.32546  1.0000
  C   C90       1.0  0.58189  0.59107  0.32603  1.0000
  N   N44       1.0  0.61291  0.62207  0.32623  1.0000
  H   H49       1.0  0.64326  0.61515  0.32612  1.0000
  H   H50       1.0  0.85541  0.90177  0.32773  1.0000
  H   H51       1.0  0.92777  0.53235  0.33038  1.0000
  H   H52       1.0  0.57071  0.98470  0.32582  1.0000
  N   N45       1.0  0.63535  0.53675  0.32505  1.0000
  N   N46       1.0  0.86327  0.98014  0.32838  1.0000
  N   N47       1.0  0.96544  0.78416  0.32703  1.0000
  C   C91       1.0  0.45946  0.74110  0.32940  1.0000
  C   C92       1.0  0.49546  0.71391  0.32510  1.0000
  H   H53       1.0  0.42907  0.72917  0.33480  1.0000
  C   C93       1.0  0.49197  0.66901  0.32748  1.0000
  H   H54       1.0  0.46248  0.65489  0.33154  1.0000
  N   N48       1.0  0.72366  0.04233  0.33091  1.0000
  C   C94       1.0  0.76672  0.54831  0.33336  1.0000
  C   C95       1.0  0.79391  0.51231  0.32896  1.0000
  H   H55       1.0  0.77866  0.57870  0.33866  1.0000
  C   C96       1.0  0.83881  0.51581  0.33106  1.0000
  H   H56       1.0  0.85294  0.54530  0.33500  1.0000
