data_image0
_chemical_formula_structural       SiC12H8C5NC2NHNCH3NHNC2NHNCH4C12H7CHCO4C3H3NHC6H2NHNHSiC12H8C5NC2NHNCH3NHNC2NHNCH4C12H7CHCO4C3H3NHC6H2NHNHSiC12H8C5NC2NHNCH3NHNC2NHNCH4C12H7CHCO4C3H3NHC6H2NHNHSiC12H8C5NC2NHNCH3NHNC2NHNCH4C12H7CHCO4C3H3NHC6H2NHNH
_chemical_formula_sum              "Si4 C184 H136 N40 O16"
_cell_length_a       29.4496
_cell_length_b       29.4477
_cell_length_c       15.0254
_cell_angle_alpha    90
_cell_angle_beta     90
_cell_angle_gamma    90.238

_space_group_name_H-M_alt    "P 1"
_space_group_IT_number       1

loop_
  _space_group_symop_operation_xyz
  'x, y, z'

loop_
  _atom_site_type_symbol
  _atom_site_label
  _atom_site_symmetry_multiplicity
  _atom_site_fract_x
  _atom_site_fract_y
  _atom_site_fract_z
  _atom_site_occupancy
  Si  Si1       1.0  0.49337  0.49795  0.04599  1.0000
  C   C1        1.0  0.48515  0.45878  0.12410  1.0000
  C   C2        1.0  0.00266  0.04368  0.10850  1.0000
  C   C3        1.0  0.46574  0.06599  0.14945  1.0000
  C   C4        1.0  0.47296  0.09832  0.21683  1.0000
  C   C5        1.0  0.01719  0.10850  0.24836  1.0000
  C   C6        1.0  0.05408  0.08645  0.20670  1.0000
  C   C7        1.0  0.04697  0.05445  0.13872  1.0000
  C   C8        1.0  0.02208  0.44594  0.17877  1.0000
  C   C9        1.0  0.01537  0.42044  0.25665  1.0000
  C   C10       1.0  0.47149  0.40604  0.28335  1.0000
  C   C11       1.0  0.43455  0.41952  0.22889  1.0000
  C   C12       1.0  0.44105  0.44596  0.15188  1.0000
  H   H1        1.0  0.44503  0.11386  0.24287  1.0000
  H   H2        1.0  0.43290  0.05820  0.13267  1.0000
  H   H3        1.0  0.08670  0.09243  0.22726  1.0000
  H   H4        1.0  0.07477  0.03793  0.11440  1.0000
  H   H5        1.0  0.05456  0.45608  0.16434  1.0000
  H   H6        1.0  0.04340  0.41348  0.29404  1.0000
  H   H7        1.0  0.40196  0.41061  0.24494  1.0000
  H   H8        1.0  0.41285  0.45652  0.11805  1.0000
  C   C13       1.0  0.02552  0.14242  0.31431  1.0000
  C   C14       1.0  0.46422  0.37605  0.35743  1.0000
  C   C15       1.0  0.47335  0.27805  0.30988  1.0000
  C   C16       1.0  0.47158  0.23001  0.30744  1.0000
  C   C17       1.0  0.48832  0.20429  0.37977  1.0000
  N   N1        1.0  0.45625  0.20959  0.23181  1.0000
  C   C18       1.0  0.44283  0.23269  0.15848  1.0000
  C   C19       1.0  0.44602  0.28029  0.15892  1.0000
  N   N2        1.0  0.46105  0.30065  0.23462  1.0000
  H   H9        1.0  0.43202  0.21542  0.10340  1.0000
  N   N3        1.0  0.43414  0.30554  0.08281  1.0000
  C   C20       1.0  0.47300  0.32913  0.04053  1.0000
  H   H10       1.0  0.41000  0.32892  0.10039  1.0000
  H   H11       1.0  0.49888  0.30469  0.02066  1.0000
  H   H12       1.0  0.98828  0.35407  0.08538  1.0000
  N   N4        1.0  0.49321  0.15850  0.37113  1.0000
  H   H13       1.0  0.46505  0.14146  0.37752  1.0000
  N   N5        1.0  0.28976  0.46692  0.23336  1.0000
  C   C21       1.0  0.25653  0.45264  0.17759  1.0000
  C   C22       1.0  0.21117  0.45459  0.20664  1.0000
  N   N6        1.0  0.20328  0.46877  0.29135  1.0000
  H   H14       1.0  0.26450  0.44283  0.11429  1.0000
  N   N7        1.0  0.17500  0.44505  0.14778  1.0000
  C   C23       1.0  0.16508  0.48411  0.08888  1.0000
  H   H15       1.0  0.14623  0.43773  0.18378  1.0000
  H   H16       1.0  0.19328  0.49028  0.04316  1.0000
  H   H17       1.0  0.15857  0.01503  0.12698  1.0000
  H   H18       1.0  0.13509  0.47652  0.04932  1.0000
  C   C24       1.0  0.10962  0.47271  0.52174  1.0000
  C   C25       1.0  0.08957  0.43608  0.56880  1.0000
  C   C26       1.0  0.05355  0.44333  0.62890  1.0000
  C   C27       1.0  0.03677  0.48759  0.64469  1.0000
  C   C28       1.0  0.05419  0.02338  0.59165  1.0000
  C   C29       1.0  0.08954  0.01599  0.53097  1.0000
  C   C30       1.0  0.45128  0.00390  0.63979  1.0000
  C   C31       1.0  0.44512  0.04651  0.59762  1.0000
  C   C32       1.0  0.42633  0.04928  0.51193  1.0000
  C   C33       1.0  0.41151  0.00973  0.46766  1.0000
  C   C34       1.0  0.41378  0.46759  0.51176  1.0000
  C   C35       1.0  0.43436  0.46462  0.59604  1.0000
  H   H19       1.0  0.44057  0.43282  0.62061  1.0000
  H   H20       1.0  0.40506  0.43834  0.47925  1.0000
  H   H21       1.0  0.42614  0.08001  0.48006  1.0000
  H   H22       1.0  0.45903  0.07560  0.62328  1.0000
  H   H23       1.0  0.04226  0.05585  0.59757  1.0000
  H   H24       1.0  0.04065  0.41590  0.66228  1.0000
  H   H25       1.0  0.10261  0.40403  0.56371  1.0000
  C   C36       1.0  0.40188  0.01183  0.37614  1.0000
  H   H26       1.0  0.10115  0.04322  0.49520  1.0000
  C   C37       1.0  0.15049  0.46720  0.47162  1.0000
  O   O1        1.0  0.42079  0.36432  0.37731  1.0000
  O   O2        1.0  0.06456  0.16673  0.30626  1.0000
  O   O3        1.0  0.43913  0.01663  0.32426  1.0000
  O   O4        1.0  0.16131  0.42502  0.44277  1.0000
  C   C38       1.0  0.98985  0.30094  0.38659  1.0000
  C   C39       1.0  0.00567  0.22700  0.45514  1.0000
  C   C40       1.0  0.00648  0.27478  0.45830  1.0000
  H   H27       1.0  0.02071  0.29054  0.51226  1.0000
  H   H28       1.0  0.01951  0.20886  0.50642  1.0000
  H   H29       1.0  0.46130  0.34666  0.64752  1.0000
  N   N8        1.0  0.99689  0.34697  0.38712  1.0000
  H   H30       1.0  0.02857  0.35498  0.37877  1.0000
  C   C41       1.0  0.22603  0.99702  0.43580  1.0000
  C   C42       1.0  0.23652  0.48143  0.34916  1.0000
  C   C43       1.0  0.28216  0.48192  0.31779  1.0000
  C   C44       1.0  0.31812  0.49970  0.37077  1.0000
  C   C45       1.0  0.30635  0.01696  0.45560  1.0000
  C   C46       1.0  0.26170  0.01514  0.48771  1.0000
  H   H31       1.0  0.25502  0.02879  0.54900  1.0000
  H   H32       1.0  0.32942  0.03369  0.49402  1.0000
  N   N9        1.0  0.36129  0.50440  0.33523  1.0000
  H   H33       1.0  0.36328  0.50445  0.27048  1.0000
  N   N10       1.0  0.18265  0.00074  0.46817  1.0000
  H   H34       1.0  0.17693  0.02808  0.50296  1.0000
  Si  Si2       1.0  0.49337  0.99796  0.04599  1.0000
  C   C47       1.0  0.48515  0.95878  0.12410  1.0000
  C   C48       1.0  0.00266  0.54368  0.10850  1.0000
  C   C49       1.0  0.46574  0.56599  0.14945  1.0000
  C   C50       1.0  0.47296  0.59833  0.21683  1.0000
  C   C51       1.0  0.01719  0.60850  0.24836  1.0000
  C   C52       1.0  0.05408  0.58645  0.20670  1.0000
  C   C53       1.0  0.04697  0.55445  0.13872  1.0000
  C   C54       1.0  0.02208  0.94594  0.17877  1.0000
  C   C55       1.0  0.01537  0.92044  0.25665  1.0000
  C   C56       1.0  0.47149  0.90605  0.28335  1.0000
  C   C57       1.0  0.43455  0.91952  0.22889  1.0000
  C   C58       1.0  0.44105  0.94596  0.15188  1.0000
  H   H35       1.0  0.44503  0.61386  0.24287  1.0000
  H   H36       1.0  0.43290  0.55820  0.13267  1.0000
  H   H37       1.0  0.08670  0.59243  0.22726  1.0000
  H   H38       1.0  0.07477  0.53793  0.11440  1.0000
  H   H39       1.0  0.05456  0.95608  0.16434  1.0000
  H   H40       1.0  0.04340  0.91347  0.29404  1.0000
  H   H41       1.0  0.40196  0.91060  0.24494  1.0000
  H   H42       1.0  0.41285  0.95652  0.11805  1.0000
  C   C59       1.0  0.02552  0.64243  0.31431  1.0000
  C   C60       1.0  0.46422  0.87605  0.35743  1.0000
  C   C61       1.0  0.47335  0.77805  0.30988  1.0000
  C   C62       1.0  0.47157  0.73001  0.30744  1.0000
  C   C63       1.0  0.48832  0.70429  0.37977  1.0000
  N   N11       1.0  0.45625  0.70959  0.23181  1.0000
  C   C64       1.0  0.44283  0.73269  0.15848  1.0000
  C   C65       1.0  0.44602  0.78029  0.15892  1.0000
  N   N12       1.0  0.46105  0.80065  0.23462  1.0000
  H   H43       1.0  0.43202  0.71542  0.10340  1.0000
  N   N13       1.0  0.43414  0.80554  0.08281  1.0000
  C   C66       1.0  0.47300  0.82913  0.04053  1.0000
  H   H44       1.0  0.41000  0.82892  0.10039  1.0000
  H   H45       1.0  0.49888  0.80469  0.02066  1.0000
  H   H46       1.0  0.98828  0.85407  0.08538  1.0000
  N   N14       1.0  0.49321  0.65850  0.37113  1.0000
  H   H47       1.0  0.46505  0.64146  0.37752  1.0000
  N   N15       1.0  0.28976  0.96692  0.23336  1.0000
  C   C67       1.0  0.25653  0.95264  0.17759  1.0000
  C   C68       1.0  0.21117  0.95458  0.20664  1.0000
  N   N16       1.0  0.20328  0.96877  0.29135  1.0000
  H   H48       1.0  0.26450  0.94283  0.11429  1.0000
  N   N17       1.0  0.17500  0.94505  0.14778  1.0000
  C   C69       1.0  0.16508  0.98412  0.08888  1.0000
  H   H49       1.0  0.14623  0.93773  0.18378  1.0000
  H   H50       1.0  0.19328  0.99028  0.04316  1.0000
  H   H51       1.0  0.15857  0.51503  0.12698  1.0000
  H   H52       1.0  0.13509  0.97652  0.04932  1.0000
  C   C70       1.0  0.10962  0.97271  0.52174  1.0000
  C   C71       1.0  0.08957  0.93608  0.56880  1.0000
  C   C72       1.0  0.05355  0.94333  0.62890  1.0000
  C   C73       1.0  0.03677  0.98759  0.64469  1.0000
  C   C74       1.0  0.05419  0.52338  0.59165  1.0000
  C   C75       1.0  0.08954  0.51599  0.53097  1.0000
  C   C76       1.0  0.45128  0.50390  0.63979  1.0000
  C   C77       1.0  0.44512  0.54651  0.59762  1.0000
  C   C78       1.0  0.42633  0.54928  0.51193  1.0000
  C   C79       1.0  0.41151  0.50973  0.46766  1.0000
  C   C80       1.0  0.41378  0.96759  0.51176  1.0000
  C   C81       1.0  0.43437  0.96462  0.59604  1.0000
  H   H53       1.0  0.44057  0.93282  0.62061  1.0000
  H   H54       1.0  0.40505  0.93834  0.47925  1.0000
  H   H55       1.0  0.42614  0.58001  0.48006  1.0000
  H   H56       1.0  0.45903  0.57560  0.62328  1.0000
  H   H57       1.0  0.04226  0.55585  0.59757  1.0000
  H   H58       1.0  0.04065  0.91590  0.66228  1.0000
  H   H59       1.0  0.10261  0.90404  0.56371  1.0000
  C   C82       1.0  0.40188  0.51183  0.37614  1.0000
  H   H60       1.0  0.10115  0.54322  0.49520  1.0000
  C   C83       1.0  0.15049  0.96720  0.47162  1.0000
  O   O5        1.0  0.42078  0.86432  0.37731  1.0000
  O   O6        1.0  0.06456  0.66673  0.30626  1.0000
  O   O7        1.0  0.43913  0.51663  0.32426  1.0000
  O   O8        1.0  0.16131  0.92502  0.44277  1.0000
  C   C84       1.0  0.98985  0.80093  0.38659  1.0000
  C   C85       1.0  0.00567  0.72700  0.45514  1.0000
  C   C86       1.0  0.00647  0.77478  0.45830  1.0000
  H   H61       1.0  0.02071  0.79054  0.51226  1.0000
  H   H62       1.0  0.01951  0.70886  0.50642  1.0000
  H   H63       1.0  0.46130  0.84666  0.64752  1.0000
  N   N18       1.0  0.99689  0.84698  0.38712  1.0000
  H   H64       1.0  0.02857  0.85498  0.37877  1.0000
  C   C87       1.0  0.22603  0.49701  0.43580  1.0000
  C   C88       1.0  0.23652  0.98143  0.34916  1.0000
  C   C89       1.0  0.28216  0.98192  0.31779  1.0000
  C   C90       1.0  0.31812  0.99970  0.37077  1.0000
  C   C91       1.0  0.30635  0.51696  0.45560  1.0000
  C   C92       1.0  0.26170  0.51514  0.48771  1.0000
  H   H65       1.0  0.25502  0.52879  0.54900  1.0000
  H   H66       1.0  0.32942  0.53369  0.49402  1.0000
  N   N19       1.0  0.36130  0.00440  0.33523  1.0000
  H   H67       1.0  0.36328  0.00445  0.27048  1.0000
  N   N20       1.0  0.18265  0.50074  0.46817  1.0000
  H   H68       1.0  0.17693  0.52808  0.50296  1.0000
  Si  Si3       1.0  0.99337  0.49795  0.04599  1.0000
  C   C93       1.0  0.98514  0.45878  0.12410  1.0000
  C   C94       1.0  0.50266  0.04368  0.10850  1.0000
  C   C95       1.0  0.96574  0.06599  0.14945  1.0000
  C   C96       1.0  0.97296  0.09832  0.21683  1.0000
  C   C97       1.0  0.51719  0.10850  0.24836  1.0000
  C   C98       1.0  0.55407  0.08645  0.20670  1.0000
  C   C99       1.0  0.54697  0.05445  0.13872  1.0000
  C   C100      1.0  0.52208  0.44594  0.17877  1.0000
  C   C101      1.0  0.51537  0.42044  0.25665  1.0000
  C   C102      1.0  0.97149  0.40604  0.28335  1.0000
  C   C103      1.0  0.93455  0.41952  0.22889  1.0000
  C   C104      1.0  0.94105  0.44596  0.15188  1.0000
  H   H69       1.0  0.94503  0.11386  0.24287  1.0000
  H   H70       1.0  0.93290  0.05820  0.13267  1.0000
  H   H71       1.0  0.58670  0.09243  0.22726  1.0000
  H   H72       1.0  0.57477  0.03793  0.11440  1.0000
  H   H73       1.0  0.55456  0.45608  0.16434  1.0000
  H   H74       1.0  0.54340  0.41348  0.29404  1.0000
  H   H75       1.0  0.90196  0.41061  0.24494  1.0000
  H   H76       1.0  0.91285  0.45652  0.11805  1.0000
  C   C105      1.0  0.52552  0.14242  0.31431  1.0000
  C   C106      1.0  0.96422  0.37605  0.35743  1.0000
  C   C107      1.0  0.97335  0.27805  0.30988  1.0000
  C   C108      1.0  0.97157  0.23001  0.30744  1.0000
  C   C109      1.0  0.98832  0.20429  0.37977  1.0000
  N   N21       1.0  0.95625  0.20959  0.23181  1.0000
  C   C110      1.0  0.94283  0.23269  0.15848  1.0000
  C   C111      1.0  0.94602  0.28029  0.15892  1.0000
  N   N22       1.0  0.96105  0.30065  0.23462  1.0000
  H   H77       1.0  0.93202  0.21542  0.10340  1.0000
  N   N23       1.0  0.93414  0.30554  0.08281  1.0000
  C   C112      1.0  0.97300  0.32913  0.04053  1.0000
  H   H78       1.0  0.91000  0.32892  0.10039  1.0000
  H   H79       1.0  0.99888  0.30469  0.02066  1.0000
  H   H80       1.0  0.48828  0.35407  0.08538  1.0000
  N   N24       1.0  0.99321  0.15850  0.37113  1.0000
  H   H81       1.0  0.96505  0.14146  0.37752  1.0000
  N   N25       1.0  0.78976  0.46692  0.23336  1.0000
  C   C113      1.0  0.75653  0.45264  0.17759  1.0000
  C   C114      1.0  0.71117  0.45459  0.20664  1.0000
  N   N26       1.0  0.70328  0.46877  0.29135  1.0000
  H   H82       1.0  0.76450  0.44283  0.11429  1.0000
  N   N27       1.0  0.67500  0.44505  0.14778  1.0000
  C   C115      1.0  0.66508  0.48411  0.08888  1.0000
  H   H83       1.0  0.64624  0.43773  0.18378  1.0000
  H   H84       1.0  0.69328  0.49028  0.04316  1.0000
  H   H85       1.0  0.65857  0.01503  0.12698  1.0000
  H   H86       1.0  0.63509  0.47652  0.04932  1.0000
  C   C116      1.0  0.60962  0.47271  0.52174  1.0000
  C   C117      1.0  0.58957  0.43608  0.56880  1.0000
  C   C118      1.0  0.55355  0.44333  0.62890  1.0000
  C   C119      1.0  0.53677  0.48759  0.64469  1.0000
  C   C120      1.0  0.55419  0.02338  0.59165  1.0000
  C   C121      1.0  0.58954  0.01599  0.53097  1.0000
  C   C122      1.0  0.95128  0.00390  0.63979  1.0000
  C   C123      1.0  0.94512  0.04651  0.59762  1.0000
  C   C124      1.0  0.92633  0.04928  0.51193  1.0000
  C   C125      1.0  0.91151  0.00973  0.46766  1.0000
  C   C126      1.0  0.91378  0.46759  0.51176  1.0000
  C   C127      1.0  0.93436  0.46462  0.59604  1.0000
  H   H87       1.0  0.94057  0.43282  0.62061  1.0000
  H   H88       1.0  0.90506  0.43834  0.47925  1.0000
  H   H89       1.0  0.92614  0.08001  0.48006  1.0000
  H   H90       1.0  0.95903  0.07560  0.62328  1.0000
  H   H91       1.0  0.54226  0.05585  0.59757  1.0000
  H   H92       1.0  0.54065  0.41590  0.66228  1.0000
  H   H93       1.0  0.60261  0.40403  0.56371  1.0000
  C   C128      1.0  0.90188  0.01183  0.37614  1.0000
  H   H94       1.0  0.60115  0.04322  0.49520  1.0000
  C   C129      1.0  0.65049  0.46720  0.47162  1.0000
  O   O9        1.0  0.92079  0.36432  0.37731  1.0000
  O   O10       1.0  0.56456  0.16673  0.30626  1.0000
  O   O11       1.0  0.93913  0.01663  0.32426  1.0000
  O   O12       1.0  0.66131  0.42502  0.44277  1.0000
  C   C130      1.0  0.48985  0.30094  0.38659  1.0000
  C   C131      1.0  0.50567  0.22700  0.45514  1.0000
  C   C132      1.0  0.50648  0.27478  0.45830  1.0000
  H   H95       1.0  0.52071  0.29054  0.51226  1.0000
  H   H96       1.0  0.51951  0.20886  0.50642  1.0000
  H   H97       1.0  0.96130  0.34666  0.64752  1.0000
  N   N28       1.0  0.49689  0.34697  0.38712  1.0000
  H   H98       1.0  0.52857  0.35498  0.37877  1.0000
  C   C133      1.0  0.72603  0.99702  0.43580  1.0000
  C   C134      1.0  0.73652  0.48143  0.34916  1.0000
  C   C135      1.0  0.78215  0.48192  0.31779  1.0000
  C   C136      1.0  0.81812  0.49970  0.37077  1.0000
  C   C137      1.0  0.80635  0.01696  0.45560  1.0000
  C   C138      1.0  0.76170  0.01514  0.48771  1.0000
  H   H99       1.0  0.75502  0.02879  0.54900  1.0000
  H   H100      1.0  0.82942  0.03369  0.49402  1.0000
  N   N29       1.0  0.86130  0.50440  0.33523  1.0000
  H   H101      1.0  0.86328  0.50445  0.27048  1.0000
  N   N30       1.0  0.68264  0.00074  0.46817  1.0000
  H   H102      1.0  0.67693  0.02808  0.50296  1.0000
  Si  Si4       1.0  0.99337  0.99796  0.04599  1.0000
  C   C139      1.0  0.98515  0.95878  0.12410  1.0000
  C   C140      1.0  0.50267  0.54368  0.10850  1.0000
  C   C141      1.0  0.96574  0.56599  0.14945  1.0000
  C   C142      1.0  0.97296  0.59833  0.21683  1.0000
  C   C143      1.0  0.51719  0.60850  0.24836  1.0000
  C   C144      1.0  0.55408  0.58645  0.20670  1.0000
  C   C145      1.0  0.54697  0.55445  0.13872  1.0000
  C   C146      1.0  0.52208  0.94594  0.17877  1.0000
  C   C147      1.0  0.51537  0.92044  0.25665  1.0000
  C   C148      1.0  0.97149  0.90605  0.28335  1.0000
  C   C149      1.0  0.93455  0.91952  0.22889  1.0000
  C   C150      1.0  0.94105  0.94596  0.15188  1.0000
  H   H103      1.0  0.94503  0.61386  0.24287  1.0000
  H   H104      1.0  0.93290  0.55820  0.13267  1.0000
  H   H105      1.0  0.58670  0.59243  0.22726  1.0000
  H   H106      1.0  0.57477  0.53793  0.11440  1.0000
  H   H107      1.0  0.55456  0.95608  0.16434  1.0000
  H   H108      1.0  0.54340  0.91347  0.29404  1.0000
  H   H109      1.0  0.90196  0.91060  0.24494  1.0000
  H   H110      1.0  0.91285  0.95652  0.11805  1.0000
  C   C151      1.0  0.52553  0.64243  0.31431  1.0000
  C   C152      1.0  0.96422  0.87605  0.35743  1.0000
  C   C153      1.0  0.97335  0.77805  0.30988  1.0000
  C   C154      1.0  0.97157  0.73001  0.30744  1.0000
  C   C155      1.0  0.98832  0.70429  0.37977  1.0000
  N   N31       1.0  0.95625  0.70959  0.23181  1.0000
  C   C156      1.0  0.94283  0.73269  0.15848  1.0000
  C   C157      1.0  0.94602  0.78029  0.15892  1.0000
  N   N32       1.0  0.96105  0.80065  0.23462  1.0000
  H   H111      1.0  0.93202  0.71542  0.10340  1.0000
  N   N33       1.0  0.93414  0.80554  0.08281  1.0000
  C   C158      1.0  0.97300  0.82913  0.04053  1.0000
  H   H112      1.0  0.91000  0.82892  0.10039  1.0000
  H   H113      1.0  0.99888  0.80469  0.02066  1.0000
  H   H114      1.0  0.48828  0.85407  0.08538  1.0000
  N   N34       1.0  0.99321  0.65850  0.37113  1.0000
  H   H115      1.0  0.96505  0.64146  0.37752  1.0000
  N   N35       1.0  0.78976  0.96692  0.23336  1.0000
  C   C159      1.0  0.75653  0.95264  0.17759  1.0000
  C   C160      1.0  0.71117  0.95458  0.20664  1.0000
  N   N36       1.0  0.70328  0.96877  0.29135  1.0000
  H   H116      1.0  0.76450  0.94283  0.11429  1.0000
  N   N37       1.0  0.67500  0.94505  0.14778  1.0000
  C   C161      1.0  0.66508  0.98412  0.08888  1.0000
  H   H117      1.0  0.64623  0.93773  0.18378  1.0000
  H   H118      1.0  0.69328  0.99028  0.04316  1.0000
  H   H119      1.0  0.65857  0.51503  0.12698  1.0000
  H   H120      1.0  0.63509  0.97652  0.04932  1.0000
  C   C162      1.0  0.60962  0.97271  0.52174  1.0000
  C   C163      1.0  0.58957  0.93608  0.56880  1.0000
  C   C164      1.0  0.55355  0.94333  0.62890  1.0000
  C   C165      1.0  0.53677  0.98759  0.64469  1.0000
  C   C166      1.0  0.55419  0.52338  0.59165  1.0000
  C   C167      1.0  0.58953  0.51599  0.53097  1.0000
  C   C168      1.0  0.95128  0.50390  0.63979  1.0000
  C   C169      1.0  0.94512  0.54651  0.59762  1.0000
  C   C170      1.0  0.92633  0.54928  0.51193  1.0000
  C   C171      1.0  0.91151  0.50973  0.46766  1.0000
  C   C172      1.0  0.91378  0.96759  0.51176  1.0000
  C   C173      1.0  0.93437  0.96462  0.59604  1.0000
  H   H121      1.0  0.94057  0.93282  0.62061  1.0000
  H   H122      1.0  0.90505  0.93834  0.47925  1.0000
  H   H123      1.0  0.92614  0.58001  0.48006  1.0000
  H   H124      1.0  0.95903  0.57560  0.62328  1.0000
  H   H125      1.0  0.54226  0.55585  0.59757  1.0000
  H   H126      1.0  0.54065  0.91590  0.66228  1.0000
  H   H127      1.0  0.60261  0.90404  0.56371  1.0000
  C   C174      1.0  0.90188  0.51183  0.37614  1.0000
  H   H128      1.0  0.60115  0.54322  0.49520  1.0000
  C   C175      1.0  0.65049  0.96720  0.47162  1.0000
  O   O13       1.0  0.92078  0.86432  0.37731  1.0000
  O   O14       1.0  0.56456  0.66673  0.30626  1.0000
  O   O15       1.0  0.93913  0.51663  0.32426  1.0000
  O   O16       1.0  0.66131  0.92502  0.44277  1.0000
  C   C176      1.0  0.48985  0.80093  0.38659  1.0000
  C   C177      1.0  0.50567  0.72700  0.45514  1.0000
  C   C178      1.0  0.50648  0.77478  0.45830  1.0000
  H   H129      1.0  0.52071  0.79054  0.51226  1.0000
  H   H130      1.0  0.51951  0.70886  0.50642  1.0000
  H   H131      1.0  0.96130  0.84666  0.64752  1.0000
  N   N38       1.0  0.49689  0.84698  0.38712  1.0000
  H   H132      1.0  0.52857  0.85498  0.37877  1.0000
  C   C179      1.0  0.72602  0.49701  0.43580  1.0000
  C   C180      1.0  0.73652  0.98143  0.34916  1.0000
  C   C181      1.0  0.78216  0.98192  0.31779  1.0000
  C   C182      1.0  0.81812  0.99970  0.37077  1.0000
  C   C183      1.0  0.80635  0.51696  0.45560  1.0000
  C   C184      1.0  0.76170  0.51514  0.48771  1.0000
  H   H133      1.0  0.75502  0.52879  0.54900  1.0000
  H   H134      1.0  0.82942  0.53369  0.49402  1.0000
  N   N39       1.0  0.86129  0.00440  0.33523  1.0000
  H   H135      1.0  0.86328  0.00445  0.27048  1.0000
  N   N40       1.0  0.68264  0.50074  0.46817  1.0000
  H   H136      1.0  0.67693  0.52808  0.50296  1.0000
