data_image0
_chemical_formula_structural       N12C4H2C4H2C4H2C4H2C4H2C4H2C4H2C4H2C4H2C4H2C4H2C4H2CNCNCNCNCNCNCNCNCNCNCNCNCNCNCNCNCNCNCNCNCNCNCNCNCNCNCNCNCNCNCNCNCNCNCNCNC4H2C4H2C4H2C4H2C4H2C4H2N24
_chemical_formula_sum              "N72 C108 H36"
_cell_length_a       36.803
_cell_length_b       36.803
_cell_length_c       14.8324
_cell_angle_alpha    90
_cell_angle_beta     90
_cell_angle_gamma    120

_space_group_name_H-M_alt    "P 1"
_space_group_IT_number       1

loop_
  _space_group_symop_operation_xyz
  'x, y, z'

loop_
  _atom_site_type_symbol
  _atom_site_label
  _atom_site_symmetry_multiplicity
  _atom_site_fract_x
  _atom_site_fract_y
  _atom_site_fract_z
  _atom_site_occupancy
  N   N1        1.0  0.21761  0.37587  0.31701  1.0000
  N   N2        1.0  0.23824  0.41699  0.32374  1.0000
  N   N3        1.0  0.62941  0.83576  0.31844  1.0000
  N   N4        1.0  0.58828  0.81528  0.32509  1.0000
  N   N5        1.0  0.16952  0.78774  0.31818  1.0000
  N   N6        1.0  0.18998  0.76708  0.32492  1.0000
  N   N7        1.0  0.79353  0.62378  0.31729  1.0000
  N   N8        1.0  0.77289  0.58266  0.32392  1.0000
  N   N9        1.0  0.38167  0.16382  0.31786  1.0000
  N   N10       1.0  0.42279  0.18429  0.32459  1.0000
  N   N11       1.0  0.84156  0.21183  0.31838  1.0000
  N   N12       1.0  0.82107  0.23247  0.32506  1.0000
  C   C1        1.0  0.22360  0.17779  0.30354  1.0000
  C   C2        1.0  0.17928  0.15513  0.30046  1.0000
  C   C3        1.0  0.15669  0.17660  0.30054  1.0000
  C   C4        1.0  0.17813  0.22097  0.30373  1.0000
  H   H1        1.0  0.12468  0.15941  0.29824  1.0000
  H   H2        1.0  0.16298  0.12309  0.29814  1.0000
  C   C5        1.0  0.82762  0.03978  0.30461  1.0000
  C   C6        1.0  0.85023  0.01809  0.30091  1.0000
  C   C7        1.0  0.82873  0.97404  0.30106  1.0000
  C   C8        1.0  0.78436  0.95114  0.30492  1.0000
  H   H3        1.0  0.84589  0.95919  0.29830  1.0000
  H   H4        1.0  0.88227  0.03382  0.29810  1.0000
  C   C9        1.0  0.96554  0.78189  0.30387  1.0000
  C   C10       1.0  0.98721  0.82621  0.30071  1.0000
  C   C11       1.0  0.03127  0.84878  0.30103  1.0000
  C   C12       1.0  0.05418  0.82733  0.30454  1.0000
  H   H5        1.0  0.04610  0.88079  0.29866  1.0000
  H   H6        1.0  0.97147  0.84251  0.29815  1.0000
  C   C13       1.0  0.78752  0.82182  0.30418  1.0000
  C   C14       1.0  0.83184  0.84449  0.30088  1.0000
  C   C15       1.0  0.85443  0.82303  0.30095  1.0000
  C   C16       1.0  0.83300  0.77866  0.30433  1.0000
  H   H7        1.0  0.88644  0.84023  0.29848  1.0000
  H   H8        1.0  0.84812  0.87653  0.29841  1.0000
  C   C17       1.0  0.18353  0.95982  0.30432  1.0000
  C   C18       1.0  0.16089  0.98150  0.30109  1.0000
  C   C19       1.0  0.18238  0.02555  0.30119  1.0000
  C   C20       1.0  0.22675  0.04846  0.30455  1.0000
  H   H9        1.0  0.16521  0.04039  0.29876  1.0000
  H   H10       1.0  0.12885  0.96576  0.29862  1.0000
  C   C21       1.0  0.04560  0.21775  0.30329  1.0000
  C   C22       1.0  0.02394  0.17344  0.29989  1.0000
  C   C23       1.0  0.97988  0.15086  0.30035  1.0000
  C   C24       1.0  0.95696  0.17229  0.30425  1.0000
  H   H11       1.0  0.96506  0.11885  0.29783  1.0000
  H   H12       1.0  0.03968  0.15715  0.29707  1.0000
  C   C25       1.0  0.22993  0.57646  0.40486  1.0000
  C   C26       1.0  0.19922  0.58099  0.35626  1.0000
  C   C27       1.0  0.20032  0.62032  0.35699  1.0000
  C   C28       1.0  0.23196  0.65443  0.40670  1.0000
  H   H13       1.0  0.18199  0.62533  0.31276  1.0000
  H   H14       1.0  0.18004  0.55831  0.31161  1.0000
  C   C29       1.0  0.42871  0.64737  0.40495  1.0000
  C   C30       1.0  0.42429  0.61220  0.35620  1.0000
  C   C31       1.0  0.38496  0.57398  0.35652  1.0000
  C   C32       1.0  0.35076  0.57145  0.40599  1.0000
  H   H15       1.0  0.38000  0.55073  0.31206  1.0000
  H   H16       1.0  0.44701  0.61579  0.31160  1.0000
  C   C33       1.0  0.35770  0.77525  0.40597  1.0000
  C   C34       1.0  0.39290  0.80605  0.35740  1.0000
  C   C35       1.0  0.43113  0.80494  0.35768  1.0000
  C   C36       1.0  0.43363  0.77320  0.40690  1.0000
  H   H17       1.0  0.45441  0.82332  0.31338  1.0000
  H   H18       1.0  0.38936  0.82530  0.31304  1.0000
  C   C37       1.0  0.78119  0.42319  0.40507  1.0000
  C   C38       1.0  0.81194  0.41870  0.35653  1.0000
  C   C39       1.0  0.81079  0.37934  0.35705  1.0000
  C   C40       1.0  0.77900  0.34516  0.40634  1.0000
  H   H19       1.0  0.82914  0.37436  0.31282  1.0000
  H   H20       1.0  0.83118  0.44142  0.31205  1.0000
  C   C41       1.0  0.58238  0.35213  0.40473  1.0000
  C   C42       1.0  0.58684  0.38732  0.35598  1.0000
  C   C43       1.0  0.62618  0.42554  0.35636  1.0000
  C   C44       1.0  0.66036  0.42801  0.40577  1.0000
  H   H21       1.0  0.63113  0.44885  0.31208  1.0000
  H   H22       1.0  0.56409  0.38378  0.31151  1.0000
  C   C45       1.0  0.65323  0.22424  0.40579  1.0000
  C   C46       1.0  0.61802  0.19341  0.35732  1.0000
  C   C47       1.0  0.57980  0.19452  0.35762  1.0000
  C   C48       1.0  0.57732  0.22628  0.40681  1.0000
  H   H23       1.0  0.55651  0.17615  0.31333  1.0000
  H   H24       1.0  0.62156  0.17418  0.31289  1.0000
  C   C49       1.0  0.15639  0.24399  0.30411  1.0000
  N   N13       1.0  0.17612  0.28676  0.30557  1.0000
  C   C50       1.0  0.15429  0.30784  0.30556  1.0000
  N   N14       1.0  0.11148  0.28464  0.30481  1.0000
  C   C51       1.0  0.09026  0.24200  0.30356  1.0000
  N   N15       1.0  0.11373  0.22295  0.30320  1.0000
  C   C52       1.0  0.76131  0.90637  0.30541  1.0000
  N   N16       1.0  0.71854  0.88336  0.30708  1.0000
  C   C53       1.0  0.69744  0.84045  0.30714  1.0000
  N   N17       1.0  0.72063  0.82081  0.30619  1.0000
  C   C54       1.0  0.76327  0.84223  0.30472  1.0000
  N   N18       1.0  0.78233  0.88475  0.30432  1.0000
  C   C55       1.0  0.09895  0.84906  0.30517  1.0000
  N   N19       1.0  0.12196  0.82930  0.30683  1.0000
  C   C56       1.0  0.16487  0.85111  0.30702  1.0000
  N   N20       1.0  0.18450  0.89392  0.30621  1.0000
  C   C57       1.0  0.16310  0.91516  0.30476  1.0000
  N   N21       1.0  0.12057  0.89171  0.30422  1.0000
  C   C58       1.0  0.85476  0.75565  0.30472  1.0000
  N   N22       1.0  0.83502  0.71288  0.30613  1.0000
  C   C59       1.0  0.85686  0.69181  0.30609  1.0000
  N   N23       1.0  0.89967  0.71501  0.30536  1.0000
  C   C60       1.0  0.92088  0.75765  0.30417  1.0000
  N   N24       1.0  0.89741  0.77670  0.30383  1.0000
  C   C61       1.0  0.24980  0.09323  0.30489  1.0000
  N   N25       1.0  0.29257  0.11624  0.30638  1.0000
  C   C62       1.0  0.31367  0.15915  0.30626  1.0000
  N   N26       1.0  0.29048  0.17879  0.30534  1.0000
  C   C63       1.0  0.24784  0.15738  0.30405  1.0000
  N   N27       1.0  0.22878  0.11485  0.30381  1.0000
  C   C64       1.0  0.91219  0.15055  0.30515  1.0000
  N   N28       1.0  0.88918  0.17030  0.30712  1.0000
  C   C65       1.0  0.84626  0.14848  0.30765  1.0000
  N   N29       1.0  0.82664  0.10566  0.30683  1.0000
  C   C66       1.0  0.84806  0.08444  0.30506  1.0000
  N   N30       1.0  0.89058  0.10790  0.30422  1.0000
  C   C67       1.0  0.30717  0.54326  0.39404  1.0000
  N   N31       1.0  0.28565  0.50409  0.35724  1.0000
  C   C68       1.0  0.24311  0.48477  0.34151  1.0000
  N   N32       1.0  0.22279  0.50711  0.35616  1.0000
  C   C69       1.0  0.24260  0.54610  0.39352  1.0000
  N   N33       1.0  0.28362  0.56119  0.41136  1.0000
  C   C70       1.0  0.46185  0.75784  0.39485  1.0000
  N   N34       1.0  0.50111  0.77556  0.35840  1.0000
  C   C71       1.0  0.52046  0.75237  0.34267  1.0000
  N   N35       1.0  0.49808  0.70968  0.35691  1.0000
  C   C72       1.0  0.45895  0.69042  0.39356  1.0000
  N   N36       1.0  0.44387  0.71633  0.41170  1.0000
  C   C73       1.0  0.24721  0.69804  0.39558  1.0000
  N   N37       1.0  0.22961  0.71959  0.35859  1.0000
  C   C74       1.0  0.25284  0.76214  0.34304  1.0000
  N   N38       1.0  0.29550  0.78243  0.35772  1.0000
  C   C75       1.0  0.31467  0.76257  0.39488  1.0000
  N   N39       1.0  0.28871  0.72155  0.41265  1.0000
  C   C76       1.0  0.70396  0.45643  0.39455  1.0000
  N   N40       1.0  0.72546  0.49553  0.35741  1.0000
  C   C77       1.0  0.76800  0.51487  0.34176  1.0000
  N   N41       1.0  0.78834  0.49255  0.35649  1.0000
  C   C78       1.0  0.76852  0.45355  0.39382  1.0000
  N   N42       1.0  0.72750  0.43848  0.41165  1.0000
  C   C79       1.0  0.54913  0.24168  0.39474  1.0000
  N   N43       1.0  0.50992  0.22398  0.35806  1.0000
  C   C80       1.0  0.49061  0.24720  0.34217  1.0000
  N   N44       1.0  0.51297  0.28988  0.35652  1.0000
  C   C81       1.0  0.55199  0.30910  0.39374  1.0000
  N   N45       1.0  0.56707  0.28318  0.41175  1.0000
  C   C82       1.0  0.76369  0.30156  0.39480  1.0000
  N   N46       1.0  0.78138  0.27996  0.35856  1.0000
  C   C83       1.0  0.75817  0.23737  0.34335  1.0000
  N   N47       1.0  0.71550  0.21708  0.35782  1.0000
  C   C84       1.0  0.69627  0.23703  0.39426  1.0000
  N   N48       1.0  0.72220  0.27807  0.41193  1.0000
  C   C85       1.0  0.21961  0.44102  0.32144  1.0000
  C   C86       1.0  0.17549  0.41915  0.31109  1.0000
  C   C87       1.0  0.15335  0.37511  0.30442  1.0000
  C   C88       1.0  0.17512  0.35253  0.30802  1.0000
  H   H25       1.0  0.12143  0.35996  0.29857  1.0000
  H   H26       1.0  0.15897  0.43467  0.31097  1.0000
  C   C89       1.0  0.56425  0.77262  0.32296  1.0000
  C   C90       1.0  0.58612  0.75036  0.31294  1.0000
  C   C91       1.0  0.63016  0.77225  0.30635  1.0000
  C   C92       1.0  0.65275  0.81659  0.30971  1.0000
  H   H27       1.0  0.64531  0.75546  0.30070  1.0000
  H   H28       1.0  0.57061  0.71832  0.31293  1.0000
  C   C93       1.0  0.23264  0.78570  0.32305  1.0000
  C   C94       1.0  0.25493  0.82984  0.31321  1.0000
  C   C95       1.0  0.23306  0.85201  0.30653  1.0000
  C   C96       1.0  0.18871  0.83025  0.30964  1.0000
  H   H29       1.0  0.24986  0.88395  0.30105  1.0000
  H   H30       1.0  0.28697  0.84636  0.31345  1.0000
  C   C97       1.0  0.79151  0.55862  0.32165  1.0000
  C   C98       1.0  0.83564  0.58049  0.31154  1.0000
  C   C99       1.0  0.85779  0.62453  0.30496  1.0000
  C   C100      1.0  0.83603  0.64711  0.30847  1.0000
  H   H31       1.0  0.88973  0.63969  0.29927  1.0000
  H   H32       1.0  0.85217  0.56498  0.31151  1.0000
  C   C101      1.0  0.44685  0.22695  0.32216  1.0000
  C   C102      1.0  0.42500  0.24921  0.31167  1.0000
  C   C103      1.0  0.38097  0.22734  0.30501  1.0000
  C   C104      1.0  0.35836  0.18299  0.30874  1.0000
  H   H33       1.0  0.36583  0.24412  0.29905  1.0000
  H   H34       1.0  0.44054  0.28126  0.31143  1.0000
  C   C105      1.0  0.77839  0.21379  0.32380  1.0000
  C   C106      1.0  0.75613  0.16961  0.31474  1.0000
  C   C107      1.0  0.77803  0.14747  0.30812  1.0000
  C   C108      1.0  0.82239  0.16929  0.31047  1.0000
  H   H35       1.0  0.76125  0.11551  0.30316  1.0000
  H   H36       1.0  0.72409  0.15304  0.31544  1.0000
  N   N49       1.0  0.22084  0.24056  0.30649  1.0000
  N   N50       1.0  0.24201  0.22043  0.30641  1.0000
  N   N51       1.0  0.76482  0.97429  0.30822  1.0000
  N   N52       1.0  0.78498  0.01559  0.30808  1.0000
  N   N53       1.0  0.03105  0.78462  0.30735  1.0000
  N   N54       1.0  0.98976  0.76347  0.30704  1.0000
  N   N55       1.0  0.79030  0.75907  0.30728  1.0000
  N   N56       1.0  0.76912  0.77919  0.30722  1.0000
  N   N57       1.0  0.24632  0.02532  0.30745  1.0000
  N   N58       1.0  0.22617  0.98403  0.30736  1.0000
  N   N59       1.0  0.98009  0.21500  0.30724  1.0000
  N   N60       1.0  0.02138  0.23616  0.30680  1.0000
  N   N61       1.0  0.25646  0.64498  0.45882  1.0000
  N   N62       1.0  0.25557  0.60947  0.45803  1.0000
  N   N63       1.0  0.36010  0.60531  0.45832  1.0000
  N   N64       1.0  0.39562  0.63993  0.45789  1.0000
  N   N65       1.0  0.39971  0.74859  0.45903  1.0000
  N   N66       1.0  0.36510  0.74950  0.45869  1.0000
  N   N67       1.0  0.75451  0.35459  0.45856  1.0000
  N   N68       1.0  0.75548  0.39013  0.45804  1.0000
  N   N69       1.0  0.65099  0.39417  0.45817  1.0000
  N   N70       1.0  0.61546  0.35957  0.45772  1.0000
  N   N71       1.0  0.61124  0.25091  0.45891  1.0000
  N   N72       1.0  0.64585  0.25001  0.45849  1.0000
