data_image0
_chemical_formula_structural       C16H16C7H3NH2NC7H3NH2NC3NC3NC5NC5NC36H26C4H4C2H2C3HNH2NC2H2C3HNH2N
_chemical_formula_sum              "C96 H66 N12"
_cell_length_a       38.3982
_cell_length_b       38.3982
_cell_length_c       14.9349
_cell_angle_alpha    90
_cell_angle_beta     90
_cell_angle_gamma    89.8463

_space_group_name_H-M_alt    "P 1"
_space_group_IT_number       1

loop_
  _space_group_symop_operation_xyz
  'x, y, z'

loop_
  _atom_site_type_symbol
  _atom_site_label
  _atom_site_symmetry_multiplicity
  _atom_site_fract_x
  _atom_site_fract_y
  _atom_site_fract_z
  _atom_site_occupancy
  C   C1        1.0  0.00003  0.18724  0.28118  1.0000
  C   C2        1.0  0.99851  0.15059  0.27912  1.0000
  C   C3        1.0  0.98555  0.26449  0.31657  1.0000
  C   C4        1.0  0.98825  0.30106  0.32171  1.0000
  C   C5        1.0  0.18540  0.00456  0.28642  1.0000
  C   C6        1.0  0.14875  0.00577  0.28471  1.0000
  C   C7        1.0  0.29879  0.01541  0.31930  1.0000
  C   C8        1.0  0.26227  0.01928  0.32064  1.0000
  C   C9        1.0  0.00248  0.85464  0.28429  1.0000
  C   C10       1.0  0.00205  0.81798  0.28605  1.0000
  C   C11       1.0  0.01578  0.70472  0.31491  1.0000
  C   C12       1.0  0.01893  0.74129  0.31590  1.0000
  C   C13       1.0  0.85262  0.99998  0.28003  1.0000
  C   C14       1.0  0.81596  0.00133  0.28249  1.0000
  C   C15       1.0  0.73915  0.98578  0.31902  1.0000
  C   C16       1.0  0.70254  0.98780  0.32473  1.0000
  H   H1        1.0  0.68801  0.96967  0.29131  1.0000
  H   H2        1.0  0.74997  0.96613  0.28196  1.0000
  H   H3        1.0  0.80260  0.99932  0.22348  1.0000
  H   H4        1.0  0.86489  0.99659  0.21984  1.0000
  H   H5        1.0  0.00443  0.86716  0.22403  1.0000
  H   H6        1.0  0.00314  0.80491  0.22644  1.0000
  H   H7        1.0  0.13631  0.00956  0.22490  1.0000
  H   H8        1.0  0.19855  0.00703  0.22721  1.0000
  H   H9        1.0  0.25142  0.03970  0.28647  1.0000
  H   H10       1.0  0.31318  0.03276  0.28291  1.0000
  H   H11       1.0  0.99540  0.13823  0.21895  1.0000
  H   H12       1.0  0.99839  0.20050  0.22194  1.0000
  H   H13       1.0  0.97044  0.31594  0.28789  1.0000
  H   H14       1.0  0.96575  0.25404  0.27951  1.0000
  H   H15       1.0  0.03785  0.75249  0.27728  1.0000
  H   H16       1.0  0.03206  0.69065  0.27438  1.0000
  C   C17       1.0  0.00585  0.40989  0.33026  1.0000
  C   C18       1.0  0.00911  0.42800  0.24852  1.0000
  C   C19       1.0  0.01080  0.46489  0.24494  1.0000
  C   C20       1.0  0.00850  0.48411  0.32643  1.0000
  C   C21       1.0  0.00991  0.52119  0.32982  1.0000
  C   C22       1.0  0.98012  0.54012  0.30252  1.0000
  C   C23       1.0  0.97939  0.57667  0.30713  1.0000
  H   H17       1.0  0.95853  0.52741  0.27928  1.0000
  H   H18       1.0  0.95756  0.58954  0.28599  1.0000
  H   H19       1.0  0.01107  0.41392  0.19047  1.0000
  N   N1        1.0  0.01515  0.48051  0.16390  1.0000
  H   H20       1.0  0.01696  0.46692  0.10909  1.0000
  H   H21       1.0  0.01729  0.50560  0.15797  1.0000
  N   N2        1.0  0.00512  0.37511  0.32829  1.0000
  C   C24       1.0  0.59340  0.00381  0.33385  1.0000
  C   C25       1.0  0.57523  0.00706  0.25217  1.0000
  C   C26       1.0  0.53832  0.00841  0.24864  1.0000
  C   C27       1.0  0.51915  0.00574  0.33013  1.0000
  C   C28       1.0  0.48207  0.00702  0.33359  1.0000
  C   C29       1.0  0.46337  0.97732  0.30531  1.0000
  C   C30       1.0  0.42682  0.97655  0.30949  1.0000
  H   H22       1.0  0.47626  0.95586  0.28151  1.0000
  H   H23       1.0  0.41414  0.95481  0.28746  1.0000
  H   H24       1.0  0.58927  0.00933  0.19415  1.0000
  N   N3        1.0  0.52263  0.01282  0.16768  1.0000
  H   H25       1.0  0.53619  0.01495  0.11292  1.0000
  H   H26       1.0  0.49752  0.01482  0.16181  1.0000
  N   N4        1.0  0.62818  0.00359  0.33181  1.0000
  C   C31       1.0  0.91113  0.06813  0.35633  1.0000
  C   C32       1.0  0.93674  0.09330  0.35651  1.0000
  C   C33       1.0  0.96913  0.07662  0.35614  1.0000
  N   N5        1.0  0.96192  0.04205  0.35585  1.0000
  C   C34       1.0  0.92723  0.03543  0.35653  1.0000
  C   C35       1.0  0.90939  0.00296  0.35739  1.0000
  C   C36       1.0  0.92586  0.96980  0.35882  1.0000
  N   N6        1.0  0.96037  0.96273  0.35947  1.0000
  C   C37       1.0  0.96685  0.92812  0.36165  1.0000
  C   C38       1.0  0.93432  0.91190  0.36220  1.0000
  C   C39       1.0  0.90908  0.93757  0.36075  1.0000
  C   C40       1.0  0.99973  0.91107  0.36285  1.0000
  C   C41       1.0  0.03248  0.92835  0.36265  1.0000
  N   N7        1.0  0.03968  0.96292  0.36257  1.0000
  C   C42       1.0  0.07437  0.96953  0.36267  1.0000
  C   C43       1.0  0.09047  0.93684  0.36256  1.0000
  C   C44       1.0  0.06487  0.91167  0.36289  1.0000
  C   C45       1.0  0.09222  0.00199  0.36251  1.0000
  C   C46       1.0  0.07572  0.03513  0.36093  1.0000
  N   N8        1.0  0.04122  0.04219  0.35909  1.0000
  C   C47       1.0  0.03475  0.07681  0.35830  1.0000
  C   C48       1.0  0.06728  0.09303  0.35940  1.0000
  C   C49       1.0  0.09250  0.06737  0.36143  1.0000
  C   C50       1.0  0.00188  0.09389  0.35690  1.0000
  C   C51       1.0  0.00194  0.13105  0.35877  1.0000
  C   C52       1.0  0.00659  0.14890  0.44049  1.0000
  C   C53       1.0  0.00834  0.18549  0.44220  1.0000
  C   C54       1.0  0.00541  0.20539  0.36259  1.0000
  C   C55       1.0  0.00859  0.24252  0.36467  1.0000
  C   C56       1.0  0.01430  0.31700  0.37473  1.0000
  C   C57       1.0  0.03771  0.29502  0.42143  1.0000
  C   C58       1.0  0.03496  0.25857  0.41633  1.0000
  C   C59       1.0  0.12937  0.00132  0.36422  1.0000
  C   C60       1.0  0.14738  0.99584  0.44544  1.0000
  C   C61       1.0  0.18401  0.99438  0.44678  1.0000
  C   C62       1.0  0.20374  0.99861  0.36735  1.0000
  C   C63       1.0  0.24088  0.99567  0.36824  1.0000
  C   C64       1.0  0.25745  0.96814  0.41485  1.0000
  C   C65       1.0  0.29387  0.96409  0.41303  1.0000
  C   C66       1.0  0.31523  0.98759  0.36513  1.0000
  C   C67       1.0  0.99978  0.87393  0.36449  1.0000
  C   C68       1.0  0.99871  0.79950  0.36773  1.0000
  C   C69       1.0  0.99623  0.81917  0.44780  1.0000
  C   C70       1.0  0.99684  0.85582  0.44638  1.0000
  C   C71       1.0  0.99663  0.76227  0.36897  1.0000
  C   C72       1.0  0.97122  0.74517  0.42160  1.0000
  C   C73       1.0  0.96789  0.70869  0.42024  1.0000
  C   C74       1.0  0.99002  0.68778  0.36672  1.0000
  C   C75       1.0  0.87225  0.00368  0.35942  1.0000
  C   C76       1.0  0.85449  0.00851  0.44124  1.0000
  C   C77       1.0  0.81789  0.01006  0.44334  1.0000
  C   C78       1.0  0.79788  0.00672  0.36405  1.0000
  C   C79       1.0  0.76068  0.00927  0.36664  1.0000
  C   C80       1.0  0.68612  0.01356  0.37796  1.0000
  C   C81       1.0  0.70762  0.03741  0.42423  1.0000
  C   C82       1.0  0.74413  0.03536  0.41851  1.0000
  H   H27       1.0  0.69692  0.05653  0.46338  1.0000
  H   H28       1.0  0.75854  0.05333  0.45277  1.0000
  H   H29       1.0  0.80596  0.01337  0.50399  1.0000
  H   H30       1.0  0.86810  0.01116  0.49977  1.0000
  H   H31       1.0  0.88503  0.07334  0.35679  1.0000
  H   H32       1.0  0.93200  0.11949  0.35719  1.0000
  H   H33       1.0  0.97946  0.02420  0.35545  1.0000
  H   H34       1.0  0.02214  0.98076  0.36340  1.0000
  H   H35       1.0  0.88288  0.93305  0.36118  1.0000
  H   H36       1.0  0.92934  0.88579  0.36370  1.0000
  H   H37       1.0  0.99490  0.86919  0.50545  1.0000
  H   H38       1.0  0.99420  0.80694  0.50841  1.0000
  H   H39       1.0  0.06962  0.88548  0.36303  1.0000
  H   H40       1.0  0.11657  0.93161  0.36222  1.0000
  H   H41       1.0  0.07229  0.11914  0.35914  1.0000
  H   H42       1.0  0.11869  0.07192  0.36302  1.0000
  H   H43       1.0  0.13395  0.99258  0.50401  1.0000
  H   H44       1.0  0.19618  0.99040  0.50685  1.0000
  H   H45       1.0  0.30460  0.94341  0.44647  1.0000
  H   H46       1.0  0.24304  0.94997  0.44847  1.0000
  H   H47       1.0  0.05265  0.24381  0.45088  1.0000
  H   H48       1.0  0.05702  0.30536  0.46046  1.0000
  H   H49       1.0  0.01169  0.19749  0.50272  1.0000
  H   H50       1.0  0.00919  0.13537  0.49917  1.0000
  H   H51       1.0  0.95397  0.75922  0.45939  1.0000
  H   H52       1.0  0.94868  0.69758  0.45813  1.0000
  C   C83       1.0  0.01670  0.35292  0.38580  1.0000
  C   C84       1.0  0.35099  0.98175  0.36109  1.0000
  C   C85       1.0  0.98469  0.65196  0.36316  1.0000
  C   C86       1.0  0.65017  0.01529  0.38950  1.0000
  H   H53       1.0  0.02883  0.36182  0.44010  1.0000
  H   H54       1.0  0.64108  0.02715  0.44406  1.0000
  H   H55       1.0  0.96102  0.64295  0.37722  1.0000
  H   H56       1.0  0.35972  0.95764  0.37123  1.0000
  C   C87       1.0  0.00419  0.46600  0.40809  1.0000
  C   C88       1.0  0.00286  0.42946  0.41000  1.0000
  H   H57       1.0  0.00205  0.47931  0.46725  1.0000
  H   H58       1.0  0.99957  0.41725  0.47021  1.0000
  C   C89       1.0  0.00831  0.59535  0.34012  1.0000
  C   C90       1.0  0.03825  0.57649  0.36586  1.0000
  C   C91       1.0  0.03960  0.53960  0.36195  1.0000
  H   H59       1.0  0.05943  0.58997  0.38886  1.0000
  N   N9        1.0  0.06938  0.52320  0.38813  1.0000
  H   H60       1.0  0.07200  0.49807  0.38475  1.0000
  H   H61       1.0  0.08944  0.53625  0.40933  1.0000
  N   N10       1.0  0.00918  0.63003  0.34564  1.0000
  C   C92       1.0  0.53733  0.00138  0.41170  1.0000
  C   C93       1.0  0.57390  0.00041  0.41355  1.0000
  H   H62       1.0  0.52407  0.99902  0.47085  1.0000
  H   H63       1.0  0.58617  0.99713  0.47371  1.0000
  C   C94       1.0  0.40790  0.00533  0.34302  1.0000
  C   C95       1.0  0.42654  0.03513  0.36999  1.0000
  C   C96       1.0  0.46343  0.03655  0.36642  1.0000
  H   H64       1.0  0.41291  0.05622  0.39342  1.0000
  N   N11       1.0  0.47959  0.06625  0.39353  1.0000
  H   H65       1.0  0.50470  0.06893  0.39037  1.0000
  H   H66       1.0  0.46637  0.08621  0.41517  1.0000
  N   N12       1.0  0.37321  0.00630  0.34820  1.0000
