data_image0
_chemical_formula_structural       C15H12NC3H3NC3H3C2NC2NC5NC3NC17H14CNCHCNCHC15H12NC3H3NC3H3C2NC2NC5NC3NC17H14CNCHCNCHC15H12NC3H3NC3H3C2NC2NC5NC3NC17H14CNCHCNCHC15H12NC3H3NC3H3C2NC2NC5NC3NC17H14CNCHCNCH
_chemical_formula_sum              "C216 H136 N32"
_cell_length_a       42.605
_cell_length_b       42.605
_cell_length_c       14.9172
_cell_angle_alpha    90
_cell_angle_beta     90
_cell_angle_gamma    90

_space_group_name_H-M_alt    "P 1"
_space_group_IT_number       1

loop_
  _space_group_symop_operation_xyz
  'x, y, z'

loop_
  _atom_site_type_symbol
  _atom_site_label
  _atom_site_symmetry_multiplicity
  _atom_site_fract_x
  _atom_site_fract_y
  _atom_site_fract_z
  _atom_site_occupancy
  C   C1        1.0  0.43501  0.47190  0.34313  1.0000
  C   C2        1.0  0.03182  0.43392  0.34437  1.0000
  C   C3        1.0  0.50084  0.08375  0.33707  1.0000
  C   C4        1.0  0.47117  0.06842  0.33837  1.0000
  C   C5        1.0  0.41906  0.06016  0.33700  1.0000
  C   C6        1.0  0.44187  0.08314  0.33795  1.0000
  C   C7        1.0  0.33629  0.49045  0.25640  1.0000
  C   C8        1.0  0.36932  0.49088  0.25953  1.0000
  C   C9        1.0  0.50105  0.11737  0.33386  1.0000
  C   C10       1.0  0.49160  0.16660  0.25293  1.0000
  C   C11       1.0  0.49177  0.13356  0.25550  1.0000
  C   C12       1.0  0.13431  0.00260  0.26078  1.0000
  C   C13       1.0  0.16736  0.00232  0.26077  1.0000
  C   C14       1.0  0.00336  0.36856  0.26282  1.0000
  C   C15       1.0  0.00306  0.33551  0.26210  1.0000
  H   H1        1.0  0.00382  0.32444  0.20126  1.0000
  H   H2        1.0  0.00458  0.38040  0.20320  1.0000
  H   H3        1.0  0.43916  0.39618  0.35368  1.0000
  H   H4        1.0  0.12260  0.00362  0.20092  1.0000
  H   H5        1.0  0.17860  0.00294  0.20016  1.0000
  H   H6        1.0  0.06403  0.10594  0.32501  1.0000
  H   H7        1.0  0.39548  0.06451  0.33574  1.0000
  H   H8        1.0  0.43735  0.10669  0.33725  1.0000
  H   H9        1.0  0.48451  0.12135  0.20015  1.0000
  H   H10       1.0  0.48330  0.17736  0.19652  1.0000
  H   H11       1.0  0.38170  0.48361  0.20448  1.0000
  H   H12       1.0  0.32570  0.48192  0.20000  1.0000
  N   N1        1.0  0.01405  0.26891  0.26960  1.0000
  C   C16       1.0  0.01526  0.23721  0.25830  1.0000
  C   C17       1.0  0.50160  0.21809  0.32603  1.0000
  C   C18       1.0  0.03251  0.22534  0.17915  1.0000
  H   H13       1.0  0.04471  0.24432  0.14436  1.0000
  H   H14       1.0  0.51631  0.21462  0.13169  1.0000
  H   H15       1.0  0.04999  0.20807  0.19980  1.0000
  N   N2        1.0  0.23404  0.01322  0.26991  1.0000
  C   C19       1.0  0.26577  0.01433  0.25955  1.0000
  C   C20       1.0  0.28462  0.50066  0.32790  1.0000
  C   C21       1.0  0.27799  0.03158  0.18082  1.0000
  H   H16       1.0  0.25916  0.04372  0.14523  1.0000
  H   H17       1.0  0.28898  0.51539  0.13384  1.0000
  H   H18       1.0  0.29513  0.04909  0.20211  1.0000
  C   C22       1.0  0.44349  0.41973  0.34970  1.0000
  C   C23       1.0  0.42049  0.44254  0.34900  1.0000
  N   N3        1.0  0.46626  0.46573  0.34163  1.0000
  C   C24       1.0  0.47271  0.43456  0.34531  1.0000
  C   C25       1.0  0.50215  0.41872  0.34493  1.0000
  N   N4        1.0  0.03778  0.46510  0.34386  1.0000
  C   C26       1.0  0.06892  0.47126  0.34415  1.0000
  C   C27       1.0  0.08390  0.44210  0.34499  1.0000
  C   C28       1.0  0.06107  0.41911  0.34504  1.0000
  C   C29       1.0  0.08393  0.50104  0.34249  1.0000
  C   C30       1.0  0.06790  0.03037  0.33967  1.0000
  N   N5        1.0  0.03667  0.03665  0.34214  1.0000
  C   C31       1.0  0.03028  0.06783  0.33729  1.0000
  C   C32       1.0  0.05958  0.08246  0.33107  1.0000
  C   C33       1.0  0.08254  0.05962  0.33315  1.0000
  N   N6        1.0  0.46516  0.03722  0.33966  1.0000
  C   C34       1.0  0.43400  0.03098  0.33921  1.0000
  C   C35       1.0  0.41889  0.50120  0.34039  1.0000
  C   C36       1.0  0.38528  0.50073  0.33770  1.0000
  C   C37       1.0  0.36726  0.00984  0.41288  1.0000
  C   C38       1.0  0.33421  0.00983  0.40907  1.0000
  C   C39       1.0  0.31810  0.50064  0.33026  1.0000
  C   C40       1.0  0.01020  0.13518  0.40941  1.0000
  C   C41       1.0  0.01050  0.16822  0.40611  1.0000
  C   C42       1.0  0.50160  0.18458  0.32744  1.0000
  C   C43       1.0  0.11746  0.50132  0.34217  1.0000
  C   C44       1.0  0.18478  0.50037  0.34167  1.0000
  C   C45       1.0  0.16749  0.49927  0.42291  1.0000
  C   C46       1.0  0.13443  0.49976  0.42330  1.0000
  C   C47       1.0  0.50195  0.38520  0.34451  1.0000
  C   C48       1.0  0.50027  0.36804  0.42531  1.0000
  C   C49       1.0  0.49976  0.33497  0.42420  1.0000
  C   C50       1.0  0.50102  0.31789  0.34261  1.0000
  H   H19       1.0  0.49917  0.32356  0.48443  1.0000
  H   H20       1.0  0.49944  0.37952  0.48554  1.0000
  H   H21       1.0  0.39699  0.43795  0.35273  1.0000
  H   H22       1.0  0.48210  0.48167  0.33624  1.0000
  H   H23       1.0  0.02083  0.02077  0.34884  1.0000
  H   H24       1.0  0.06545  0.39552  0.34572  1.0000
  H   H25       1.0  0.10751  0.43784  0.34497  1.0000
  H   H26       1.0  0.12281  0.49893  0.48333  1.0000
  H   H27       1.0  0.17874  0.49871  0.48339  1.0000
  H   H28       1.0  0.10608  0.06406  0.32920  1.0000
  H   H29       1.0  0.01686  0.12417  0.46736  1.0000
  H   H30       1.0  0.01765  0.18028  0.46184  1.0000
  H   H31       1.0  0.32198  0.01713  0.46433  1.0000
  H   H32       1.0  0.37811  0.01687  0.47071  1.0000
  C   C51       1.0  0.00075  0.28424  0.34009  1.0000
  N   N7        1.0  0.48851  0.23321  0.39725  1.0000
  C   C52       1.0  0.48749  0.26486  0.40698  1.0000
  H   H33       1.0  0.47648  0.27393  0.46193  1.0000
  C   C53       1.0  0.21843  0.99997  0.33998  1.0000
  N   N8        1.0  0.26922  0.48761  0.39869  1.0000
  C   C54       1.0  0.23754  0.48664  0.40742  1.0000
  H   H34       1.0  0.22825  0.47568  0.46214  1.0000
  C   C55       1.0  0.43501  0.97190  0.34313  1.0000
  C   C56       1.0  0.03182  0.93392  0.34437  1.0000
  C   C57       1.0  0.50084  0.58375  0.33707  1.0000
  C   C58       1.0  0.47117  0.56842  0.33837  1.0000
  C   C59       1.0  0.41906  0.56016  0.33700  1.0000
  C   C60       1.0  0.44187  0.58314  0.33795  1.0000
  C   C61       1.0  0.33629  0.99046  0.25640  1.0000
  C   C62       1.0  0.36932  0.99088  0.25953  1.0000
  C   C63       1.0  0.50105  0.61737  0.33386  1.0000
  C   C64       1.0  0.49160  0.66660  0.25293  1.0000
  C   C65       1.0  0.49177  0.63356  0.25550  1.0000
  C   C66       1.0  0.13431  0.50260  0.26078  1.0000
  C   C67       1.0  0.16736  0.50232  0.26077  1.0000
  C   C68       1.0  0.00336  0.86856  0.26282  1.0000
  C   C69       1.0  0.00306  0.83551  0.26210  1.0000
  H   H35       1.0  0.00382  0.82444  0.20126  1.0000
  H   H36       1.0  0.00458  0.88040  0.20320  1.0000
  H   H37       1.0  0.43916  0.89618  0.35368  1.0000
  H   H38       1.0  0.12260  0.50362  0.20092  1.0000
  H   H39       1.0  0.17860  0.50294  0.20016  1.0000
  H   H40       1.0  0.06403  0.60594  0.32501  1.0000
  H   H41       1.0  0.39548  0.56451  0.33574  1.0000
  H   H42       1.0  0.43735  0.60669  0.33725  1.0000
  H   H43       1.0  0.48451  0.62135  0.20015  1.0000
  H   H44       1.0  0.48330  0.67736  0.19652  1.0000
  H   H45       1.0  0.38170  0.98360  0.20448  1.0000
  H   H46       1.0  0.32570  0.98193  0.20000  1.0000
  N   N9        1.0  0.01405  0.76890  0.26960  1.0000
  C   C70       1.0  0.01526  0.73721  0.25830  1.0000
  C   C71       1.0  0.50160  0.71809  0.32603  1.0000
  C   C72       1.0  0.03251  0.72534  0.17915  1.0000
  H   H47       1.0  0.04471  0.74432  0.14436  1.0000
  H   H48       1.0  0.51631  0.71462  0.13169  1.0000
  H   H49       1.0  0.04999  0.70807  0.19980  1.0000
  N   N10       1.0  0.23404  0.51322  0.26991  1.0000
  C   C73       1.0  0.26577  0.51433  0.25955  1.0000
  C   C74       1.0  0.28462  0.00066  0.32790  1.0000
  C   C75       1.0  0.27799  0.53158  0.18082  1.0000
  H   H50       1.0  0.25916  0.54372  0.14523  1.0000
  H   H51       1.0  0.28898  0.01539  0.13384  1.0000
  H   H52       1.0  0.29513  0.54909  0.20211  1.0000
  C   C76       1.0  0.44349  0.91973  0.34970  1.0000
  C   C77       1.0  0.42049  0.94254  0.34900  1.0000
  N   N11       1.0  0.46626  0.96573  0.34163  1.0000
  C   C78       1.0  0.47271  0.93456  0.34531  1.0000
  C   C79       1.0  0.50215  0.91872  0.34493  1.0000
  N   N12       1.0  0.03778  0.96510  0.34386  1.0000
  C   C80       1.0  0.06892  0.97126  0.34415  1.0000
  C   C81       1.0  0.08390  0.94210  0.34499  1.0000
  C   C82       1.0  0.06107  0.91911  0.34504  1.0000
  C   C83       1.0  0.08393  0.00104  0.34249  1.0000
  C   C84       1.0  0.06790  0.53036  0.33967  1.0000
  N   N13       1.0  0.03667  0.53665  0.34214  1.0000
  C   C85       1.0  0.03028  0.56783  0.33729  1.0000
  C   C86       1.0  0.05958  0.58247  0.33107  1.0000
  C   C87       1.0  0.08254  0.55962  0.33315  1.0000
  N   N14       1.0  0.46516  0.53722  0.33966  1.0000
  C   C88       1.0  0.43400  0.53098  0.33921  1.0000
  C   C89       1.0  0.41889  0.00120  0.34039  1.0000
  C   C90       1.0  0.38528  0.00073  0.33770  1.0000
  C   C91       1.0  0.36726  0.50984  0.41288  1.0000
  C   C92       1.0  0.33421  0.50983  0.40907  1.0000
  C   C93       1.0  0.31810  0.00064  0.33026  1.0000
  C   C94       1.0  0.01020  0.63518  0.40941  1.0000
  C   C95       1.0  0.01050  0.66822  0.40611  1.0000
  C   C96       1.0  0.50160  0.68458  0.32744  1.0000
  C   C97       1.0  0.11746  0.00132  0.34217  1.0000
  C   C98       1.0  0.18478  0.00037  0.34167  1.0000
  C   C99       1.0  0.16749  0.99927  0.42291  1.0000
  C   C100      1.0  0.13443  0.99976  0.42330  1.0000
  C   C101      1.0  0.50195  0.88520  0.34451  1.0000
  C   C102      1.0  0.50027  0.86804  0.42531  1.0000
  C   C103      1.0  0.49976  0.83497  0.42420  1.0000
  C   C104      1.0  0.50102  0.81789  0.34261  1.0000
  H   H53       1.0  0.49917  0.82356  0.48443  1.0000
  H   H54       1.0  0.49944  0.87952  0.48554  1.0000
  H   H55       1.0  0.39699  0.93795  0.35273  1.0000
  H   H56       1.0  0.48210  0.98167  0.33624  1.0000
  H   H57       1.0  0.02083  0.52077  0.34884  1.0000
  H   H58       1.0  0.06545  0.89552  0.34572  1.0000
  H   H59       1.0  0.10751  0.93784  0.34497  1.0000
  H   H60       1.0  0.12281  0.99893  0.48333  1.0000
  H   H61       1.0  0.17874  0.99871  0.48339  1.0000
  H   H62       1.0  0.10608  0.56406  0.32920  1.0000
  H   H63       1.0  0.01686  0.62417  0.46736  1.0000
  H   H64       1.0  0.01765  0.68028  0.46184  1.0000
  H   H65       1.0  0.32198  0.51713  0.46433  1.0000
  H   H66       1.0  0.37811  0.51687  0.47071  1.0000
  C   C105      1.0  0.00075  0.78424  0.34009  1.0000
  N   N15       1.0  0.48851  0.73321  0.39725  1.0000
  C   C106      1.0  0.48749  0.76486  0.40698  1.0000
  H   H67       1.0  0.47648  0.77393  0.46193  1.0000
  C   C107      1.0  0.21843  0.49997  0.33998  1.0000
  N   N16       1.0  0.26922  0.98761  0.39869  1.0000
  C   C108      1.0  0.23754  0.98664  0.40742  1.0000
  H   H68       1.0  0.22825  0.97568  0.46214  1.0000
  C   C109      1.0  0.93501  0.47190  0.34313  1.0000
  C   C110      1.0  0.53182  0.43392  0.34437  1.0000
  C   C111      1.0  0.00084  0.08375  0.33707  1.0000
  C   C112      1.0  0.97117  0.06842  0.33837  1.0000
  C   C113      1.0  0.91906  0.06016  0.33700  1.0000
  C   C114      1.0  0.94187  0.08314  0.33795  1.0000
  C   C115      1.0  0.83629  0.49045  0.25640  1.0000
  C   C116      1.0  0.86932  0.49088  0.25953  1.0000
  C   C117      1.0  0.00105  0.11737  0.33386  1.0000
  C   C118      1.0  0.99160  0.16660  0.25293  1.0000
  C   C119      1.0  0.99177  0.13356  0.25550  1.0000
  C   C120      1.0  0.63431  0.00260  0.26078  1.0000
  C   C121      1.0  0.66736  0.00232  0.26077  1.0000
  C   C122      1.0  0.50336  0.36856  0.26282  1.0000
  C   C123      1.0  0.50306  0.33551  0.26210  1.0000
  H   H69       1.0  0.50382  0.32444  0.20126  1.0000
  H   H70       1.0  0.50458  0.38040  0.20320  1.0000
  H   H71       1.0  0.93916  0.39618  0.35368  1.0000
  H   H72       1.0  0.62260  0.00362  0.20092  1.0000
  H   H73       1.0  0.67859  0.00294  0.20016  1.0000
  H   H74       1.0  0.56403  0.10594  0.32501  1.0000
  H   H75       1.0  0.89548  0.06451  0.33574  1.0000
  H   H76       1.0  0.93734  0.10669  0.33725  1.0000
  H   H77       1.0  0.98451  0.12135  0.20015  1.0000
  H   H78       1.0  0.98330  0.17736  0.19652  1.0000
  H   H79       1.0  0.88170  0.48361  0.20448  1.0000
  H   H80       1.0  0.82570  0.48192  0.20000  1.0000
  N   N17       1.0  0.51405  0.26891  0.26960  1.0000
  C   C124      1.0  0.51526  0.23721  0.25830  1.0000
  C   C125      1.0  0.00160  0.21809  0.32603  1.0000
  C   C126      1.0  0.53252  0.22534  0.17915  1.0000
  H   H81       1.0  0.54471  0.24432  0.14436  1.0000
  H   H82       1.0  0.01632  0.21462  0.13169  1.0000
  H   H83       1.0  0.54998  0.20807  0.19980  1.0000
  N   N18       1.0  0.73404  0.01322  0.26991  1.0000
  C   C127      1.0  0.76577  0.01433  0.25955  1.0000
  C   C128      1.0  0.78462  0.50066  0.32790  1.0000
  C   C129      1.0  0.77799  0.03158  0.18082  1.0000
  H   H84       1.0  0.75916  0.04372  0.14523  1.0000
  H   H85       1.0  0.78898  0.51539  0.13384  1.0000
  H   H86       1.0  0.79513  0.04909  0.20211  1.0000
  C   C130      1.0  0.94350  0.41973  0.34970  1.0000
  C   C131      1.0  0.92049  0.44254  0.34900  1.0000
  N   N19       1.0  0.96626  0.46573  0.34163  1.0000
  C   C132      1.0  0.97271  0.43456  0.34531  1.0000
  C   C133      1.0  0.00215  0.41872  0.34493  1.0000
  N   N20       1.0  0.53778  0.46510  0.34386  1.0000
  C   C134      1.0  0.56891  0.47126  0.34415  1.0000
  C   C135      1.0  0.58391  0.44210  0.34499  1.0000
  C   C136      1.0  0.56107  0.41911  0.34504  1.0000
  C   C137      1.0  0.58393  0.50104  0.34249  1.0000
  C   C138      1.0  0.56791  0.03037  0.33967  1.0000
  N   N21       1.0  0.53667  0.03665  0.34214  1.0000
  C   C139      1.0  0.53029  0.06783  0.33729  1.0000
  C   C140      1.0  0.55958  0.08246  0.33107  1.0000
  C   C141      1.0  0.58254  0.05962  0.33315  1.0000
  N   N22       1.0  0.96515  0.03722  0.33966  1.0000
  C   C142      1.0  0.93400  0.03098  0.33921  1.0000
  C   C143      1.0  0.91889  0.50120  0.34039  1.0000
  C   C144      1.0  0.88527  0.50073  0.33770  1.0000
  C   C145      1.0  0.86726  0.00984  0.41288  1.0000
  C   C146      1.0  0.83422  0.00983  0.40907  1.0000
  C   C147      1.0  0.81810  0.50064  0.33026  1.0000
  C   C148      1.0  0.51020  0.13518  0.40941  1.0000
  C   C149      1.0  0.51050  0.16822  0.40611  1.0000
  C   C150      1.0  0.00159  0.18458  0.32744  1.0000
  C   C151      1.0  0.61746  0.50132  0.34217  1.0000
  C   C152      1.0  0.68478  0.50037  0.34167  1.0000
  C   C153      1.0  0.66749  0.49927  0.42291  1.0000
  C   C154      1.0  0.63443  0.49976  0.42330  1.0000
  C   C155      1.0  0.00195  0.38520  0.34451  1.0000
  C   C156      1.0  0.00027  0.36804  0.42531  1.0000
  C   C157      1.0  0.99976  0.33497  0.42420  1.0000
  C   C158      1.0  0.00102  0.31789  0.34261  1.0000
  H   H87       1.0  0.99917  0.32356  0.48443  1.0000
  H   H88       1.0  0.99944  0.37952  0.48554  1.0000
  H   H89       1.0  0.89699  0.43795  0.35273  1.0000
  H   H90       1.0  0.98210  0.48167  0.33624  1.0000
  H   H91       1.0  0.52083  0.02077  0.34884  1.0000
  H   H92       1.0  0.56545  0.39552  0.34572  1.0000
  H   H93       1.0  0.60751  0.43784  0.34497  1.0000
  H   H94       1.0  0.62281  0.49893  0.48333  1.0000
  H   H95       1.0  0.67874  0.49871  0.48339  1.0000
  H   H96       1.0  0.60608  0.06406  0.32920  1.0000
  H   H97       1.0  0.51686  0.12417  0.46736  1.0000
  H   H98       1.0  0.51765  0.18028  0.46184  1.0000
  H   H99       1.0  0.82198  0.01713  0.46433  1.0000
  H   H100      1.0  0.87811  0.01687  0.47071  1.0000
  C   C159      1.0  0.50075  0.28424  0.34009  1.0000
  N   N23       1.0  0.98851  0.23321  0.39725  1.0000
  C   C160      1.0  0.98749  0.26486  0.40698  1.0000
  H   H101      1.0  0.97648  0.27393  0.46193  1.0000
  C   C161      1.0  0.71843  0.99997  0.33998  1.0000
  N   N24       1.0  0.76922  0.48761  0.39869  1.0000
  C   C162      1.0  0.73754  0.48664  0.40742  1.0000
  H   H102      1.0  0.72825  0.47568  0.46214  1.0000
  C   C163      1.0  0.93501  0.97190  0.34313  1.0000
  C   C164      1.0  0.53182  0.93392  0.34437  1.0000
  C   C165      1.0  0.00084  0.58375  0.33707  1.0000
  C   C166      1.0  0.97117  0.56842  0.33837  1.0000
  C   C167      1.0  0.91906  0.56016  0.33700  1.0000
  C   C168      1.0  0.94187  0.58314  0.33795  1.0000
  C   C169      1.0  0.83629  0.99046  0.25640  1.0000
  C   C170      1.0  0.86932  0.99088  0.25953  1.0000
  C   C171      1.0  0.00105  0.61737  0.33386  1.0000
  C   C172      1.0  0.99160  0.66660  0.25293  1.0000
  C   C173      1.0  0.99177  0.63356  0.25550  1.0000
  C   C174      1.0  0.63431  0.50260  0.26078  1.0000
  C   C175      1.0  0.66736  0.50232  0.26077  1.0000
  C   C176      1.0  0.50336  0.86856  0.26282  1.0000
  C   C177      1.0  0.50306  0.83551  0.26210  1.0000
  H   H103      1.0  0.50382  0.82444  0.20126  1.0000
  H   H104      1.0  0.50458  0.88040  0.20320  1.0000
  H   H105      1.0  0.93916  0.89618  0.35368  1.0000
  H   H106      1.0  0.62260  0.50362  0.20092  1.0000
  H   H107      1.0  0.67859  0.50294  0.20016  1.0000
  H   H108      1.0  0.56403  0.60594  0.32501  1.0000
  H   H109      1.0  0.89548  0.56451  0.33574  1.0000
  H   H110      1.0  0.93734  0.60669  0.33725  1.0000
  H   H111      1.0  0.98451  0.62135  0.20015  1.0000
  H   H112      1.0  0.98330  0.67736  0.19652  1.0000
  H   H113      1.0  0.88170  0.98360  0.20448  1.0000
  H   H114      1.0  0.82570  0.98193  0.20000  1.0000
  N   N25       1.0  0.51405  0.76890  0.26960  1.0000
  C   C178      1.0  0.51526  0.73721  0.25830  1.0000
  C   C179      1.0  0.00160  0.71809  0.32603  1.0000
  C   C180      1.0  0.53252  0.72534  0.17915  1.0000
  H   H115      1.0  0.54471  0.74432  0.14436  1.0000
  H   H116      1.0  0.01632  0.71462  0.13169  1.0000
  H   H117      1.0  0.54998  0.70807  0.19980  1.0000
  N   N26       1.0  0.73404  0.51322  0.26991  1.0000
  C   C181      1.0  0.76577  0.51433  0.25955  1.0000
  C   C182      1.0  0.78462  0.00066  0.32790  1.0000
  C   C183      1.0  0.77799  0.53158  0.18082  1.0000
  H   H118      1.0  0.75916  0.54372  0.14523  1.0000
  H   H119      1.0  0.78898  0.01539  0.13384  1.0000
  H   H120      1.0  0.79513  0.54909  0.20211  1.0000
  C   C184      1.0  0.94350  0.91973  0.34970  1.0000
  C   C185      1.0  0.92049  0.94254  0.34900  1.0000
  N   N27       1.0  0.96626  0.96573  0.34163  1.0000
  C   C186      1.0  0.97271  0.93456  0.34531  1.0000
  C   C187      1.0  0.00215  0.91872  0.34493  1.0000
  N   N28       1.0  0.53778  0.96510  0.34386  1.0000
  C   C188      1.0  0.56891  0.97126  0.34415  1.0000
  C   C189      1.0  0.58391  0.94210  0.34499  1.0000
  C   C190      1.0  0.56107  0.91911  0.34504  1.0000
  C   C191      1.0  0.58393  0.00104  0.34249  1.0000
  C   C192      1.0  0.56791  0.53036  0.33967  1.0000
  N   N29       1.0  0.53667  0.53665  0.34214  1.0000
  C   C193      1.0  0.53029  0.56783  0.33729  1.0000
  C   C194      1.0  0.55958  0.58247  0.33107  1.0000
  C   C195      1.0  0.58254  0.55962  0.33315  1.0000
  N   N30       1.0  0.96515  0.53722  0.33966  1.0000
  C   C196      1.0  0.93400  0.53098  0.33921  1.0000
  C   C197      1.0  0.91889  0.00120  0.34039  1.0000
  C   C198      1.0  0.88527  0.00073  0.33770  1.0000
  C   C199      1.0  0.86726  0.50984  0.41288  1.0000
  C   C200      1.0  0.83422  0.50983  0.40907  1.0000
  C   C201      1.0  0.81810  0.00064  0.33026  1.0000
  C   C202      1.0  0.51020  0.63518  0.40941  1.0000
  C   C203      1.0  0.51050  0.66822  0.40611  1.0000
  C   C204      1.0  0.00159  0.68458  0.32744  1.0000
  C   C205      1.0  0.61746  0.00132  0.34217  1.0000
  C   C206      1.0  0.68478  0.00037  0.34167  1.0000
  C   C207      1.0  0.66749  0.99927  0.42291  1.0000
  C   C208      1.0  0.63443  0.99976  0.42330  1.0000
  C   C209      1.0  0.00195  0.88520  0.34451  1.0000
  C   C210      1.0  0.00027  0.86804  0.42531  1.0000
  C   C211      1.0  0.99976  0.83497  0.42420  1.0000
  C   C212      1.0  0.00102  0.81789  0.34261  1.0000
  H   H121      1.0  0.99917  0.82356  0.48443  1.0000
  H   H122      1.0  0.99944  0.87952  0.48554  1.0000
  H   H123      1.0  0.89699  0.93795  0.35273  1.0000
  H   H124      1.0  0.98210  0.98167  0.33624  1.0000
  H   H125      1.0  0.52083  0.52077  0.34884  1.0000
  H   H126      1.0  0.56545  0.89552  0.34572  1.0000
  H   H127      1.0  0.60751  0.93784  0.34497  1.0000
  H   H128      1.0  0.62281  0.99893  0.48333  1.0000
  H   H129      1.0  0.67874  0.99871  0.48339  1.0000
  H   H130      1.0  0.60608  0.56406  0.32920  1.0000
  H   H131      1.0  0.51686  0.62417  0.46736  1.0000
  H   H132      1.0  0.51765  0.68028  0.46184  1.0000
  H   H133      1.0  0.82198  0.51713  0.46433  1.0000
  H   H134      1.0  0.87811  0.51687  0.47071  1.0000
  C   C213      1.0  0.50075  0.78424  0.34009  1.0000
  N   N31       1.0  0.98851  0.73321  0.39725  1.0000
  C   C214      1.0  0.98749  0.76486  0.40698  1.0000
  H   H135      1.0  0.97648  0.77393  0.46193  1.0000
  C   C215      1.0  0.71843  0.49997  0.33998  1.0000
  N   N32       1.0  0.76922  0.98761  0.39869  1.0000
  C   C216      1.0  0.73754  0.98664  0.40742  1.0000
  H   H136      1.0  0.72825  0.97568  0.46214  1.0000
