data_image0
_chemical_formula_structural       SiC12H9C5O2H2NHO2H2C12H6CHCO4C3OHOHNHC6OHOHNHNHSiC12H9C5O2H2NHO2H2C12H6CHCO4C3OHOHNHC6OHOHNHNHSiC12H9C5O2H2NHO2H2C12H6CHCO4C3OHOHNHC6OHOHNHNHSiC12H9C5O2H2NHO2H2C12H6CHCO4C3OHOHNHC6OHOHNHNH
_chemical_formula_sum              "Si4 C160 H112 O48 N16"
_cell_length_a       29.4552
_cell_length_b       29.4535
_cell_length_c       15.0226
_cell_angle_alpha    90
_cell_angle_beta     90
_cell_angle_gamma    90.2379

_space_group_name_H-M_alt    "P 1"
_space_group_IT_number       1

loop_
  _space_group_symop_operation_xyz
  'x, y, z'

loop_
  _atom_site_type_symbol
  _atom_site_label
  _atom_site_symmetry_multiplicity
  _atom_site_fract_x
  _atom_site_fract_y
  _atom_site_fract_z
  _atom_site_occupancy
  Si  Si1       1.0  0.51063  0.50177  0.05536  1.0000
  C   C1        1.0  0.50282  0.45383  0.11217  1.0000
  C   C2        1.0  0.01846  0.03886  0.13786  1.0000
  C   C3        1.0  0.48299  0.04552  0.20032  1.0000
  C   C4        1.0  0.49006  0.07040  0.27888  1.0000
  C   C5        1.0  0.03231  0.09143  0.29677  1.0000
  C   C6        1.0  0.06765  0.08517  0.23404  1.0000
  C   C7        1.0  0.06116  0.05874  0.15698  1.0000
  C   C8        1.0  0.03976  0.43472  0.15906  1.0000
  C   C9        1.0  0.03294  0.39972  0.22134  1.0000
  C   C10       1.0  0.48896  0.38245  0.23960  1.0000
  C   C11       1.0  0.45215  0.40150  0.19221  1.0000
  C   C12       1.0  0.45882  0.43667  0.13044  1.0000
  H   H1        1.0  0.46381  0.07272  0.32326  1.0000
  H   H2        1.0  0.45174  0.03083  0.19149  1.0000
  H   H3        1.0  0.09928  0.09845  0.24519  1.0000
  H   H4        1.0  0.08870  0.05306  0.11724  1.0000
  H   H5        1.0  0.07202  0.44734  0.15157  1.0000
  H   H6        1.0  0.06058  0.38871  0.25612  1.0000
  H   H7        1.0  0.41962  0.39049  0.20304  1.0000
  H   H8        1.0  0.43051  0.45075  0.10261  1.0000
  H   H9        1.0  0.45942  0.08427  0.02753  1.0000
  C   C13       1.0  0.03939  0.11588  0.37753  1.0000
  C   C14       1.0  0.48093  0.34668  0.30191  1.0000
  C   C15       1.0  0.00278  0.27387  0.35881  1.0000
  C   C16       1.0  0.47590  0.19624  0.33147  1.0000
  C   C17       1.0  0.97803  0.24237  0.30650  1.0000
  O   O1        1.0  0.45202  0.16637  0.28015  1.0000
  O   O2        1.0  0.95823  0.25525  0.22852  1.0000
  H   H10       1.0  0.46806  0.16378  0.22295  1.0000
  H   H11       1.0  0.98211  0.25415  0.18285  1.0000
  N   N1        1.0  0.01296  0.31576  0.32568  1.0000
  H   H12       1.0  0.04342  0.31832  0.30133  1.0000
  O   O3        1.0  0.28177  0.93862  0.40414  1.0000
  O   O4        1.0  0.19675  0.94047  0.33251  1.0000
  H   H13       1.0  0.30227  0.94389  0.35348  1.0000
  H   H14       1.0  0.20464  0.94460  0.26944  1.0000
  C   C18       1.0  0.09799  0.49504  0.47936  1.0000
  C   C19       1.0  0.08390  0.45467  0.52191  1.0000
  C   C20       1.0  0.06196  0.45610  0.60516  1.0000
  C   C21       1.0  0.05233  0.49806  0.64743  1.0000
  C   C22       1.0  0.06763  0.03828  0.60507  1.0000
  C   C23       1.0  0.09085  0.03663  0.52347  1.0000
  C   C24       1.0  0.46632  0.01456  0.65797  1.0000
  C   C25       1.0  0.44706  0.05854  0.65530  1.0000
  C   C26       1.0  0.40988  0.06807  0.59951  1.0000
  C   C27       1.0  0.39084  0.03382  0.54514  1.0000
  C   C28       1.0  0.41161  0.49073  0.54362  1.0000
  C   C29       1.0  0.44918  0.48152  0.59801  1.0000
  H   H15       1.0  0.46255  0.44951  0.59533  1.0000
  H   H16       1.0  0.39932  0.46545  0.50339  1.0000
  H   H17       1.0  0.39563  0.09969  0.60184  1.0000
  H   H18       1.0  0.05860  0.06965  0.62847  1.0000
  H   H19       1.0  0.04901  0.42624  0.62919  1.0000
  H   H20       1.0  0.08621  0.42420  0.48942  1.0000
  C   C30       1.0  0.35022  0.04158  0.49714  1.0000
  H   H21       1.0  0.09752  0.06647  0.49197  1.0000
  C   C31       1.0  0.10772  0.49486  0.38703  1.0000
  O   O5        1.0  0.43822  0.34075  0.33381  1.0000
  O   O6        1.0  0.08078  0.13505  0.39121  1.0000
  O   O7        1.0  0.34771  0.07980  0.44732  1.0000
  O   O8        1.0  0.07152  0.48522  0.33475  1.0000
  C   C32       1.0  0.02387  0.25913  0.43812  1.0000
  C   C33       1.0  0.52118  0.21314  0.46386  1.0000
  C   C34       1.0  0.49879  0.18093  0.40863  1.0000
  O   O9        1.0  0.54512  0.19939  0.53647  1.0000
  H   H22       1.0  0.52377  0.20023  0.58673  1.0000
  O   O10       1.0  0.04972  0.28834  0.48702  1.0000
  H   H23       1.0  0.02847  0.30562  0.52427  1.0000
  N   N2        1.0  0.50390  0.13498  0.42152  1.0000
  H   H24       1.0  0.50401  0.12733  0.48459  1.0000
  C   C35       1.0  0.18501  0.01673  0.38577  1.0000
  C   C36       1.0  0.20238  0.05542  0.43002  1.0000
  C   C37       1.0  0.24630  0.05435  0.46808  1.0000
  C   C38       1.0  0.27393  0.01528  0.45934  1.0000
  C   C39       1.0  0.25661  0.97708  0.41295  1.0000
  C   C40       1.0  0.21270  0.97792  0.37578  1.0000
  O   O11       1.0  0.26071  0.09117  0.51522  1.0000
  H   H25       1.0  0.25611  0.08373  0.57840  1.0000
  O   O12       1.0  0.17729  0.09424  0.43202  1.0000
  H   H26       1.0  0.17277  0.10269  0.49472  1.0000
  N   N3        1.0  0.14295  0.01728  0.34791  1.0000
  H   H27       1.0  0.14287  0.01710  0.28306  1.0000
  N   N4        1.0  0.31498  0.01153  0.50127  1.0000
  H   H28       1.0  0.31908  0.98409  0.53677  1.0000
  Si  Si2       1.0  0.51063  0.00177  0.05536  1.0000
  C   C41       1.0  0.50282  0.95383  0.11217  1.0000
  C   C42       1.0  0.01846  0.53886  0.13786  1.0000
  C   C43       1.0  0.48299  0.54552  0.20032  1.0000
  C   C44       1.0  0.49006  0.57040  0.27888  1.0000
  C   C45       1.0  0.03231  0.59143  0.29677  1.0000
  C   C46       1.0  0.06765  0.58517  0.23404  1.0000
  C   C47       1.0  0.06116  0.55874  0.15698  1.0000
  C   C48       1.0  0.03976  0.93472  0.15906  1.0000
  C   C49       1.0  0.03294  0.89972  0.22134  1.0000
  C   C50       1.0  0.48896  0.88245  0.23960  1.0000
  C   C51       1.0  0.45216  0.90150  0.19221  1.0000
  C   C52       1.0  0.45882  0.93667  0.13044  1.0000
  H   H29       1.0  0.46380  0.57272  0.32326  1.0000
  H   H30       1.0  0.45174  0.53083  0.19149  1.0000
  H   H31       1.0  0.09928  0.59845  0.24519  1.0000
  H   H32       1.0  0.08870  0.55306  0.11724  1.0000
  H   H33       1.0  0.07202  0.94734  0.15157  1.0000
  H   H34       1.0  0.06058  0.88872  0.25612  1.0000
  H   H35       1.0  0.41962  0.89049  0.20304  1.0000
  H   H36       1.0  0.43051  0.95075  0.10261  1.0000
  H   H37       1.0  0.45942  0.58427  0.02753  1.0000
  C   C53       1.0  0.03939  0.61588  0.37753  1.0000
  C   C54       1.0  0.48092  0.84667  0.30191  1.0000
  C   C55       1.0  0.00278  0.77387  0.35881  1.0000
  C   C56       1.0  0.47590  0.69624  0.33147  1.0000
  C   C57       1.0  0.97802  0.74236  0.30650  1.0000
  O   O13       1.0  0.45202  0.66637  0.28015  1.0000
  O   O14       1.0  0.95823  0.75525  0.22852  1.0000
  H   H38       1.0  0.46807  0.66378  0.22295  1.0000
  H   H39       1.0  0.98212  0.75415  0.18285  1.0000
  N   N5        1.0  0.01296  0.81576  0.32568  1.0000
  H   H40       1.0  0.04342  0.81832  0.30133  1.0000
  O   O15       1.0  0.28177  0.43862  0.40414  1.0000
  O   O16       1.0  0.19675  0.44047  0.33251  1.0000
  H   H41       1.0  0.30227  0.44389  0.35348  1.0000
  H   H42       1.0  0.20464  0.44460  0.26944  1.0000
  C   C58       1.0  0.09799  0.99503  0.47936  1.0000
  C   C59       1.0  0.08390  0.95467  0.52191  1.0000
  C   C60       1.0  0.06196  0.95610  0.60516  1.0000
  C   C61       1.0  0.05233  0.99806  0.64743  1.0000
  C   C62       1.0  0.06763  0.53828  0.60507  1.0000
  C   C63       1.0  0.09085  0.53663  0.52347  1.0000
  C   C64       1.0  0.46632  0.51456  0.65797  1.0000
  C   C65       1.0  0.44706  0.55854  0.65530  1.0000
  C   C66       1.0  0.40988  0.56807  0.59951  1.0000
  C   C67       1.0  0.39084  0.53382  0.54514  1.0000
  C   C68       1.0  0.41161  0.99073  0.54362  1.0000
  C   C69       1.0  0.44917  0.98152  0.59801  1.0000
  H   H43       1.0  0.46255  0.94951  0.59533  1.0000
  H   H44       1.0  0.39932  0.96545  0.50339  1.0000
  H   H45       1.0  0.39563  0.59969  0.60184  1.0000
  H   H46       1.0  0.05860  0.56965  0.62847  1.0000
  H   H47       1.0  0.04901  0.92624  0.62919  1.0000
  H   H48       1.0  0.08621  0.92420  0.48942  1.0000
  C   C70       1.0  0.35022  0.54158  0.49714  1.0000
  H   H49       1.0  0.09752  0.56647  0.49197  1.0000
  C   C71       1.0  0.10772  0.99486  0.38703  1.0000
  O   O17       1.0  0.43822  0.84075  0.33381  1.0000
  O   O18       1.0  0.08078  0.63504  0.39121  1.0000
  O   O19       1.0  0.34771  0.57980  0.44732  1.0000
  O   O20       1.0  0.07152  0.98522  0.33475  1.0000
  C   C72       1.0  0.02387  0.75913  0.43812  1.0000
  C   C73       1.0  0.52119  0.71314  0.46386  1.0000
  C   C74       1.0  0.49879  0.68093  0.40863  1.0000
  O   O21       1.0  0.54513  0.69939  0.53647  1.0000
  H   H50       1.0  0.52377  0.70023  0.58673  1.0000
  O   O22       1.0  0.04972  0.78834  0.48702  1.0000
  H   H51       1.0  0.02847  0.80562  0.52427  1.0000
  N   N6        1.0  0.50390  0.63498  0.42152  1.0000
  H   H52       1.0  0.50402  0.62733  0.48459  1.0000
  C   C75       1.0  0.18501  0.51673  0.38577  1.0000
  C   C76       1.0  0.20238  0.55542  0.43002  1.0000
  C   C77       1.0  0.24630  0.55435  0.46808  1.0000
  C   C78       1.0  0.27393  0.51528  0.45934  1.0000
  C   C79       1.0  0.25661  0.47708  0.41295  1.0000
  C   C80       1.0  0.21270  0.47792  0.37578  1.0000
  O   O23       1.0  0.26071  0.59117  0.51522  1.0000
  H   H53       1.0  0.25611  0.58373  0.57840  1.0000
  O   O24       1.0  0.17729  0.59424  0.43202  1.0000
  H   H54       1.0  0.17277  0.60269  0.49472  1.0000
  N   N7        1.0  0.14295  0.51728  0.34791  1.0000
  H   H55       1.0  0.14287  0.51710  0.28306  1.0000
  N   N8        1.0  0.31498  0.51153  0.50127  1.0000
  H   H56       1.0  0.31908  0.48409  0.53677  1.0000
  Si  Si3       1.0  0.01063  0.50177  0.05536  1.0000
  C   C81       1.0  0.00282  0.45383  0.11217  1.0000
  C   C82       1.0  0.51846  0.03886  0.13786  1.0000
  C   C83       1.0  0.98299  0.04552  0.20032  1.0000
  C   C84       1.0  0.99006  0.07040  0.27888  1.0000
  C   C85       1.0  0.53232  0.09143  0.29677  1.0000
  C   C86       1.0  0.56765  0.08517  0.23404  1.0000
  C   C87       1.0  0.56116  0.05874  0.15698  1.0000
  C   C88       1.0  0.53976  0.43472  0.15906  1.0000
  C   C89       1.0  0.53294  0.39972  0.22134  1.0000
  C   C90       1.0  0.98896  0.38245  0.23960  1.0000
  C   C91       1.0  0.95215  0.40150  0.19221  1.0000
  C   C92       1.0  0.95882  0.43667  0.13044  1.0000
  H   H57       1.0  0.96381  0.07272  0.32326  1.0000
  H   H58       1.0  0.95174  0.03083  0.19149  1.0000
  H   H59       1.0  0.59928  0.09845  0.24519  1.0000
  H   H60       1.0  0.58870  0.05306  0.11724  1.0000
  H   H61       1.0  0.57202  0.44734  0.15157  1.0000
  H   H62       1.0  0.56058  0.38871  0.25612  1.0000
  H   H63       1.0  0.91962  0.39049  0.20304  1.0000
  H   H64       1.0  0.93051  0.45075  0.10261  1.0000
  H   H65       1.0  0.95943  0.08427  0.02753  1.0000
  C   C93       1.0  0.53939  0.11588  0.37753  1.0000
  C   C94       1.0  0.98093  0.34668  0.30191  1.0000
  C   C95       1.0  0.50278  0.27387  0.35881  1.0000
  C   C96       1.0  0.97591  0.19624  0.33147  1.0000
  C   C97       1.0  0.47802  0.24237  0.30650  1.0000
  O   O25       1.0  0.95202  0.16637  0.28015  1.0000
  O   O26       1.0  0.45822  0.25525  0.22852  1.0000
  H   H66       1.0  0.96806  0.16378  0.22295  1.0000
  H   H67       1.0  0.48211  0.25415  0.18285  1.0000
  N   N9        1.0  0.51296  0.31576  0.32568  1.0000
  H   H68       1.0  0.54342  0.31832  0.30133  1.0000
  O   O27       1.0  0.78177  0.93862  0.40414  1.0000
  O   O28       1.0  0.69675  0.94047  0.33251  1.0000
  H   H69       1.0  0.80227  0.94389  0.35348  1.0000
  H   H70       1.0  0.70464  0.94460  0.26944  1.0000
  C   C98       1.0  0.59799  0.49504  0.47936  1.0000
  C   C99       1.0  0.58390  0.45467  0.52191  1.0000
  C   C100      1.0  0.56196  0.45610  0.60516  1.0000
  C   C101      1.0  0.55233  0.49806  0.64743  1.0000
  C   C102      1.0  0.56763  0.03828  0.60507  1.0000
  C   C103      1.0  0.59085  0.03663  0.52347  1.0000
  C   C104      1.0  0.96632  0.01456  0.65797  1.0000
  C   C105      1.0  0.94706  0.05854  0.65530  1.0000
  C   C106      1.0  0.90988  0.06807  0.59951  1.0000
  C   C107      1.0  0.89084  0.03382  0.54514  1.0000
  C   C108      1.0  0.91161  0.49073  0.54362  1.0000
  C   C109      1.0  0.94918  0.48152  0.59801  1.0000
  H   H71       1.0  0.96255  0.44951  0.59533  1.0000
  H   H72       1.0  0.89932  0.46545  0.50339  1.0000
  H   H73       1.0  0.89563  0.09969  0.60184  1.0000
  H   H74       1.0  0.55859  0.06965  0.62847  1.0000
  H   H75       1.0  0.54901  0.42624  0.62919  1.0000
  H   H76       1.0  0.58621  0.42420  0.48942  1.0000
  C   C110      1.0  0.85022  0.04158  0.49714  1.0000
  H   H77       1.0  0.59752  0.06647  0.49197  1.0000
  C   C111      1.0  0.60772  0.49486  0.38703  1.0000
  O   O29       1.0  0.93822  0.34075  0.33381  1.0000
  O   O30       1.0  0.58078  0.13505  0.39121  1.0000
  O   O31       1.0  0.84771  0.07980  0.44732  1.0000
  O   O32       1.0  0.57152  0.48522  0.33475  1.0000
  C   C112      1.0  0.52387  0.25913  0.43812  1.0000
  C   C113      1.0  0.02118  0.21314  0.46386  1.0000
  C   C114      1.0  0.99879  0.18093  0.40863  1.0000
  O   O33       1.0  0.04513  0.19939  0.53647  1.0000
  H   H78       1.0  0.02377  0.20023  0.58673  1.0000
  O   O34       1.0  0.54972  0.28834  0.48702  1.0000
  H   H79       1.0  0.52847  0.30562  0.52427  1.0000
  N   N10       1.0  0.00390  0.13498  0.42152  1.0000
  H   H80       1.0  0.00402  0.12733  0.48459  1.0000
  C   C115      1.0  0.68502  0.01673  0.38577  1.0000
  C   C116      1.0  0.70238  0.05542  0.43002  1.0000
  C   C117      1.0  0.74630  0.05435  0.46808  1.0000
  C   C118      1.0  0.77393  0.01528  0.45934  1.0000
  C   C119      1.0  0.75661  0.97708  0.41295  1.0000
  C   C120      1.0  0.71270  0.97792  0.37578  1.0000
  O   O35       1.0  0.76071  0.09117  0.51522  1.0000
  H   H81       1.0  0.75611  0.08373  0.57840  1.0000
  O   O36       1.0  0.67729  0.09424  0.43202  1.0000
  H   H82       1.0  0.67277  0.10269  0.49472  1.0000
  N   N11       1.0  0.64295  0.01728  0.34791  1.0000
  H   H83       1.0  0.64287  0.01710  0.28306  1.0000
  N   N12       1.0  0.81498  0.01153  0.50127  1.0000
  H   H84       1.0  0.81908  0.98409  0.53677  1.0000
  Si  Si4       1.0  0.01063  0.00177  0.05536  1.0000
  C   C121      1.0  0.00282  0.95383  0.11217  1.0000
  C   C122      1.0  0.51845  0.53886  0.13786  1.0000
  C   C123      1.0  0.98299  0.54552  0.20032  1.0000
  C   C124      1.0  0.99006  0.57040  0.27888  1.0000
  C   C125      1.0  0.53231  0.59143  0.29677  1.0000
  C   C126      1.0  0.56765  0.58517  0.23404  1.0000
  C   C127      1.0  0.56115  0.55874  0.15698  1.0000
  C   C128      1.0  0.53976  0.93472  0.15906  1.0000
  C   C129      1.0  0.53294  0.89972  0.22134  1.0000
  C   C130      1.0  0.98896  0.88245  0.23960  1.0000
  C   C131      1.0  0.95216  0.90150  0.19221  1.0000
  C   C132      1.0  0.95882  0.93667  0.13044  1.0000
  H   H85       1.0  0.96380  0.57272  0.32326  1.0000
  H   H86       1.0  0.95174  0.53083  0.19149  1.0000
  H   H87       1.0  0.59928  0.59845  0.24519  1.0000
  H   H88       1.0  0.58871  0.55306  0.11724  1.0000
  H   H89       1.0  0.57202  0.94734  0.15157  1.0000
  H   H90       1.0  0.56058  0.88872  0.25612  1.0000
  H   H91       1.0  0.91962  0.89049  0.20304  1.0000
  H   H92       1.0  0.93051  0.95075  0.10261  1.0000
  H   H93       1.0  0.95942  0.58427  0.02753  1.0000
  C   C133      1.0  0.53939  0.61588  0.37753  1.0000
  C   C134      1.0  0.98093  0.84667  0.30191  1.0000
  C   C135      1.0  0.50278  0.77387  0.35881  1.0000
  C   C136      1.0  0.97590  0.69624  0.33147  1.0000
  C   C137      1.0  0.47802  0.74236  0.30650  1.0000
  O   O37       1.0  0.95202  0.66637  0.28015  1.0000
  O   O38       1.0  0.45823  0.75525  0.22852  1.0000
  H   H94       1.0  0.96807  0.66378  0.22295  1.0000
  H   H95       1.0  0.48212  0.75415  0.18285  1.0000
  N   N13       1.0  0.51296  0.81576  0.32568  1.0000
  H   H96       1.0  0.54342  0.81832  0.30133  1.0000
  O   O39       1.0  0.78177  0.43862  0.40414  1.0000
  O   O40       1.0  0.69675  0.44047  0.33251  1.0000
  H   H97       1.0  0.80227  0.44389  0.35348  1.0000
  H   H98       1.0  0.70464  0.44460  0.26944  1.0000
  C   C138      1.0  0.59800  0.99503  0.47936  1.0000
  C   C139      1.0  0.58391  0.95467  0.52191  1.0000
  C   C140      1.0  0.56196  0.95610  0.60516  1.0000
  C   C141      1.0  0.55233  0.99806  0.64743  1.0000
  C   C142      1.0  0.56763  0.53828  0.60507  1.0000
  C   C143      1.0  0.59085  0.53663  0.52347  1.0000
  C   C144      1.0  0.96632  0.51456  0.65797  1.0000
  C   C145      1.0  0.94706  0.55854  0.65530  1.0000
  C   C146      1.0  0.90987  0.56807  0.59951  1.0000
  C   C147      1.0  0.89084  0.53382  0.54514  1.0000
  C   C148      1.0  0.91161  0.99073  0.54362  1.0000
  C   C149      1.0  0.94917  0.98152  0.59801  1.0000
  H   H99       1.0  0.96255  0.94951  0.59533  1.0000
  H   H100      1.0  0.89932  0.96545  0.50339  1.0000
  H   H101      1.0  0.89563  0.59969  0.60184  1.0000
  H   H102      1.0  0.55860  0.56965  0.62847  1.0000
  H   H103      1.0  0.54901  0.92624  0.62919  1.0000
  H   H104      1.0  0.58621  0.92420  0.48942  1.0000
  C   C150      1.0  0.85022  0.54158  0.49714  1.0000
  H   H105      1.0  0.59752  0.56647  0.49197  1.0000
  C   C151      1.0  0.60772  0.99486  0.38703  1.0000
  O   O41       1.0  0.93822  0.84075  0.33381  1.0000
  O   O42       1.0  0.58078  0.63504  0.39121  1.0000
  O   O43       1.0  0.84771  0.57980  0.44732  1.0000
  O   O44       1.0  0.57152  0.98522  0.33475  1.0000
  C   C152      1.0  0.52387  0.75913  0.43812  1.0000
  C   C153      1.0  0.02118  0.71314  0.46386  1.0000
  C   C154      1.0  0.99879  0.68093  0.40863  1.0000
  O   O45       1.0  0.04513  0.69939  0.53647  1.0000
  H   H106      1.0  0.02377  0.70023  0.58673  1.0000
  O   O46       1.0  0.54972  0.78834  0.48702  1.0000
  H   H107      1.0  0.52847  0.80562  0.52427  1.0000
  N   N14       1.0  0.00390  0.63498  0.42152  1.0000
  H   H108      1.0  0.00402  0.62733  0.48459  1.0000
  C   C155      1.0  0.68501  0.51673  0.38577  1.0000
  C   C156      1.0  0.70238  0.55542  0.43002  1.0000
  C   C157      1.0  0.74630  0.55435  0.46808  1.0000
  C   C158      1.0  0.77394  0.51528  0.45934  1.0000
  C   C159      1.0  0.75660  0.47708  0.41295  1.0000
  C   C160      1.0  0.71270  0.47792  0.37578  1.0000
  O   O47       1.0  0.76071  0.59117  0.51522  1.0000
  H   H109      1.0  0.75611  0.58373  0.57840  1.0000
  O   O48       1.0  0.67729  0.59424  0.43202  1.0000
  H   H110      1.0  0.67277  0.60269  0.49472  1.0000
  N   N15       1.0  0.64296  0.51728  0.34791  1.0000
  H   H111      1.0  0.64287  0.51710  0.28306  1.0000
  N   N16       1.0  0.81498  0.51153  0.50127  1.0000
  H   H112      1.0  0.81908  0.48409  0.53677  1.0000
