data_image0
_chemical_formula_structural       C12H6CH2C2O2C12H6CH2C2O2C12H6CH2C2O2CNC2HNHNHCNC2HNHNHCNC2HNHNHCNC2HNHNHCNC2HNHNHCNC2HNHNHC12H6C2H2C2O2C12H6C2H2C2O2C12H6C2H2C2O2C4HC5HOHOHNHC4HC5HOHOHNHC4HC5HOHOHNHC4HC5HOHOHNHC4HC5HOHOHNHC4HC5HOHOHNH
_chemical_formula_sum              "C165 H96 O24 N24"
_cell_length_a       42.5765
_cell_length_b       42.5764
_cell_length_c       15.0679
_cell_angle_alpha    90
_cell_angle_beta     90
_cell_angle_gamma    120

_space_group_name_H-M_alt    "P 1"
_space_group_IT_number       1

loop_
  _space_group_symop_operation_xyz
  'x, y, z'

loop_
  _atom_site_type_symbol
  _atom_site_label
  _atom_site_symmetry_multiplicity
  _atom_site_fract_x
  _atom_site_fract_y
  _atom_site_fract_z
  _atom_site_occupancy
  C   C1        1.0  0.97241  0.50702  0.27341  1.0000
  C   C2        1.0  0.97381  0.50809  0.17910  1.0000
  C   C3        1.0  0.01955  0.48741  0.17923  1.0000
  C   C4        1.0  0.02085  0.48842  0.27354  1.0000
  C   C5        1.0  0.04665  0.48163  0.31606  1.0000
  C   C6        1.0  0.07077  0.47482  0.26668  1.0000
  C   C7        1.0  0.06720  0.47167  0.17362  1.0000
  C   C8        1.0  0.04175  0.47782  0.13032  1.0000
  C   C9        1.0  0.95163  0.51767  0.13005  1.0000
  C   C10       1.0  0.92615  0.52380  0.17320  1.0000
  C   C11       1.0  0.92249  0.52062  0.26624  1.0000
  C   C12       1.0  0.94658  0.51382  0.31578  1.0000
  H   H1        1.0  0.05026  0.56430  0.27314  1.0000
  H   H2        1.0  0.94293  0.43120  0.27254  1.0000
  H   H3        1.0  0.08425  0.46662  0.13615  1.0000
  H   H4        1.0  0.04097  0.47715  0.06242  1.0000
  H   H5        1.0  0.95252  0.51842  0.06217  1.0000
  H   H6        1.0  0.90918  0.52894  0.13563  1.0000
  C   C13       1.0  0.99670  0.49775  0.12764  1.0000
  H   H7        1.0  0.01452  0.52069  0.08517  1.0000
  H   H8        1.0  0.97890  0.47481  0.08512  1.0000
  C   C14       1.0  0.89235  0.51994  0.30714  1.0000
  C   C15       1.0  0.10092  0.47560  0.30772  1.0000
  O   O1        1.0  0.09680  0.64296  0.28695  1.0000
  O   O2        1.0  0.89623  0.35214  0.28689  1.0000
  C   C16       1.0  0.48734  0.46422  0.27358  1.0000
  C   C17       1.0  0.48630  0.46450  0.17926  1.0000
  C   C18       1.0  0.50693  0.53090  0.17908  1.0000
  C   C19       1.0  0.50594  0.53126  0.27340  1.0000
  C   C20       1.0  0.51276  0.56390  0.31576  1.0000
  C   C21       1.0  0.51955  0.59478  0.26622  1.0000
  C   C22       1.0  0.52270  0.59430  0.17316  1.0000
  C   C23       1.0  0.51650  0.56266  0.13002  1.0000
  C   C24       1.0  0.47674  0.43270  0.13037  1.0000
  C   C25       1.0  0.47063  0.40112  0.17369  1.0000
  C   C26       1.0  0.47378  0.40071  0.26675  1.0000
  C   C27       1.0  0.48055  0.43162  0.31612  1.0000
  H   H9        1.0  0.43012  0.48490  0.27274  1.0000
  H   H10       1.0  0.56320  0.51067  0.27291  1.0000
  H   H11       1.0  0.52776  0.61637  0.13557  1.0000
  H   H12       1.0  0.51721  0.56250  0.06213  1.0000
  H   H13       1.0  0.47601  0.43279  0.06248  1.0000
  H   H14       1.0  0.46555  0.37901  0.13624  1.0000
  C   C28       1.0  0.49660  0.49767  0.12766  1.0000
  H   H15       1.0  0.47365  0.49251  0.08518  1.0000
  H   H16       1.0  0.51953  0.50280  0.08513  1.0000
  C   C29       1.0  0.47458  0.37135  0.30783  1.0000
  C   C30       1.0  0.51885  0.62423  0.30707  1.0000
  O   O3        1.0  0.35112  0.45250  0.28717  1.0000
  O   O4        1.0  0.64200  0.54283  0.28697  1.0000
  C   C31       1.0  0.53016  0.02194  0.27345  1.0000
  C   C32       1.0  0.52986  0.02059  0.17914  1.0000
  C   C33       1.0  0.46347  0.97483  0.17904  1.0000
  C   C34       1.0  0.46312  0.97348  0.27334  1.0000
  C   C35       1.0  0.43050  0.94766  0.31574  1.0000
  C   C36       1.0  0.39960  0.92357  0.26625  1.0000
  C   C37       1.0  0.40007  0.92717  0.17319  1.0000
  C   C38       1.0  0.43171  0.95258  0.13000  1.0000
  C   C39       1.0  0.56166  0.04282  0.13020  1.0000
  C   C40       1.0  0.59326  0.06825  0.17347  1.0000
  C   C41       1.0  0.59365  0.07187  0.26651  1.0000
  C   C42       1.0  0.56276  0.04775  0.31596  1.0000
  H   H17       1.0  0.50954  0.94406  0.27311  1.0000
  H   H18       1.0  0.48377  0.05138  0.27241  1.0000
  H   H19       1.0  0.37799  0.91015  0.13562  1.0000
  H   H20       1.0  0.43184  0.95345  0.06211  1.0000
  H   H21       1.0  0.56156  0.04195  0.06232  1.0000
  H   H22       1.0  0.61536  0.08529  0.13597  1.0000
  C   C43       1.0  0.49668  0.99770  0.12756  1.0000
  H   H23       1.0  0.50185  0.97991  0.08511  1.0000
  H   H24       1.0  0.49154  0.01549  0.08502  1.0000
  C   C44       1.0  0.62305  0.10203  0.30749  1.0000
  C   C45       1.0  0.37016  0.89343  0.30717  1.0000
  O   O5        1.0  0.54162  0.89749  0.28692  1.0000
  O   O6        1.0  0.45138  0.09806  0.28677  1.0000
  C   C46       1.0  0.31515  0.49849  0.28806  1.0000
  N   N1        1.0  0.28360  0.49856  0.27834  1.0000
  C   C47       1.0  0.18892  0.49863  0.22850  1.0000
  C   C48       1.0  0.16528  0.49661  0.29675  1.0000
  H   H25       1.0  0.32962  0.49973  0.23281  1.0000
  N   N2        1.0  0.21990  0.49877  0.24835  1.0000
  H   H26       1.0  0.18280  0.49948  0.16328  1.0000
  N   N3        1.0  0.13475  0.49744  0.27422  1.0000
  H   H27       1.0  0.13714  0.51302  0.22401  1.0000
  C   C49       1.0  0.49601  0.81564  0.28877  1.0000
  N   N4        1.0  0.49587  0.78400  0.27879  1.0000
  C   C50       1.0  0.49584  0.68929  0.22821  1.0000
  C   C51       1.0  0.49783  0.66759  0.29629  1.0000
  H   H28       1.0  0.49478  0.82892  0.23361  1.0000
  N   N5        1.0  0.49565  0.72009  0.24829  1.0000
  H   H29       1.0  0.49503  0.68241  0.16294  1.0000
  N   N6        1.0  0.49708  0.63629  0.27352  1.0000
  H   H30       1.0  0.48160  0.62320  0.22307  1.0000
  C   C52       1.0  0.17867  0.67923  0.28873  1.0000
  N   N7        1.0  0.21031  0.71073  0.27876  1.0000
  C   C53       1.0  0.30505  0.80538  0.22825  1.0000
  C   C54       1.0  0.32674  0.82907  0.29635  1.0000
  H   H31       1.0  0.16540  0.66471  0.23356  1.0000
  N   N8        1.0  0.27423  0.77440  0.24831  1.0000
  H   H32       1.0  0.31194  0.81145  0.16298  1.0000
  N   N9        1.0  0.35806  0.85959  0.27360  1.0000
  H   H33       1.0  0.37117  0.85718  0.22324  1.0000
  C   C55       1.0  0.67799  0.49694  0.28819  1.0000
  N   N10       1.0  0.70953  0.49686  0.27831  1.0000
  C   C56       1.0  0.80427  0.49695  0.22799  1.0000
  C   C57       1.0  0.82796  0.49900  0.29613  1.0000
  H   H34       1.0  0.66348  0.49566  0.23301  1.0000
  N   N11       1.0  0.77327  0.49674  0.24799  1.0000
  H   H35       1.0  0.81035  0.49611  0.16273  1.0000
  N   N12       1.0  0.85853  0.49828  0.27337  1.0000
  H   H36       1.0  0.85615  0.48275  0.22303  1.0000
  C   C58       1.0  0.49747  0.18000  0.28770  1.0000
  N   N13       1.0  0.49753  0.21161  0.27806  1.0000
  C   C59       1.0  0.49759  0.30638  0.22846  1.0000
  C   C60       1.0  0.49554  0.32796  0.29676  1.0000
  H   H37       1.0  0.49874  0.16680  0.23241  1.0000
  N   N14       1.0  0.49773  0.27553  0.24823  1.0000
  H   H38       1.0  0.49847  0.31338  0.16325  1.0000
  N   N15       1.0  0.49639  0.35933  0.27429  1.0000
  H   H39       1.0  0.51199  0.37255  0.22411  1.0000
  C   C61       1.0  0.81433  0.31632  0.28776  1.0000
  N   N16       1.0  0.78272  0.28477  0.27806  1.0000
  C   C62       1.0  0.68801  0.19004  0.22827  1.0000
  C   C63       1.0  0.66638  0.16641  0.29654  1.0000
  H   H40       1.0  0.82755  0.33078  0.23248  1.0000
  N   N17       1.0  0.71883  0.22104  0.24811  1.0000
  H   H41       1.0  0.68105  0.18391  0.16306  1.0000
  N   N18       1.0  0.63505  0.13586  0.27399  1.0000
  H   H42       1.0  0.62190  0.13823  0.22363  1.0000
  C   C64       1.0  0.97252  0.46405  0.38197  1.0000
  C   C65       1.0  0.97431  0.46424  0.47623  1.0000
  C   C66       1.0  0.01867  0.53095  0.47652  1.0000
  C   C67       1.0  0.02059  0.53127  0.38226  1.0000
  C   C68       1.0  0.04000  0.56287  0.52584  1.0000
  C   C69       1.0  0.06553  0.59456  0.48321  1.0000
  C   C70       1.0  0.07022  0.59484  0.39055  1.0000
  C   C71       1.0  0.04665  0.56393  0.34038  1.0000
  C   C72       1.0  0.94654  0.43144  0.33976  1.0000
  C   C73       1.0  0.92284  0.40049  0.38964  1.0000
  C   C74       1.0  0.92741  0.40064  0.48232  1.0000
  C   C75       1.0  0.95294  0.43226  0.52526  1.0000
  H   H43       1.0  0.91055  0.37854  0.52007  1.0000
  H   H44       1.0  0.95406  0.43234  0.59312  1.0000
  H   H45       1.0  0.03870  0.56271  0.59368  1.0000
  H   H46       1.0  0.08224  0.61666  0.52114  1.0000
  H   H47       1.0  0.04951  0.48412  0.38358  1.0000
  H   H48       1.0  0.94363  0.51126  0.38327  1.0000
  C   C76       1.0  0.99659  0.49769  0.32778  1.0000
  C   C77       1.0  0.99645  0.49756  0.52789  1.0000
  H   H49       1.0  0.97818  0.50201  0.57035  1.0000
  H   H50       1.0  0.01468  0.49306  0.57042  1.0000
  C   C78       1.0  0.10151  0.62374  0.35193  1.0000
  C   C79       1.0  0.89151  0.37175  0.35076  1.0000
  O   O7        1.0  0.09436  0.45193  0.37474  1.0000
  O   O8        1.0  0.89890  0.54338  0.37470  1.0000
  C   C80       1.0  0.53024  0.50734  0.38216  1.0000
  C   C81       1.0  0.52996  0.50893  0.47642  1.0000
  C   C82       1.0  0.46327  0.48664  0.47634  1.0000
  C   C83       1.0  0.46302  0.48821  0.38208  1.0000
  C   C84       1.0  0.43132  0.47612  0.52547  1.0000
  C   C85       1.0  0.39967  0.46997  0.48262  1.0000
  C   C86       1.0  0.39947  0.47434  0.38993  1.0000
  C   C87       1.0  0.43039  0.48158  0.33996  1.0000
  C   C88       1.0  0.56287  0.51392  0.34015  1.0000
  C   C89       1.0  0.59380  0.52124  0.39020  1.0000
  C   C90       1.0  0.59357  0.52562  0.48288  1.0000
  C   C91       1.0  0.56189  0.51946  0.52563  1.0000
  H   H51       1.0  0.61566  0.53094  0.52076  1.0000
  H   H52       1.0  0.56178  0.52061  0.59348  1.0000
  H   H53       1.0  0.43140  0.47497  0.59332  1.0000
  H   H54       1.0  0.37756  0.46467  0.52042  1.0000
  H   H55       1.0  0.51024  0.56429  0.38325  1.0000
  H   H56       1.0  0.48309  0.43127  0.38362  1.0000
  C   C92       1.0  0.49663  0.49776  0.32779  1.0000
  C   C93       1.0  0.49660  0.49778  0.52790  1.0000
  H   H57       1.0  0.49209  0.47504  0.57040  1.0000
  H   H58       1.0  0.50110  0.52052  0.57039  1.0000
  C   C94       1.0  0.37069  0.47685  0.35104  1.0000
  C   C95       1.0  0.62262  0.51875  0.35151  1.0000
  O   O9        1.0  0.54224  0.64110  0.37475  1.0000
  O   O10       1.0  0.45087  0.35421  0.37475  1.0000
  C   C96       1.0  0.48700  0.02178  0.38186  1.0000
  C   C97       1.0  0.48536  0.01997  0.47612  1.0000
  C   C98       1.0  0.50774  0.97563  0.47646  1.0000
  C   C99       1.0  0.50618  0.97373  0.38221  1.0000
  C   C100      1.0  0.51833  0.95431  0.52581  1.0000
  C   C101      1.0  0.52457  0.92882  0.48319  1.0000
  C   C102      1.0  0.52013  0.92411  0.39055  1.0000
  C   C103      1.0  0.51282  0.94769  0.34034  1.0000
  C   C104      1.0  0.48039  0.04777  0.33962  1.0000
  C   C105      1.0  0.47313  0.07146  0.38951  1.0000
  C   C106      1.0  0.46870  0.06690  0.48219  1.0000
  C   C107      1.0  0.47475  0.04135  0.52514  1.0000
  H   H59       1.0  0.46343  0.08374  0.51993  1.0000
  H   H60       1.0  0.47369  0.04022  0.59300  1.0000
  H   H61       1.0  0.51945  0.95560  0.59365  1.0000
  H   H62       1.0  0.52986  0.91207  0.52119  1.0000
  H   H63       1.0  0.43009  0.94478  0.38325  1.0000
  H   H64       1.0  0.56308  0.05069  0.38344  1.0000
  C   C108      1.0  0.49661  0.99773  0.32770  1.0000
  C   C109      1.0  0.49654  0.99783  0.52781  1.0000
  H   H65       1.0  0.51926  0.01611  0.57029  1.0000
  H   H66       1.0  0.47380  0.97960  0.57031  1.0000
  C   C110      1.0  0.51773  0.89281  0.35195  1.0000
  C   C111      1.0  0.47572  0.10278  0.35061  1.0000
  O   O11       1.0  0.35322  0.90000  0.37458  1.0000
  O   O12       1.0  0.64001  0.09552  0.37498  1.0000
  C   C112      1.0  0.32808  0.49793  0.37379  1.0000
  C   C113      1.0  0.26299  0.49789  0.34802  1.0000
  C   C114      1.0  0.27443  0.49737  0.43618  1.0000
  C   C115      1.0  0.30754  0.49782  0.44756  1.0000
  H   H67       1.0  0.31674  0.49757  0.51018  1.0000
  C   C116      1.0  0.23032  0.49767  0.33283  1.0000
  C   C117      1.0  0.17558  0.49585  0.38551  1.0000
  C   C118      1.0  0.20832  0.49644  0.40515  1.0000
  C   C119      1.0  0.21984  0.49605  0.49309  1.0000
  C   C120      1.0  0.25284  0.49661  0.50857  1.0000
  H   H68       1.0  0.15958  0.49597  0.43596  1.0000
  O   O13       1.0  0.19902  0.49405  0.56389  1.0000
  H   H69       1.0  0.20730  0.51921  0.58179  1.0000
  O   O14       1.0  0.26272  0.49513  0.59379  1.0000
  H   H70       1.0  0.27718  0.52041  0.61390  1.0000
  N   N19       1.0  0.36030  0.49942  0.38804  1.0000
  H   H71       1.0  0.37486  0.51506  0.43687  1.0000
  C   C121      1.0  0.49661  0.82907  0.37460  1.0000
  C   C122      1.0  0.49649  0.76395  0.34830  1.0000
  C   C123      1.0  0.49702  0.77584  0.43655  1.0000
  C   C124      1.0  0.49667  0.80853  0.44820  1.0000
  H   H72       1.0  0.49695  0.81792  0.51089  1.0000
  C   C125      1.0  0.49669  0.73150  0.33286  1.0000
  C   C126      1.0  0.49848  0.67852  0.38514  1.0000
  C   C127      1.0  0.49788  0.71065  0.40502  1.0000
  C   C128      1.0  0.49824  0.72246  0.49305  1.0000
  C   C129      1.0  0.49773  0.75491  0.50878  1.0000
  H   H73       1.0  0.49834  0.66235  0.43547  1.0000
  O   O15       1.0  0.50021  0.70355  0.56370  1.0000
  H   H74       1.0  0.47504  0.68666  0.58153  1.0000
  O   O16       1.0  0.49922  0.76618  0.59409  1.0000
  H   H75       1.0  0.47394  0.75540  0.61418  1.0000
  N   N20       1.0  0.49528  0.85986  0.38921  1.0000
  H   H76       1.0  0.47978  0.85885  0.43832  1.0000
  C   C130      1.0  0.16524  0.66638  0.37455  1.0000
  C   C131      1.0  0.23035  0.73140  0.34829  1.0000
  C   C132      1.0  0.21845  0.72004  0.43653  1.0000
  C   C133      1.0  0.18577  0.68699  0.44816  1.0000
  H   H77       1.0  0.17637  0.67787  0.51084  1.0000
  C   C134      1.0  0.26280  0.76404  0.33287  1.0000
  C   C135      1.0  0.31579  0.81880  0.38518  1.0000
  C   C136      1.0  0.28365  0.78608  0.40505  1.0000
  C   C137      1.0  0.27182  0.77463  0.49307  1.0000
  C   C138      1.0  0.23937  0.74167  0.50877  1.0000
  H   H78       1.0  0.33196  0.83483  0.43552  1.0000
  O   O17       1.0  0.29073  0.79551  0.56373  1.0000
  H   H79       1.0  0.30761  0.78722  0.58157  1.0000
  O   O18       1.0  0.22809  0.73189  0.59408  1.0000
  H   H80       1.0  0.23888  0.71739  0.61417  1.0000
  N   N21       1.0  0.13446  0.63425  0.38914  1.0000
  H   H81       1.0  0.13549  0.61976  0.43822  1.0000
  C   C139      1.0  0.66515  0.49757  0.37398  1.0000
  C   C140      1.0  0.73021  0.49756  0.34788  1.0000
  C   C141      1.0  0.71883  0.49812  0.43609  1.0000
  C   C142      1.0  0.68575  0.49770  0.44765  1.0000
  H   H82       1.0  0.67661  0.49797  0.51031  1.0000
  C   C143      1.0  0.76288  0.49782  0.33252  1.0000
  C   C144      1.0  0.81770  0.49973  0.38494  1.0000
  C   C145      1.0  0.78494  0.49909  0.40474  1.0000
  C   C146      1.0  0.77348  0.49948  0.49274  1.0000
  C   C147      1.0  0.74048  0.49891  0.50838  1.0000
  H   H83       1.0  0.83373  0.49962  0.43532  1.0000
  O   O19       1.0  0.79438  0.50154  0.56343  1.0000
  H   H84       1.0  0.78613  0.47639  0.58139  1.0000
  O   O20       1.0  0.73068  0.50043  0.59365  1.0000
  H   H85       1.0  0.71623  0.47515  0.61383  1.0000
  N   N22       1.0  0.63297  0.49613  0.38844  1.0000
  H   H86       1.0  0.61845  0.48059  0.43744  1.0000
  C   C148      1.0  0.49688  0.16646  0.37339  1.0000
  C   C149      1.0  0.49683  0.23152  0.34779  1.0000
  C   C150      1.0  0.49628  0.21951  0.43591  1.0000
  C   C151      1.0  0.49674  0.18686  0.44722  1.0000
  H   H87       1.0  0.49648  0.17738  0.50981  1.0000
  C   C152      1.0  0.49660  0.26397  0.33268  1.0000
  C   C153      1.0  0.49474  0.31686  0.38550  1.0000
  C   C154      1.0  0.49533  0.28469  0.40506  1.0000
  C   C155      1.0  0.49491  0.27274  0.49296  1.0000
  C   C156      1.0  0.49547  0.24029  0.50836  1.0000
  H   H88       1.0  0.49484  0.33295  0.43598  1.0000
  O   O21       1.0  0.49287  0.29152  0.56381  1.0000
  H   H89       1.0  0.51803  0.30840  0.58177  1.0000
  O   O22       1.0  0.49397  0.22890  0.59355  1.0000
  H   H90       1.0  0.51925  0.23973  0.61372  1.0000
  N   N23       1.0  0.49838  0.13574  0.38757  1.0000
  H   H91       1.0  0.51399  0.13675  0.43636  1.0000
  C   C157      1.0  0.82782  0.32928  0.37348  1.0000
  C   C158      1.0  0.76277  0.26416  0.34776  1.0000
  C   C159      1.0  0.77474  0.27563  0.43590  1.0000
  C   C160      1.0  0.80739  0.30873  0.44726  1.0000
  H   H92       1.0  0.81685  0.31795  0.50987  1.0000
  C   C161      1.0  0.73034  0.23148  0.33258  1.0000
  C   C162      1.0  0.67742  0.17674  0.38530  1.0000
  C   C163      1.0  0.70957  0.20949  0.40492  1.0000
  C   C164      1.0  0.72148  0.22103  0.49286  1.0000
  C   C165      1.0  0.75392  0.25404  0.50831  1.0000
  H   H93       1.0  0.66131  0.16074  0.43575  1.0000
  O   O23       1.0  0.70267  0.20020  0.56366  1.0000
  H   H94       1.0  0.68578  0.20847  0.58156  1.0000
  O   O24       1.0  0.76528  0.26392  0.59353  1.0000
  H   H95       1.0  0.75446  0.27838  0.61365  1.0000
  N   N24       1.0  0.85856  0.36147  0.38770  1.0000
  H   H96       1.0  0.85756  0.37608  0.43650  1.0000
