data_image0
_chemical_formula_structural       C3H2C3H2C5NCONH2C5NCONH2C5NCONH2C2H2C2H2C2H2C18H11C24H15C24H15C24H15C2H2C2H2C2H2C5NCONH2C5NCONH2C5NCONH2
_chemical_formula_sum              "C144 H84 N12 O6"
_cell_length_a       45.8137
_cell_length_b       45.8138
_cell_length_c       14.9408
_cell_angle_alpha    90
_cell_angle_beta     90
_cell_angle_gamma    120

_space_group_name_H-M_alt    "P 1"
_space_group_IT_number       1

loop_
  _space_group_symop_operation_xyz
  'x, y, z'

loop_
  _atom_site_type_symbol
  _atom_site_label
  _atom_site_symmetry_multiplicity
  _atom_site_fract_x
  _atom_site_fract_y
  _atom_site_fract_z
  _atom_site_occupancy
  C   C1        1.0  0.01299  0.03399  0.35285  1.0000
  C   C2        1.0  0.03162  0.01691  0.35084  1.0000
  C   C3        1.0  0.01295  0.98122  0.34522  1.0000
  H   H1        1.0  0.02568  0.05957  0.36135  1.0000
  H   H2        1.0  0.02576  0.96830  0.34439  1.0000
  C   C4        1.0  0.06802  0.03514  0.35076  1.0000
  C   C5        1.0  0.08650  0.06645  0.30557  1.0000
  C   C6        1.0  0.08705  0.02221  0.39235  1.0000
  H   H3        1.0  0.07528  0.00018  0.42776  1.0000
  H   H4        1.0  0.07430  0.07678  0.27245  1.0000
  C   C7        1.0  0.24869  0.12531  0.32522  1.0000
  C   C8        1.0  0.22987  0.11534  0.24369  1.0000
  C   C9        1.0  0.19381  0.09467  0.24600  1.0000
  C   C10       1.0  0.17640  0.08628  0.32977  1.0000
  C   C11       1.0  0.17746  0.08303  0.16191  1.0000
  N   N1        1.0  0.19504  0.09330  0.08458  1.0000
  C   C12       1.0  0.22853  0.11489  0.08372  1.0000
  O   O1        1.0  0.14448  0.05989  0.15197  1.0000
  N   N2        1.0  0.24556  0.12554  0.16203  1.0000
  H   H5        1.0  0.24084  0.12241  0.02374  1.0000
  H   H6        1.0  0.26962  0.14127  0.15753  1.0000
  C   C13       1.0  0.86790  0.12423  0.32060  1.0000
  C   C14       1.0  0.87138  0.10933  0.24029  1.0000
  C   C15       1.0  0.88897  0.09071  0.24181  1.0000
  C   C16       1.0  0.90328  0.08740  0.32351  1.0000
  C   C17       1.0  0.89006  0.07549  0.15980  1.0000
  N   N3        1.0  0.87571  0.07920  0.08487  1.0000
  C   C18       1.0  0.85976  0.09719  0.08451  1.0000
  O   O2        1.0  0.90346  0.05525  0.15016  1.0000
  N   N4        1.0  0.85726  0.11152  0.16128  1.0000
  H   H7        1.0  0.84891  0.09903  0.02658  1.0000
  H   H8        1.0  0.84436  0.12306  0.15789  1.0000
  C   C19       1.0  0.86946  0.74554  0.31253  1.0000
  C   C20       1.0  0.87763  0.76382  0.23015  1.0000
  C   C21       1.0  0.89294  0.79989  0.23082  1.0000
  C   C22       1.0  0.90247  0.81788  0.31370  1.0000
  C   C23       1.0  0.89699  0.81565  0.14611  1.0000
  N   N5        1.0  0.88913  0.79755  0.06959  1.0000
  C   C24       1.0  0.87727  0.76406  0.07016  1.0000
  O   O3        1.0  0.90674  0.84856  0.13481  1.0000
  N   N6        1.0  0.87153  0.74757  0.14918  1.0000
  H   H9        1.0  0.87204  0.75135  0.01073  1.0000
  H   H10       1.0  0.86323  0.72350  0.14570  1.0000
  C   C25       1.0  0.56083  0.15984  0.27447  1.0000
  C   C26       1.0  0.59169  0.16039  0.27351  1.0000
  H   H11       1.0  0.60804  0.17276  0.22202  1.0000
  H   H12       1.0  0.55609  0.17194  0.22372  1.0000
  C   C27       1.0  0.83380  0.40223  0.27397  1.0000
  C   C28       1.0  0.83322  0.43252  0.27327  1.0000
  H   H13       1.0  0.82088  0.43655  0.22180  1.0000
  H   H14       1.0  0.82175  0.38545  0.22305  1.0000
  C   C29       1.0  0.59186  0.43327  0.27464  1.0000
  C   C30       1.0  0.56160  0.40235  0.27383  1.0000
  H   H15       1.0  0.55764  0.38599  0.22239  1.0000
  H   H16       1.0  0.60868  0.43803  0.22383  1.0000
  C   C31       1.0  0.97741  0.01707  0.34538  1.0000
  C   C32       1.0  0.97726  0.96269  0.33963  1.0000
  C   C33       1.0  0.96031  0.98146  0.33812  1.0000
  C   C34       1.0  0.12194  0.08364  0.30113  1.0000
  C   C35       1.0  0.14049  0.06959  0.33865  1.0000
  C   C36       1.0  0.12249  0.03896  0.38624  1.0000
  C   C37       1.0  0.95938  0.03534  0.34281  1.0000
  C   C38       1.0  0.97233  0.06636  0.29619  1.0000
  C   C39       1.0  0.95431  0.08381  0.29138  1.0000
  C   C40       1.0  0.92221  0.07048  0.33142  1.0000
  C   C41       1.0  0.90939  0.04002  0.37985  1.0000
  C   C42       1.0  0.92766  0.02284  0.38537  1.0000
  C   C43       1.0  0.95887  0.92635  0.33425  1.0000
  C   C44       1.0  0.92698  0.90700  0.37607  1.0000
  C   C45       1.0  0.90850  0.87159  0.36941  1.0000
  C   C46       1.0  0.92127  0.85386  0.32112  1.0000
  C   C47       1.0  0.95367  0.87274  0.28260  1.0000
  C   C48       1.0  0.97176  0.90820  0.28770  1.0000
  H   H17       1.0  0.96436  0.10586  0.25591  1.0000
  H   H18       1.0  0.99475  0.07623  0.26266  1.0000
  H   H19       1.0  0.88634  0.02982  0.41037  1.0000
  H   H20       1.0  0.91744  0.00095  0.42149  1.0000
  H   H21       1.0  0.91678  0.91852  0.41288  1.0000
  H   H22       1.0  0.88537  0.85880  0.39952  1.0000
  H   H23       1.0  0.99431  0.92065  0.25483  1.0000
  H   H24       1.0  0.96398  0.86079  0.24803  1.0000
  H   H25       1.0  0.13506  0.02821  0.41543  1.0000
  H   H26       1.0  0.13409  0.10598  0.26694  1.0000
  H   H27       1.0  0.93480  0.96891  0.32835  1.0000
  C   C49       1.0  0.44803  0.25092  0.34357  1.0000
  C   C50       1.0  0.41249  0.23285  0.33681  1.0000
  C   C51       1.0  0.39378  0.19701  0.33714  1.0000
  C   C52       1.0  0.41219  0.17963  0.34231  1.0000
  C   C53       1.0  0.44777  0.19693  0.34767  1.0000
  C   C54       1.0  0.46509  0.23247  0.34706  1.0000
  C   C55       1.0  0.35745  0.17895  0.33471  1.0000
  C   C56       1.0  0.33836  0.19109  0.37974  1.0000
  C   C57       1.0  0.30287  0.17366  0.37662  1.0000
  C   C58       1.0  0.28481  0.14310  0.32870  1.0000
  C   C59       1.0  0.30360  0.13021  0.28618  1.0000
  C   C60       1.0  0.33910  0.14799  0.28807  1.0000
  C   C61       1.0  0.46718  0.28677  0.34957  1.0000
  C   C62       1.0  0.46548  0.30773  0.28272  1.0000
  C   C63       1.0  0.48836  0.34275  0.28274  1.0000
  C   C64       1.0  0.51310  0.35781  0.35049  1.0000
  C   C65       1.0  0.51413  0.33693  0.41857  1.0000
  C   C66       1.0  0.49139  0.30208  0.41848  1.0000
  C   C67       1.0  0.46672  0.18004  0.35477  1.0000
  C   C68       1.0  0.49206  0.19006  0.42098  1.0000
  C   C69       1.0  0.51489  0.17806  0.41990  1.0000
  C   C70       1.0  0.51268  0.15501  0.35371  1.0000
  C   C71       1.0  0.48680  0.14415  0.28889  1.0000
  C   C72       1.0  0.46395  0.15631  0.28979  1.0000
  H   H28       1.0  0.48752  0.35708  0.23135  1.0000
  H   H29       1.0  0.44901  0.29742  0.23040  1.0000
  H   H30       1.0  0.53234  0.34671  0.46711  1.0000
  H   H31       1.0  0.49361  0.28773  0.46763  1.0000
  H   H32       1.0  0.49516  0.20750  0.46844  1.0000
  H   H33       1.0  0.53392  0.18726  0.46621  1.0000
  H   H34       1.0  0.44668  0.14937  0.23918  1.0000
  H   H35       1.0  0.48518  0.12823  0.23864  1.0000
  H   H36       1.0  0.35142  0.13815  0.25333  1.0000
  H   H37       1.0  0.29150  0.10787  0.25203  1.0000
  H   H38       1.0  0.29025  0.18369  0.40922  1.0000
  H   H39       1.0  0.35011  0.21275  0.41671  1.0000
  H   H40       1.0  0.40015  0.24625  0.33288  1.0000
  H   H41       1.0  0.49094  0.24534  0.34877  1.0000
  H   H42       1.0  0.39957  0.15388  0.34603  1.0000
  C   C73       1.0  0.74309  0.19825  0.34196  1.0000
  C   C74       1.0  0.76120  0.18083  0.33471  1.0000
  C   C75       1.0  0.79703  0.19807  0.33382  1.0000
  C   C76       1.0  0.81442  0.23386  0.33844  1.0000
  C   C77       1.0  0.79707  0.25206  0.34494  1.0000
  C   C78       1.0  0.76151  0.23377  0.34526  1.0000
  C   C79       1.0  0.81508  0.17987  0.33114  1.0000
  C   C80       1.0  0.80391  0.14966  0.38044  1.0000
  C   C81       1.0  0.82132  0.13159  0.37742  1.0000
  C   C82       1.0  0.85069  0.14303  0.32486  1.0000
  C   C83       1.0  0.86253  0.17357  0.27725  1.0000
  C   C84       1.0  0.84491  0.19146  0.27986  1.0000
  C   C85       1.0  0.70725  0.18148  0.34841  1.0000
  C   C86       1.0  0.68623  0.15881  0.28166  1.0000
  C   C87       1.0  0.65121  0.14667  0.28193  1.0000
  C   C88       1.0  0.63620  0.15630  0.34993  1.0000
  C   C89       1.0  0.65715  0.17821  0.41793  1.0000
  C   C90       1.0  0.69200  0.19034  0.41759  1.0000
  C   C91       1.0  0.81389  0.28790  0.35246  1.0000
  C   C92       1.0  0.80391  0.30306  0.41922  1.0000
  C   C93       1.0  0.81583  0.33787  0.41873  1.0000
  C   C94       1.0  0.83877  0.35888  0.35256  1.0000
  C   C95       1.0  0.84962  0.34402  0.28722  1.0000
  C   C96       1.0  0.83752  0.30901  0.28752  1.0000
  H   H43       1.0  0.63684  0.13150  0.23062  1.0000
  H   H44       1.0  0.69651  0.15270  0.22916  1.0000
  H   H45       1.0  0.64741  0.18664  0.46657  1.0000
  H   H46       1.0  0.70640  0.20696  0.46658  1.0000
  H   H47       1.0  0.78653  0.28860  0.46670  1.0000
  H   H48       1.0  0.80659  0.34756  0.46534  1.0000
  H   H49       1.0  0.84450  0.29882  0.23664  1.0000
  H   H50       1.0  0.86550  0.35844  0.23705  1.0000
  H   H51       1.0  0.85388  0.21289  0.24215  1.0000
  H   H52       1.0  0.88386  0.18274  0.23899  1.0000
  H   H53       1.0  0.81210  0.10970  0.41328  1.0000
  H   H54       1.0  0.78304  0.14059  0.42041  1.0000
  H   H55       1.0  0.74790  0.15507  0.33140  1.0000
  H   H56       1.0  0.74861  0.24669  0.34751  1.0000
  H   H57       1.0  0.84020  0.24696  0.34108  1.0000
  C   C97       1.0  0.79565  0.54629  0.34213  1.0000
  C   C98       1.0  0.81310  0.58177  0.33351  1.0000
  C   C99       1.0  0.79601  0.60052  0.33301  1.0000
  C   C100      1.0  0.76023  0.58216  0.33927  1.0000
  C   C101      1.0  0.74195  0.54662  0.34642  1.0000
  C   C102      1.0  0.76016  0.52928  0.34655  1.0000
  C   C103      1.0  0.81430  0.63683  0.32838  1.0000
  C   C104      1.0  0.84585  0.65628  0.37167  1.0000
  C   C105      1.0  0.86394  0.69174  0.36635  1.0000
  C   C106      1.0  0.85117  0.70944  0.31785  1.0000
  C   C107      1.0  0.81920  0.69032  0.27707  1.0000
  C   C108      1.0  0.80144  0.65484  0.28110  1.0000
  C   C109      1.0  0.81236  0.52714  0.34841  1.0000
  C   C110      1.0  0.83485  0.52860  0.28137  1.0000
  C   C111      1.0  0.84696  0.50570  0.28171  1.0000
  C   C112      1.0  0.83738  0.48112  0.34986  1.0000
  C   C113      1.0  0.81560  0.48030  0.41805  1.0000
  C   C114      1.0  0.80356  0.50309  0.41773  1.0000
  C   C115      1.0  0.70611  0.52769  0.35397  1.0000
  C   C116      1.0  0.69087  0.50252  0.42065  1.0000
  C   C117      1.0  0.65606  0.47964  0.41994  1.0000
  C   C118      1.0  0.63512  0.48158  0.35355  1.0000
  C   C119      1.0  0.65006  0.50727  0.28820  1.0000
  C   C120      1.0  0.68506  0.53021  0.28882  1.0000
  H   H58       1.0  0.86207  0.50643  0.23029  1.0000
  H   H59       1.0  0.84099  0.54499  0.22888  1.0000
  H   H60       1.0  0.80717  0.46216  0.46677  1.0000
  H   H61       1.0  0.78706  0.50098  0.46694  1.0000
  H   H62       1.0  0.70528  0.49964  0.46835  1.0000
  H   H63       1.0  0.64631  0.46075  0.46663  1.0000
  H   H64       1.0  0.69530  0.54732  0.23783  1.0000
  H   H65       1.0  0.63569  0.50873  0.23787  1.0000
  H   H66       1.0  0.77903  0.64226  0.24755  1.0000
  H   H67       1.0  0.80873  0.70214  0.24266  1.0000
  H   H68       1.0  0.88680  0.70459  0.39784  1.0000
  H   H69       1.0  0.85598  0.64484  0.40906  1.0000
  H   H70       1.0  0.83881  0.59406  0.32872  1.0000
  H   H71       1.0  0.74717  0.50346  0.34928  1.0000
  H   H72       1.0  0.74713  0.59481  0.34232  1.0000
  C   C121      1.0  0.19559  0.09713  0.40928  1.0000
  C   C122      1.0  0.23090  0.11575  0.40709  1.0000
  H   H73       1.0  0.24360  0.12230  0.46678  1.0000
  H   H74       1.0  0.18395  0.09173  0.47048  1.0000
  C   C123      1.0  0.89902  0.10198  0.40209  1.0000
  C   C124      1.0  0.88164  0.11992  0.40073  1.0000
  H   H75       1.0  0.87959  0.13039  0.45930  1.0000
  H   H76       1.0  0.90905  0.10009  0.46163  1.0000
  C   C125      1.0  0.89488  0.79921  0.39404  1.0000
  C   C126      1.0  0.87833  0.76389  0.39352  1.0000
  H   H77       1.0  0.87268  0.75162  0.45382  1.0000
  H   H78       1.0  0.90150  0.81125  0.45467  1.0000
  C   C127      1.0  0.60170  0.14783  0.34645  1.0000
  C   C128      1.0  0.57892  0.13246  0.41931  1.0000
  C   C129      1.0  0.54727  0.13172  0.42000  1.0000
  C   C130      1.0  0.53870  0.14660  0.34823  1.0000
  C   C131      1.0  0.52587  0.11577  0.49458  1.0000
  N   N7        1.0  0.53554  0.10250  0.56121  1.0000
  C   C132      1.0  0.56565  0.10389  0.55997  1.0000
  O   O4        1.0  0.49432  0.11088  0.50232  1.0000
  N   N8        1.0  0.58677  0.11836  0.48970  1.0000
  H   H79       1.0  0.57188  0.09330  0.61135  1.0000
  H   H80       1.0  0.60762  0.11761  0.49038  1.0000
  C   C133      1.0  0.84576  0.45502  0.34634  1.0000
  C   C134      1.0  0.86111  0.44754  0.41914  1.0000
  C   C135      1.0  0.86187  0.41664  0.41957  1.0000
  C   C136      1.0  0.84705  0.39328  0.34759  1.0000
  C   C137      1.0  0.87780  0.41112  0.49408  1.0000
  N   N9        1.0  0.89102  0.43399  0.56091  1.0000
  C   C138      1.0  0.88960  0.46269  0.55991  1.0000
  O   O5        1.0  0.88274  0.38449  0.50159  1.0000
  N   N10       1.0  0.87519  0.46943  0.48967  1.0000
  H   H81       1.0  0.90016  0.47947  0.61142  1.0000
  H   H82       1.0  0.87592  0.49102  0.49056  1.0000
  C   C139      1.0  0.53908  0.39233  0.34686  1.0000
  C   C140      1.0  0.54644  0.41513  0.41964  1.0000
  C   C141      1.0  0.57730  0.44684  0.42015  1.0000
  C   C142      1.0  0.60072  0.45544  0.34831  1.0000
  C   C143      1.0  0.58271  0.46827  0.49463  1.0000
  N   N11       1.0  0.55978  0.45858  0.56132  1.0000
  C   C144      1.0  0.53114  0.42841  0.56028  1.0000
  O   O6        1.0  0.60924  0.49990  0.50211  1.0000
  N   N12       1.0  0.52451  0.40726  0.49007  1.0000
  H   H83       1.0  0.51431  0.42216  0.61166  1.0000
  H   H84       1.0  0.50295  0.38636  0.49088  1.0000
