data_image0
_chemical_formula_structural       C8H7NC8H7NC8H7NC8H7NC8H7NC8H7NC3N2O4CHC3N2O4CHC3N2O4CHC3H2CHC3H2CHC3H2CHC3H2CHC3H2CHC3H2CHC10H5C6H3N2C10H5C6H3N2C10H5C6H3N2C10H5C6H3N2C10H5C6H3N2C10H5C6H3N2C3H2CHC3H2CHC3H2CHC3N2O4CHC3N2O4CHC3N2O4CHC3N2O4CHC3N2O4CHC3N2O4CH
_chemical_formula_sum              "C216 H126 N36 O36"
_cell_length_a       77.8269
_cell_length_b       77.827
_cell_length_c       14.9204
_cell_angle_alpha    90
_cell_angle_beta     90
_cell_angle_gamma    120

_space_group_name_H-M_alt    "P 1"
_space_group_IT_number       1

loop_
  _space_group_symop_operation_xyz
  'x, y, z'

loop_
  _atom_site_type_symbol
  _atom_site_label
  _atom_site_symmetry_multiplicity
  _atom_site_fract_x
  _atom_site_fract_y
  _atom_site_fract_z
  _atom_site_occupancy
  C   C1        1.0  0.12124  0.56059  0.33236  1.0000
  C   C2        1.0  0.20027  0.54343  0.29781  1.0000
  C   C3        1.0  0.18599  0.54953  0.29486  1.0000
  C   C4        1.0  0.11053  0.54235  0.28572  1.0000
  C   C5        1.0  0.08961  0.53151  0.28606  1.0000
  C   C6        1.0  0.07852  0.53852  0.33243  1.0000
  C   C7        1.0  0.21251  0.65388  0.24309  1.0000
  C   C8        1.0  0.19858  0.63345  0.24273  1.0000
  H   H1        1.0  0.20009  0.53417  0.24885  1.0000
  H   H2        1.0  0.17605  0.54478  0.24300  1.0000
  H   H3        1.0  0.11790  0.53685  0.24973  1.0000
  H   H4        1.0  0.08248  0.51841  0.25151  1.0000
  H   H5        1.0  0.22265  0.65966  0.19212  1.0000
  H   H6        1.0  0.19902  0.62489  0.19167  1.0000
  H   H7        1.0  0.14545  0.60004  0.31506  1.0000
  N   N1        1.0  0.05873  0.52720  0.33183  1.0000
  C   C9        1.0  0.44610  0.56199  0.33235  1.0000
  C   C10       1.0  0.46328  0.65818  0.29786  1.0000
  C   C11       1.0  0.45715  0.63780  0.29481  1.0000
  C   C12       1.0  0.46433  0.56951  0.28571  1.0000
  C   C13       1.0  0.47516  0.55942  0.28603  1.0000
  C   C14       1.0  0.46815  0.54132  0.33243  1.0000
  C   C15       1.0  0.35281  0.55999  0.24317  1.0000
  C   C16       1.0  0.37324  0.56649  0.24284  1.0000
  H   H8        1.0  0.47258  0.66728  0.24900  1.0000
  H   H9        1.0  0.46193  0.63261  0.24303  1.0000
  H   H10       1.0  0.46984  0.58238  0.24967  1.0000
  H   H11       1.0  0.48826  0.56539  0.25146  1.0000
  H   H12       1.0  0.34704  0.56435  0.19220  1.0000
  H   H13       1.0  0.38180  0.57549  0.19178  1.0000
  H   H14       1.0  0.40664  0.54675  0.31510  1.0000
  N   N2        1.0  0.47947  0.53285  0.33183  1.0000
  C   C17       1.0  0.44467  0.88543  0.33238  1.0000
  C   C18       1.0  0.34849  0.80644  0.29798  1.0000
  C   C19       1.0  0.36888  0.82072  0.29504  1.0000
  C   C20       1.0  0.43714  0.89614  0.28573  1.0000
  C   C21       1.0  0.44723  0.91706  0.28604  1.0000
  C   C22       1.0  0.46533  0.92815  0.33244  1.0000
  C   C23       1.0  0.44672  0.79419  0.24306  1.0000
  C   C24       1.0  0.44025  0.80814  0.24267  1.0000
  H   H15       1.0  0.33940  0.80667  0.24918  1.0000
  H   H16       1.0  0.37407  0.83067  0.24323  1.0000
  H   H17       1.0  0.42428  0.88877  0.24967  1.0000
  H   H18       1.0  0.44127  0.92419  0.25145  1.0000
  H   H19       1.0  0.44235  0.78405  0.19207  1.0000
  H   H20       1.0  0.43123  0.80768  0.19168  1.0000
  H   H21       1.0  0.45993  0.86124  0.31509  1.0000
  N   N3        1.0  0.47380  0.94794  0.33183  1.0000
  C   C25       1.0  0.88678  0.44421  0.33067  1.0000
  C   C26       1.0  0.80796  0.46192  0.29598  1.0000
  C   C27       1.0  0.82221  0.45578  0.29274  1.0000
  C   C28       1.0  0.89770  0.46229  0.28310  1.0000
  C   C29       1.0  0.91863  0.47284  0.28339  1.0000
  C   C30       1.0  0.92952  0.46581  0.33132  1.0000
  C   C31       1.0  0.79502  0.35132  0.24154  1.0000
  C   C32       1.0  0.80899  0.37174  0.24109  1.0000
  H   H22       1.0  0.80801  0.47104  0.24661  1.0000
  H   H23       1.0  0.83202  0.46040  0.24040  1.0000
  H   H24       1.0  0.89048  0.46783  0.24623  1.0000
  H   H25       1.0  0.92592  0.48580  0.24791  1.0000
  H   H26       1.0  0.78476  0.34558  0.19105  1.0000
  H   H27       1.0  0.80844  0.38033  0.19040  1.0000
  H   H28       1.0  0.86232  0.40485  0.31306  1.0000
  N   N4        1.0  0.94936  0.47685  0.32944  1.0000
  C   C33       1.0  0.56246  0.44390  0.33067  1.0000
  C   C34       1.0  0.54475  0.34737  0.29587  1.0000
  C   C35       1.0  0.55086  0.36775  0.29267  1.0000
  C   C36       1.0  0.54439  0.43676  0.28305  1.0000
  C   C37       1.0  0.53384  0.44714  0.28332  1.0000
  C   C38       1.0  0.54088  0.46508  0.33121  1.0000
  C   C39       1.0  0.65534  0.44501  0.24168  1.0000
  C   C40       1.0  0.63491  0.43855  0.24123  1.0000
  H   H29       1.0  0.53560  0.33829  0.24658  1.0000
  H   H30       1.0  0.54625  0.37295  0.24033  1.0000
  H   H31       1.0  0.53884  0.42399  0.24621  1.0000
  H   H32       1.0  0.52087  0.44147  0.24783  1.0000
  H   H33       1.0  0.66108  0.44051  0.19113  1.0000
  H   H34       1.0  0.62633  0.42944  0.19050  1.0000
  H   H35       1.0  0.60182  0.45880  0.31312  1.0000
  N   N5        1.0  0.52985  0.47388  0.32928  1.0000
  C   C41       1.0  0.56277  0.11989  0.33063  1.0000
  C   C42       1.0  0.65931  0.19869  0.29593  1.0000
  C   C43       1.0  0.63892  0.18445  0.29262  1.0000
  C   C44       1.0  0.56992  0.10896  0.28303  1.0000
  C   C45       1.0  0.55953  0.08803  0.28328  1.0000
  C   C46       1.0  0.54160  0.07714  0.33119  1.0000
  C   C47       1.0  0.56168  0.21167  0.24180  1.0000
  C   C48       1.0  0.56814  0.19771  0.24137  1.0000
  H   H36       1.0  0.66840  0.19860  0.24674  1.0000
  H   H37       1.0  0.63373  0.17461  0.24037  1.0000
  H   H38       1.0  0.58268  0.11617  0.24614  1.0000
  H   H39       1.0  0.56520  0.08073  0.24776  1.0000
  H   H40       1.0  0.56618  0.22191  0.19124  1.0000
  H   H41       1.0  0.57725  0.19823  0.19062  1.0000
  H   H42       1.0  0.54788  0.14436  0.31316  1.0000
  N   N6        1.0  0.53280  0.05730  0.32927  1.0000
  C   C49       1.0  0.98333  0.48864  0.35305  1.0000
  C   C50       1.0  0.99280  0.49643  0.26930  1.0000
  C   C51       1.0  0.01359  0.51040  0.26586  1.0000
  N   N7        1.0  0.98090  0.48963  0.19092  1.0000
  N   N8        1.0  0.02207  0.51771  0.18032  1.0000
  O   O1        1.0  0.98045  0.50348  0.14965  1.0000
  O   O2        1.0  0.03489  0.51307  0.16004  1.0000
  O   O3        1.0  0.98642  0.48069  0.13855  1.0000
  O   O4        1.0  0.02946  0.53617  0.17388  1.0000
  C   C52       1.0  0.96335  0.47435  0.36128  1.0000
  H   H43       1.0  0.95998  0.46220  0.39620  1.0000
  C   C53       1.0  0.51806  0.49606  0.35294  1.0000
  C   C54       1.0  0.51027  0.49774  0.26919  1.0000
  C   C55       1.0  0.49628  0.50454  0.26580  1.0000
  N   N9        1.0  0.51708  0.49266  0.19079  1.0000
  N   N10       1.0  0.48897  0.50572  0.18026  1.0000
  O   O5        1.0  0.50325  0.47837  0.14945  1.0000
  O   O6        1.0  0.49361  0.52318  0.16006  1.0000
  O   O7        1.0  0.52601  0.50715  0.13849  1.0000
  O   O8        1.0  0.47051  0.49464  0.17376  1.0000
  C   C56       1.0  0.53235  0.49037  0.36112  1.0000
  H   H44       1.0  0.54448  0.49913  0.39619  1.0000
  C   C57       1.0  0.51061  0.02333  0.35293  1.0000
  C   C58       1.0  0.50893  0.01386  0.26919  1.0000
  C   C59       1.0  0.50212  0.99307  0.26580  1.0000
  N   N11       1.0  0.51401  0.02574  0.19079  1.0000
  N   N12       1.0  0.50094  0.98458  0.18027  1.0000
  O   O9        1.0  0.52831  0.02620  0.14946  1.0000
  O   O10       1.0  0.48347  0.97176  0.16005  1.0000
  O   O11       1.0  0.49954  0.02021  0.13848  1.0000
  O   O12       1.0  0.51201  0.97719  0.17380  1.0000
  C   C60       1.0  0.51631  0.04331  0.36110  1.0000
  H   H45       1.0  0.50754  0.04669  0.39616  1.0000
  C   C61       1.0  0.25360  0.53783  0.34038  1.0000
  C   C62       1.0  0.26815  0.54544  0.27247  1.0000
  C   C63       1.0  0.28682  0.54724  0.28592  1.0000
  H   H46       1.0  0.29708  0.55340  0.23558  1.0000
  H   H47       1.0  0.26547  0.55019  0.21277  1.0000
  C   C64       1.0  0.23561  0.53675  0.32271  1.0000
  H   H48       1.0  0.22746  0.52853  0.27163  1.0000
  C   C65       1.0  0.46884  0.71710  0.34046  1.0000
  C   C66       1.0  0.46122  0.72402  0.27253  1.0000
  C   C67       1.0  0.45938  0.74087  0.28596  1.0000
  H   H49       1.0  0.45321  0.74495  0.23560  1.0000
  H   H50       1.0  0.45648  0.71659  0.21283  1.0000
  C   C68       1.0  0.46997  0.70020  0.32281  1.0000
  H   H51       1.0  0.47805  0.70023  0.27121  1.0000
  C   C69       1.0  0.28957  0.75309  0.34043  1.0000
  C   C70       1.0  0.28265  0.73853  0.27257  1.0000
  C   C71       1.0  0.26579  0.71985  0.28603  1.0000
  H   H52       1.0  0.26170  0.70960  0.23568  1.0000
  H   H53       1.0  0.29008  0.74122  0.21286  1.0000
  C   C72       1.0  0.30647  0.77110  0.32276  1.0000
  H   H54       1.0  0.30646  0.77914  0.27110  1.0000
  C   C73       1.0  0.75464  0.46750  0.33927  1.0000
  C   C74       1.0  0.74011  0.45991  0.27123  1.0000
  C   C75       1.0  0.72143  0.45809  0.28457  1.0000
  H   H55       1.0  0.71122  0.45198  0.23404  1.0000
  H   H56       1.0  0.74284  0.45524  0.21143  1.0000
  C   C76       1.0  0.77266  0.46864  0.32160  1.0000
  H   H57       1.0  0.78079  0.47687  0.27049  1.0000
  C   C77       1.0  0.53916  0.28846  0.33923  1.0000
  C   C78       1.0  0.54673  0.28152  0.27117  1.0000
  C   C79       1.0  0.54856  0.26467  0.28454  1.0000
  H   H58       1.0  0.55469  0.26057  0.23404  1.0000
  H   H59       1.0  0.55142  0.28893  0.21141  1.0000
  C   C80       1.0  0.53802  0.30535  0.32154  1.0000
  H   H60       1.0  0.52980  0.30525  0.27038  1.0000
  C   C81       1.0  0.71820  0.25202  0.33931  1.0000
  C   C82       1.0  0.72512  0.26654  0.27124  1.0000
  C   C83       1.0  0.74196  0.28523  0.28456  1.0000
  H   H61       1.0  0.74605  0.29545  0.23405  1.0000
  H   H62       1.0  0.71771  0.26380  0.21148  1.0000
  C   C84       1.0  0.70134  0.23398  0.32166  1.0000
  H   H63       1.0  0.70138  0.22595  0.26999  1.0000
  C   C85       1.0  0.18651  0.56342  0.35752  1.0000
  C   C86       1.0  0.18500  0.62462  0.31422  1.0000
  C   C87       1.0  0.20117  0.57033  0.42544  1.0000
  C   C88       1.0  0.21533  0.56417  0.42859  1.0000
  C   C89       1.0  0.21535  0.55099  0.36384  1.0000
  C   C90       1.0  0.08909  0.55665  0.37969  1.0000
  C   C91       1.0  0.11000  0.56745  0.37942  1.0000
  C   C92       1.0  0.18538  0.63686  0.38508  1.0000
  C   C93       1.0  0.19955  0.65728  0.38602  1.0000
  C   C94       1.0  0.21360  0.66591  0.31602  1.0000
  H   H64       1.0  0.22620  0.57010  0.47651  1.0000
  H   H65       1.0  0.11697  0.58025  0.41612  1.0000
  H   H66       1.0  0.08167  0.56200  0.41624  1.0000
  H   H67       1.0  0.17630  0.63079  0.43948  1.0000
  H   H68       1.0  0.20002  0.66563  0.43988  1.0000
  C   C95       1.0  0.17405  0.60362  0.32284  1.0000
  C   C96       1.0  0.15309  0.59262  0.32392  1.0000
  C   C97       1.0  0.14258  0.57162  0.33258  1.0000
  C   C98       1.0  0.15385  0.56192  0.34237  1.0000
  C   C99       1.0  0.17483  0.57265  0.34500  1.0000
  C   C100      1.0  0.18462  0.59343  0.33388  1.0000
  H   H69       1.0  0.14672  0.54688  0.35157  1.0000
  H   H70       1.0  0.19984  0.60137  0.33432  1.0000
  H   H71       1.0  0.20219  0.58062  0.47113  1.0000
  N   N13       1.0  0.22850  0.68460  0.31607  1.0000
  N   N14       1.0  0.23053  0.54767  0.36687  1.0000
  C   C101      1.0  0.44327  0.62443  0.35749  1.0000
  C   C102      1.0  0.38207  0.56172  0.31431  1.0000
  C   C103      1.0  0.43638  0.63218  0.42548  1.0000
  C   C104      1.0  0.44254  0.65251  0.42862  1.0000
  C   C105      1.0  0.45574  0.66571  0.36396  1.0000
  C   C106      1.0  0.45003  0.53378  0.37971  1.0000
  C   C107      1.0  0.43923  0.54389  0.37940  1.0000
  C   C108      1.0  0.36982  0.54986  0.38516  1.0000
  C   C109      1.0  0.34941  0.54361  0.38606  1.0000
  C   C110      1.0  0.34077  0.54902  0.31604  1.0000
  H   H72       1.0  0.43662  0.65744  0.47660  1.0000
  H   H73       1.0  0.42644  0.53807  0.41617  1.0000
  H   H74       1.0  0.44468  0.52102  0.41631  1.0000
  H   H75       1.0  0.37588  0.54681  0.43945  1.0000
  H   H76       1.0  0.34104  0.53570  0.43981  1.0000
  C   C111      1.0  0.40307  0.57177  0.32278  1.0000
  C   C112      1.0  0.41407  0.56181  0.32385  1.0000
  C   C113      1.0  0.43507  0.57230  0.33255  1.0000
  C   C114      1.0  0.44477  0.59327  0.34232  1.0000
  C   C115      1.0  0.43404  0.60352  0.34495  1.0000
  C   C116      1.0  0.41326  0.59254  0.33386  1.0000
  H   H77       1.0  0.45982  0.60118  0.35152  1.0000
  H   H78       1.0  0.40533  0.59982  0.33435  1.0000
  H   H79       1.0  0.42607  0.62291  0.47108  1.0000
  N   N15       1.0  0.32208  0.54523  0.31604  1.0000
  N   N16       1.0  0.45909  0.68422  0.36712  1.0000
  C   C117      1.0  0.38224  0.82013  0.35749  1.0000
  C   C118      1.0  0.44498  0.82170  0.31427  1.0000
  C   C119      1.0  0.37450  0.80547  0.42537  1.0000
  C   C120      1.0  0.35417  0.79132  0.42856  1.0000
  C   C121      1.0  0.34097  0.79133  0.36390  1.0000
  C   C122      1.0  0.47287  0.91758  0.37978  1.0000
  C   C123      1.0  0.46276  0.89667  0.37948  1.0000
  C   C124      1.0  0.45681  0.82127  0.38518  1.0000
  C   C125      1.0  0.46308  0.80713  0.38601  1.0000
  C   C126      1.0  0.45765  0.79308  0.31597  1.0000
  H   H80       1.0  0.34923  0.78045  0.47643  1.0000
  H   H81       1.0  0.46859  0.88969  0.41621  1.0000
  H   H82       1.0  0.48563  0.92499  0.41633  1.0000
  H   H83       1.0  0.45984  0.83037  0.43955  1.0000
  H   H84       1.0  0.47094  0.80663  0.43988  1.0000
  C   C127      1.0  0.43492  0.83263  0.32280  1.0000
  C   C128      1.0  0.44487  0.85359  0.32393  1.0000
  C   C129      1.0  0.43436  0.86409  0.33255  1.0000
  C   C130      1.0  0.41340  0.85281  0.34222  1.0000
  C   C131      1.0  0.40316  0.83183  0.34493  1.0000
  C   C132      1.0  0.41415  0.82205  0.33385  1.0000
  H   H85       1.0  0.40548  0.85994  0.35155  1.0000
  H   H86       1.0  0.40688  0.80683  0.33432  1.0000
  H   H87       1.0  0.38377  0.80443  0.47095  1.0000
  N   N17       1.0  0.46142  0.77816  0.31600  1.0000
  N   N18       1.0  0.32245  0.77619  0.36708  1.0000
  C   C133      1.0  0.82180  0.44201  0.35576  1.0000
  C   C134      1.0  0.82273  0.38053  0.31205  1.0000
  C   C135      1.0  0.80728  0.43525  0.42428  1.0000
  C   C136      1.0  0.79313  0.44143  0.42767  1.0000
  C   C137      1.0  0.79299  0.45448  0.36256  1.0000
  C   C138      1.0  0.91870  0.44780  0.37926  1.0000
  C   C139      1.0  0.89779  0.43724  0.37874  1.0000
  C   C140      1.0  0.82248  0.36824  0.38242  1.0000
  C   C141      1.0  0.80828  0.34784  0.38347  1.0000
  C   C142      1.0  0.79407  0.33925  0.31406  1.0000
  H   H88       1.0  0.78235  0.43557  0.47596  1.0000
  H   H89       1.0  0.89065  0.42449  0.41577  1.0000
  H   H90       1.0  0.92589  0.44222  0.41583  1.0000
  H   H91       1.0  0.83169  0.37427  0.43644  1.0000
  H   H92       1.0  0.80790  0.33945  0.43702  1.0000
  C   C143      1.0  0.83382  0.40152  0.32053  1.0000
  C   C144      1.0  0.85478  0.41237  0.32179  1.0000
  C   C145      1.0  0.86544  0.43337  0.33047  1.0000
  C   C146      1.0  0.85434  0.44325  0.34009  1.0000
  C   C147      1.0  0.83335  0.43266  0.34279  1.0000
  C   C148      1.0  0.82340  0.41187  0.33161  1.0000
  H   H93       1.0  0.86160  0.45829  0.34935  1.0000
  H   H94       1.0  0.80818  0.40405  0.33218  1.0000
  H   H95       1.0  0.80633  0.42502  0.47015  1.0000
  N   N19       1.0  0.77916  0.32057  0.31428  1.0000
  N   N20       1.0  0.77778  0.45775  0.36572  1.0000
  C   C149      1.0  0.56463  0.38111  0.35571  1.0000
  C   C150      1.0  0.62613  0.44352  0.31214  1.0000
  C   C151      1.0  0.57139  0.37336  0.42426  1.0000
  C   C152      1.0  0.56522  0.35304  0.42766  1.0000
  C   C153      1.0  0.55217  0.33984  0.36252  1.0000
  C   C154      1.0  0.55888  0.47225  0.37917  1.0000
  C   C155      1.0  0.56943  0.46189  0.37872  1.0000
  C   C156      1.0  0.63842  0.45557  0.38248  1.0000
  C   C157      1.0  0.65882  0.46178  0.38355  1.0000
  C   C158      1.0  0.66741  0.45614  0.31415  1.0000
  H   H96       1.0  0.57106  0.34810  0.47598  1.0000
  H   H97       1.0  0.58218  0.46749  0.41576  1.0000
  H   H98       1.0  0.56446  0.48503  0.41575  1.0000
  H   H99       1.0  0.63239  0.45877  0.43646  1.0000
  H   H100      1.0  0.66721  0.46980  0.43703  1.0000
  C   C159      1.0  0.60513  0.43362  0.32061  1.0000
  C   C160      1.0  0.59429  0.44373  0.32182  1.0000
  C   C161      1.0  0.57329  0.43340  0.33049  1.0000
  C   C162      1.0  0.56341  0.41242  0.34013  1.0000
  C   C163      1.0  0.57399  0.40202  0.34281  1.0000
  C   C164      1.0  0.59477  0.41285  0.33166  1.0000
  H   H101      1.0  0.54836  0.40463  0.34931  1.0000
  H   H102      1.0  0.60259  0.40545  0.33222  1.0000
  H   H103      1.0  0.58161  0.38264  0.47017  1.0000
  N   N21       1.0  0.68610  0.45993  0.31435  1.0000
  N   N22       1.0  0.54890  0.32136  0.36569  1.0000
  C   C165      1.0  0.62557  0.18485  0.35569  1.0000
  C   C166      1.0  0.56315  0.18394  0.31227  1.0000
  C   C167      1.0  0.63331  0.19934  0.42431  1.0000
  C   C168      1.0  0.65364  0.21350  0.42768  1.0000
  C   C169      1.0  0.66685  0.21363  0.36264  1.0000
  C   C170      1.0  0.53442  0.08796  0.37917  1.0000
  C   C171      1.0  0.54478  0.10887  0.37868  1.0000
  C   C172      1.0  0.55112  0.18420  0.38262  1.0000
  C   C173      1.0  0.54490  0.19839  0.38365  1.0000
  C   C174      1.0  0.55053  0.21260  0.31422  1.0000
  H   H104      1.0  0.65858  0.22426  0.47605  1.0000
  H   H105      1.0  0.53919  0.11602  0.41577  1.0000
  H   H106      1.0  0.52166  0.08077  0.41578  1.0000
  H   H107      1.0  0.54788  0.17493  0.43649  1.0000
  H   H108      1.0  0.53685  0.19873  0.43705  1.0000
  C   C175      1.0  0.57306  0.17285  0.32060  1.0000
  C   C176      1.0  0.56295  0.15189  0.32177  1.0000
  C   C177      1.0  0.57328  0.14122  0.33045  1.0000
  C   C178      1.0  0.59425  0.15232  0.34008  1.0000
  C   C179      1.0  0.60466  0.17330  0.34278  1.0000
  C   C180      1.0  0.59383  0.18326  0.33167  1.0000
  H   H109      1.0  0.60204  0.14505  0.34925  1.0000
  H   H110      1.0  0.60123  0.19848  0.33228  1.0000
  H   H111      1.0  0.62404  0.20031  0.47012  1.0000
  N   N23       1.0  0.54673  0.22750  0.31437  1.0000
  N   N24       1.0  0.68534  0.22882  0.36595  1.0000
  C   C181      1.0  0.02495  0.51646  0.34648  1.0000
  C   C182      1.0  0.01530  0.50861  0.42889  1.0000
  C   C183      1.0  0.99491  0.49479  0.43197  1.0000
  H   H112      1.0  0.98854  0.48939  0.49325  1.0000
  H   H113      1.0  0.02305  0.51291  0.48796  1.0000
  C   C184      1.0  0.04479  0.53107  0.34888  1.0000
  H   H114      1.0  0.04801  0.54468  0.36624  1.0000
  C   C185      1.0  0.49019  0.50979  0.34646  1.0000
  C   C186      1.0  0.49805  0.50801  0.42885  1.0000
  C   C187      1.0  0.51188  0.50145  0.43189  1.0000
  H   H115      1.0  0.51729  0.50048  0.49316  1.0000
  H   H116      1.0  0.49374  0.51143  0.48794  1.0000
  C   C188      1.0  0.47559  0.51504  0.34886  1.0000
  H   H117      1.0  0.46198  0.50466  0.36618  1.0000
  C   C189      1.0  0.49685  0.98172  0.34645  1.0000
  C   C190      1.0  0.49864  0.99137  0.42885  1.0000
  C   C191      1.0  0.50521  0.01176  0.43188  1.0000
  H   H118      1.0  0.50619  0.01814  0.49315  1.0000
  H   H119      1.0  0.49521  0.98363  0.48794  1.0000
  C   C192      1.0  0.49160  0.96187  0.34888  1.0000
  H   H120      1.0  0.50199  0.95865  0.36623  1.0000
  C   C193      1.0  0.29159  0.54124  0.36723  1.0000
  C   C194      1.0  0.27690  0.53319  0.43582  1.0000
  C   C195      1.0  0.25794  0.53150  0.42272  1.0000
  N   N25       1.0  0.28175  0.52695  0.51675  1.0000
  N   N26       1.0  0.24409  0.52328  0.49406  1.0000
  O   O13       1.0  0.27075  0.50870  0.53097  1.0000
  O   O14       1.0  0.24044  0.53570  0.53000  1.0000
  O   O15       1.0  0.28146  0.53663  0.58357  1.0000
  O   O16       1.0  0.22819  0.50812  0.47132  1.0000
  C   C196      1.0  0.31074  0.54436  0.38083  1.0000
  H   H121      1.0  0.31623  0.54716  0.44270  1.0000
  C   C197      1.0  0.46538  0.75165  0.36726  1.0000
  C   C198      1.0  0.47344  0.74503  0.43586  1.0000
  C   C199      1.0  0.47516  0.72777  0.42280  1.0000
  N   N27       1.0  0.47966  0.75613  0.51678  1.0000
  N   N28       1.0  0.48339  0.72217  0.49417  1.0000
  O   O17       1.0  0.49791  0.76340  0.53102  1.0000
  O   O18       1.0  0.47099  0.70610  0.53016  1.0000
  O   O19       1.0  0.46998  0.74615  0.58360  1.0000
  O   O20       1.0  0.49857  0.72145  0.47145  1.0000
  C   C200      1.0  0.46222  0.76765  0.38078  1.0000
  H   H122      1.0  0.45941  0.77035  0.44263  1.0000
  C   C201      1.0  0.25500  0.71508  0.36730  1.0000
  C   C202      1.0  0.26163  0.72979  0.43585  1.0000
  C   C203      1.0  0.27889  0.74875  0.42276  1.0000
  N   N29       1.0  0.25052  0.72492  0.51674  1.0000
  N   N30       1.0  0.28449  0.76260  0.49406  1.0000
  O   O21       1.0  0.24326  0.73592  0.53088  1.0000
  O   O22       1.0  0.30056  0.76627  0.53009  1.0000
  O   O23       1.0  0.26049  0.72523  0.58362  1.0000
  O   O24       1.0  0.28522  0.77849  0.47125  1.0000
  C   C204      1.0  0.23898  0.69594  0.38087  1.0000
  H   H123      1.0  0.23628  0.69044  0.44274  1.0000
  C   C205      1.0  0.71661  0.46404  0.36591  1.0000
  C   C206      1.0  0.73127  0.47204  0.43466  1.0000
  C   C207      1.0  0.75024  0.47376  0.42168  1.0000
  N   N31       1.0  0.72636  0.47822  0.51565  1.0000
  N   N32       1.0  0.76405  0.48193  0.49320  1.0000
  O   O25       1.0  0.73735  0.49646  0.53014  1.0000
  O   O26       1.0  0.76770  0.46950  0.52899  1.0000
  O   O27       1.0  0.72662  0.46849  0.58236  1.0000
  O   O28       1.0  0.77995  0.49712  0.47074  1.0000
  C   C208      1.0  0.69746  0.46092  0.37929  1.0000
  H   H124      1.0  0.69198  0.45825  0.44117  1.0000
  C   C209      1.0  0.54262  0.25390  0.36589  1.0000
  C   C210      1.0  0.53461  0.26056  0.43464  1.0000
  C   C211      1.0  0.53290  0.27782  0.42165  1.0000
  N   N33       1.0  0.52844  0.24948  0.51564  1.0000
  N   N34       1.0  0.52473  0.28345  0.49316  1.0000
  O   O29       1.0  0.51021  0.24223  0.53014  1.0000
  O   O30       1.0  0.53717  0.29953  0.52895  1.0000
  O   O31       1.0  0.53817  0.25947  0.58234  1.0000
  O   O32       1.0  0.50955  0.28417  0.47070  1.0000
  C   C212      1.0  0.54574  0.23787  0.37931  1.0000
  H   H125      1.0  0.54842  0.23507  0.44119  1.0000
  C   C213      1.0  0.75274  0.29008  0.36590  1.0000
  C   C214      1.0  0.74610  0.27542  0.43468  1.0000
  C   C215      1.0  0.72886  0.25643  0.42172  1.0000
  N   N35       1.0  0.75719  0.28035  0.51566  1.0000
  N   N36       1.0  0.72324  0.24264  0.49326  1.0000
  O   O33       1.0  0.76446  0.26938  0.53017  1.0000
  O   O34       1.0  0.70717  0.23898  0.52911  1.0000
  O   O35       1.0  0.74719  0.28008  0.58236  1.0000
  O   O36       1.0  0.72255  0.22674  0.47084  1.0000
  C   C216      1.0  0.76876  0.30923  0.37924  1.0000
  H   H126      1.0  0.77156  0.31473  0.44110  1.0000
