data_image0
_chemical_formula_structural       N2C4H3CH3CHC4H3CH3CHC8HC7HCH4N2C3H2CHC3H2CHN2C4H3CH3CHC4H3CH3CHC8HC7HCH4N2C3H2CHC3H2CHN2C4H3CH3CHC4H3CH3CHC8HC7HCH4N2C3H2CHC3H2CHN2C4H3CH3CHC4H3CH3CHC8HC7HCH4N2C3H2CHC3H2CH
_chemical_formula_sum              "N16 C144 H104"
_cell_length_a       31.7518
_cell_length_b       31.7518
_cell_length_c       14.8985
_cell_angle_alpha    90
_cell_angle_beta     90
_cell_angle_gamma    90

_space_group_name_H-M_alt    "P 1"
_space_group_IT_number       1

loop_
  _space_group_symop_operation_xyz
  'x, y, z'

loop_
  _atom_site_type_symbol
  _atom_site_label
  _atom_site_symmetry_multiplicity
  _atom_site_fract_x
  _atom_site_fract_y
  _atom_site_fract_z
  _atom_site_occupancy
  N   N1        1.0  0.02900  0.14706  0.32073  1.0000
  N   N2        1.0  0.46839  0.37960  0.32432  1.0000
  C   C1        1.0  0.00349  0.31059  0.30885  1.0000
  C   C2        1.0  0.03972  0.28634  0.28368  1.0000
  C   C3        1.0  0.03748  0.24114  0.28143  1.0000
  C   C4        1.0  0.08062  0.30860  0.26638  1.0000
  H   H1        1.0  0.08643  0.33212  0.31835  1.0000
  H   H2        1.0  0.07957  0.32415  0.20110  1.0000
  H   H3        1.0  0.10806  0.28806  0.26830  1.0000
  C   C5        1.0  0.06943  0.21633  0.22960  1.0000
  H   H4        1.0  0.05405  0.19224  0.18894  1.0000
  H   H5        1.0  0.09161  0.20142  0.27561  1.0000
  H   H6        1.0  0.58709  0.23516  0.18148  1.0000
  C   C6        1.0  0.00218  0.35526  0.30387  1.0000
  H   H7        1.0  0.02710  0.37054  0.27594  1.0000
  C   C7        1.0  0.20075  0.00801  0.30722  1.0000
  C   C8        1.0  0.22513  0.97229  0.27937  1.0000
  C   C9        1.0  0.27033  0.97469  0.27732  1.0000
  C   C10       1.0  0.20297  0.93172  0.25832  1.0000
  H   H8        1.0  0.17976  0.92464  0.31018  1.0000
  H   H9        1.0  0.22361  0.90435  0.25679  1.0000
  H   H10       1.0  0.18707  0.93421  0.19359  1.0000
  C   C11       1.0  0.29525  0.94382  0.22281  1.0000
  H   H11       1.0  0.31970  0.95989  0.18440  1.0000
  H   H12       1.0  0.27652  0.92750  0.17239  1.0000
  H   H13       1.0  0.30972  0.42048  0.26677  1.0000
  C   C12       1.0  0.15605  0.00923  0.30293  1.0000
  H   H14       1.0  0.14069  0.98444  0.27463  1.0000
  C   C13       1.0  0.01389  0.02941  0.32710  1.0000
  C   C14       1.0  0.05717  0.51816  0.33773  1.0000
  C   C15       1.0  0.08930  0.04933  0.33078  1.0000
  C   C16       1.0  0.07701  0.09192  0.32599  1.0000
  C   C17       1.0  0.03445  0.10450  0.32074  1.0000
  C   C18       1.0  0.00284  0.07270  0.31585  1.0000
  C   C19       1.0  0.06618  0.47626  0.36267  1.0000
  C   C20       1.0  0.46064  0.08186  0.29355  1.0000
  H   H15       1.0  0.10001  0.11463  0.32448  1.0000
  C   C21       1.0  0.48188  0.49740  0.32699  1.0000
  C   C22       1.0  0.49312  0.45414  0.33767  1.0000
  C   C23       1.0  0.46195  0.42202  0.33041  1.0000
  C   C24       1.0  0.41936  0.43431  0.32506  1.0000
  C   C25       1.0  0.40677  0.47685  0.31989  1.0000
  C   C26       1.0  0.43860  0.00847  0.31552  1.0000
  C   C27       1.0  0.03503  0.44513  0.36266  1.0000
  H   H16       1.0  0.39666  0.41130  0.32328  1.0000
  C   C28       1.0  0.42946  0.05069  0.29339  1.0000
  H   H17       1.0  0.04333  0.41620  0.38645  1.0000
  H   H18       1.0  0.09518  0.46792  0.38604  1.0000
  H   H19       1.0  0.40046  0.05928  0.27088  1.0000
  H   H20       1.0  0.45209  0.11088  0.27109  1.0000
  N   N3        1.0  0.13172  0.04291  0.32431  1.0000
  N   N4        1.0  0.36419  0.48232  0.31942  1.0000
  C   C29       1.0  0.50201  0.21990  0.31988  1.0000
  C   C30       1.0  0.46756  0.24483  0.34835  1.0000
  C   C31       1.0  0.46775  0.28878  0.34057  1.0000
  H   H21       1.0  0.44145  0.30471  0.36119  1.0000
  H   H22       1.0  0.44101  0.23114  0.37438  1.0000
  C   C32       1.0  0.49771  0.17561  0.33130  1.0000
  H   H23       1.0  0.47021  0.16443  0.35765  1.0000
  C   C33       1.0  0.29148  0.50960  0.31825  1.0000
  C   C34       1.0  0.26646  0.54360  0.34869  1.0000
  C   C35       1.0  0.22250  0.54338  0.34103  1.0000
  H   H24       1.0  0.20650  0.56932  0.36343  1.0000
  H   H25       1.0  0.28009  0.56977  0.37656  1.0000
  C   C36       1.0  0.33575  0.51369  0.33034  1.0000
  H   H26       1.0  0.34691  0.54093  0.35793  1.0000
  N   N5        1.0  0.02900  0.64707  0.32073  1.0000
  N   N6        1.0  0.46839  0.87960  0.32432  1.0000
  C   C37       1.0  0.00349  0.81059  0.30885  1.0000
  C   C38       1.0  0.03972  0.78634  0.28368  1.0000
  C   C39       1.0  0.03748  0.74114  0.28143  1.0000
  C   C40       1.0  0.08062  0.80860  0.26638  1.0000
  H   H27       1.0  0.08643  0.83212  0.31835  1.0000
  H   H28       1.0  0.07957  0.82415  0.20110  1.0000
  H   H29       1.0  0.10806  0.78806  0.26830  1.0000
  C   C41       1.0  0.06943  0.71633  0.22960  1.0000
  H   H30       1.0  0.05405  0.69224  0.18894  1.0000
  H   H31       1.0  0.09161  0.70142  0.27561  1.0000
  H   H32       1.0  0.58709  0.73516  0.18148  1.0000
  C   C42       1.0  0.00218  0.85526  0.30387  1.0000
  H   H33       1.0  0.02710  0.87054  0.27594  1.0000
  C   C43       1.0  0.20075  0.50801  0.30722  1.0000
  C   C44       1.0  0.22513  0.47229  0.27937  1.0000
  C   C45       1.0  0.27033  0.47469  0.27732  1.0000
  C   C46       1.0  0.20297  0.43172  0.25832  1.0000
  H   H34       1.0  0.17976  0.42464  0.31018  1.0000
  H   H35       1.0  0.22361  0.40435  0.25679  1.0000
  H   H36       1.0  0.18707  0.43421  0.19359  1.0000
  C   C47       1.0  0.29525  0.44382  0.22281  1.0000
  H   H37       1.0  0.31970  0.45989  0.18440  1.0000
  H   H38       1.0  0.27652  0.42750  0.17239  1.0000
  H   H39       1.0  0.30972  0.92048  0.26677  1.0000
  C   C48       1.0  0.15605  0.50923  0.30293  1.0000
  H   H40       1.0  0.14069  0.48444  0.27463  1.0000
  C   C49       1.0  0.01389  0.52941  0.32710  1.0000
  C   C50       1.0  0.05717  0.01816  0.33773  1.0000
  C   C51       1.0  0.08930  0.54933  0.33078  1.0000
  C   C52       1.0  0.07701  0.59192  0.32599  1.0000
  C   C53       1.0  0.03445  0.60450  0.32074  1.0000
  C   C54       1.0  0.00284  0.57269  0.31585  1.0000
  C   C55       1.0  0.06618  0.97626  0.36267  1.0000
  C   C56       1.0  0.46064  0.58186  0.29355  1.0000
  H   H41       1.0  0.10001  0.61463  0.32448  1.0000
  C   C57       1.0  0.48188  0.99740  0.32699  1.0000
  C   C58       1.0  0.49312  0.95414  0.33767  1.0000
  C   C59       1.0  0.46195  0.92202  0.33041  1.0000
  C   C60       1.0  0.41936  0.93431  0.32506  1.0000
  C   C61       1.0  0.40677  0.97685  0.31989  1.0000
  C   C62       1.0  0.43860  0.50847  0.31552  1.0000
  C   C63       1.0  0.03503  0.94513  0.36266  1.0000
  H   H42       1.0  0.39666  0.91130  0.32328  1.0000
  C   C64       1.0  0.42946  0.55069  0.29339  1.0000
  H   H43       1.0  0.04333  0.91620  0.38645  1.0000
  H   H44       1.0  0.09518  0.96792  0.38604  1.0000
  H   H45       1.0  0.40046  0.55928  0.27088  1.0000
  H   H46       1.0  0.45209  0.61088  0.27109  1.0000
  N   N7        1.0  0.13172  0.54291  0.32431  1.0000
  N   N8        1.0  0.36419  0.98232  0.31942  1.0000
  C   C65       1.0  0.50201  0.71990  0.31988  1.0000
  C   C66       1.0  0.46756  0.74483  0.34835  1.0000
  C   C67       1.0  0.46775  0.78878  0.34057  1.0000
  H   H47       1.0  0.44145  0.80472  0.36119  1.0000
  H   H48       1.0  0.44101  0.73114  0.37438  1.0000
  C   C68       1.0  0.49771  0.67561  0.33130  1.0000
  H   H49       1.0  0.47021  0.66443  0.35765  1.0000
  C   C69       1.0  0.29148  0.00960  0.31825  1.0000
  C   C70       1.0  0.26646  0.04360  0.34869  1.0000
  C   C71       1.0  0.22250  0.04338  0.34103  1.0000
  H   H50       1.0  0.20650  0.06932  0.36343  1.0000
  H   H51       1.0  0.28009  0.06977  0.37656  1.0000
  C   C72       1.0  0.33575  0.01369  0.33034  1.0000
  H   H52       1.0  0.34691  0.04093  0.35793  1.0000
  N   N9        1.0  0.52900  0.14706  0.32073  1.0000
  N   N10       1.0  0.96839  0.37960  0.32432  1.0000
  C   C73       1.0  0.50349  0.31059  0.30885  1.0000
  C   C74       1.0  0.53972  0.28634  0.28368  1.0000
  C   C75       1.0  0.53748  0.24114  0.28143  1.0000
  C   C76       1.0  0.58062  0.30860  0.26638  1.0000
  H   H53       1.0  0.58643  0.33212  0.31835  1.0000
  H   H54       1.0  0.57957  0.32415  0.20110  1.0000
  H   H55       1.0  0.60806  0.28806  0.26830  1.0000
  C   C77       1.0  0.56943  0.21633  0.22960  1.0000
  H   H56       1.0  0.55405  0.19224  0.18894  1.0000
  H   H57       1.0  0.59161  0.20142  0.27561  1.0000
  H   H58       1.0  0.08709  0.23516  0.18148  1.0000
  C   C78       1.0  0.50218  0.35526  0.30387  1.0000
  H   H59       1.0  0.52710  0.37054  0.27594  1.0000
  C   C79       1.0  0.70075  0.00801  0.30722  1.0000
  C   C80       1.0  0.72513  0.97229  0.27937  1.0000
  C   C81       1.0  0.77033  0.97469  0.27732  1.0000
  C   C82       1.0  0.70297  0.93172  0.25832  1.0000
  H   H60       1.0  0.67976  0.92464  0.31018  1.0000
  H   H61       1.0  0.72361  0.90435  0.25679  1.0000
  H   H62       1.0  0.68707  0.93421  0.19359  1.0000
  C   C83       1.0  0.79525  0.94382  0.22281  1.0000
  H   H63       1.0  0.81969  0.95989  0.18440  1.0000
  H   H64       1.0  0.77652  0.92750  0.17239  1.0000
  H   H65       1.0  0.80972  0.42048  0.26677  1.0000
  C   C84       1.0  0.65605  0.00923  0.30293  1.0000
  H   H66       1.0  0.64069  0.98444  0.27463  1.0000
  C   C85       1.0  0.51389  0.02941  0.32710  1.0000
  C   C86       1.0  0.55717  0.51816  0.33773  1.0000
  C   C87       1.0  0.58930  0.04933  0.33078  1.0000
  C   C88       1.0  0.57701  0.09192  0.32599  1.0000
  C   C89       1.0  0.53446  0.10450  0.32074  1.0000
  C   C90       1.0  0.50284  0.07270  0.31585  1.0000
  C   C91       1.0  0.56618  0.47626  0.36267  1.0000
  C   C92       1.0  0.96064  0.08186  0.29355  1.0000
  H   H67       1.0  0.60001  0.11463  0.32448  1.0000
  C   C93       1.0  0.98188  0.49740  0.32699  1.0000
  C   C94       1.0  0.99313  0.45414  0.33767  1.0000
  C   C95       1.0  0.96195  0.42202  0.33041  1.0000
  C   C96       1.0  0.91936  0.43431  0.32506  1.0000
  C   C97       1.0  0.90677  0.47685  0.31989  1.0000
  C   C98       1.0  0.93860  0.00847  0.31552  1.0000
  C   C99       1.0  0.53503  0.44513  0.36266  1.0000
  H   H68       1.0  0.89666  0.41130  0.32328  1.0000
  C   C100      1.0  0.92946  0.05069  0.29339  1.0000
  H   H69       1.0  0.54334  0.41620  0.38645  1.0000
  H   H70       1.0  0.59518  0.46792  0.38604  1.0000
  H   H71       1.0  0.90046  0.05928  0.27088  1.0000
  H   H72       1.0  0.95209  0.11088  0.27109  1.0000
  N   N11       1.0  0.63172  0.04291  0.32431  1.0000
  N   N12       1.0  0.86419  0.48232  0.31942  1.0000
  C   C101      1.0  0.00201  0.21990  0.31988  1.0000
  C   C102      1.0  0.96756  0.24483  0.34835  1.0000
  C   C103      1.0  0.96775  0.28878  0.34057  1.0000
  H   H73       1.0  0.94145  0.30471  0.36119  1.0000
  H   H74       1.0  0.94101  0.23114  0.37438  1.0000
  C   C104      1.0  0.99771  0.17561  0.33130  1.0000
  H   H75       1.0  0.97021  0.16443  0.35765  1.0000
  C   C105      1.0  0.79148  0.50960  0.31825  1.0000
  C   C106      1.0  0.76646  0.54360  0.34869  1.0000
  C   C107      1.0  0.72250  0.54338  0.34103  1.0000
  H   H76       1.0  0.70651  0.56932  0.36343  1.0000
  H   H77       1.0  0.78009  0.56977  0.37656  1.0000
  C   C108      1.0  0.83575  0.51369  0.33034  1.0000
  H   H78       1.0  0.84691  0.54093  0.35793  1.0000
  N   N13       1.0  0.52900  0.64707  0.32073  1.0000
  N   N14       1.0  0.96839  0.87960  0.32432  1.0000
  C   C109      1.0  0.50349  0.81059  0.30885  1.0000
  C   C110      1.0  0.53972  0.78634  0.28368  1.0000
  C   C111      1.0  0.53748  0.74114  0.28143  1.0000
  C   C112      1.0  0.58062  0.80860  0.26638  1.0000
  H   H79       1.0  0.58643  0.83212  0.31835  1.0000
  H   H80       1.0  0.57957  0.82415  0.20110  1.0000
  H   H81       1.0  0.60806  0.78806  0.26830  1.0000
  C   C113      1.0  0.56943  0.71633  0.22960  1.0000
  H   H82       1.0  0.55405  0.69224  0.18894  1.0000
  H   H83       1.0  0.59161  0.70142  0.27561  1.0000
  H   H84       1.0  0.08709  0.73516  0.18148  1.0000
  C   C114      1.0  0.50218  0.85526  0.30387  1.0000
  H   H85       1.0  0.52710  0.87054  0.27594  1.0000
  C   C115      1.0  0.70075  0.50801  0.30722  1.0000
  C   C116      1.0  0.72513  0.47229  0.27937  1.0000
  C   C117      1.0  0.77033  0.47469  0.27732  1.0000
  C   C118      1.0  0.70297  0.43172  0.25832  1.0000
  H   H86       1.0  0.67976  0.42464  0.31018  1.0000
  H   H87       1.0  0.72361  0.40435  0.25679  1.0000
  H   H88       1.0  0.68707  0.43421  0.19359  1.0000
  C   C119      1.0  0.79525  0.44382  0.22281  1.0000
  H   H89       1.0  0.81969  0.45989  0.18440  1.0000
  H   H90       1.0  0.77652  0.42750  0.17239  1.0000
  H   H91       1.0  0.80972  0.92048  0.26677  1.0000
  C   C120      1.0  0.65605  0.50923  0.30293  1.0000
  H   H92       1.0  0.64069  0.48444  0.27463  1.0000
  C   C121      1.0  0.51389  0.52941  0.32710  1.0000
  C   C122      1.0  0.55717  0.01816  0.33773  1.0000
  C   C123      1.0  0.58930  0.54933  0.33078  1.0000
  C   C124      1.0  0.57701  0.59192  0.32599  1.0000
  C   C125      1.0  0.53446  0.60450  0.32074  1.0000
  C   C126      1.0  0.50284  0.57269  0.31585  1.0000
  C   C127      1.0  0.56618  0.97626  0.36267  1.0000
  C   C128      1.0  0.96064  0.58186  0.29355  1.0000
  H   H93       1.0  0.60001  0.61463  0.32448  1.0000
  C   C129      1.0  0.98188  0.99740  0.32699  1.0000
  C   C130      1.0  0.99313  0.95414  0.33767  1.0000
  C   C131      1.0  0.96195  0.92202  0.33041  1.0000
  C   C132      1.0  0.91936  0.93431  0.32506  1.0000
  C   C133      1.0  0.90677  0.97685  0.31989  1.0000
  C   C134      1.0  0.93860  0.50847  0.31552  1.0000
  C   C135      1.0  0.53503  0.94513  0.36266  1.0000
  H   H94       1.0  0.89666  0.91130  0.32328  1.0000
  C   C136      1.0  0.92946  0.55069  0.29339  1.0000
  H   H95       1.0  0.54334  0.91620  0.38645  1.0000
  H   H96       1.0  0.59518  0.96792  0.38604  1.0000
  H   H97       1.0  0.90046  0.55928  0.27088  1.0000
  H   H98       1.0  0.95209  0.61088  0.27109  1.0000
  N   N15       1.0  0.63172  0.54291  0.32431  1.0000
  N   N16       1.0  0.86419  0.98232  0.31942  1.0000
  C   C137      1.0  0.00201  0.71990  0.31988  1.0000
  C   C138      1.0  0.96756  0.74483  0.34835  1.0000
  C   C139      1.0  0.96775  0.78878  0.34057  1.0000
  H   H99       1.0  0.94145  0.80472  0.36119  1.0000
  H   H100      1.0  0.94101  0.73114  0.37438  1.0000
  C   C140      1.0  0.99771  0.67561  0.33130  1.0000
  H   H101      1.0  0.97021  0.66443  0.35765  1.0000
  C   C141      1.0  0.79148  0.00960  0.31825  1.0000
  C   C142      1.0  0.76646  0.04360  0.34869  1.0000
  C   C143      1.0  0.72250  0.04338  0.34103  1.0000
  H   H102      1.0  0.70651  0.06932  0.36343  1.0000
  H   H103      1.0  0.78009  0.06977  0.37656  1.0000
  C   C144      1.0  0.83575  0.01369  0.33034  1.0000
  H   H104      1.0  0.84691  0.04093  0.35793  1.0000
