data_image0
_chemical_formula_structural       C2HC2H4CH4C3H2NHC3H2NHC2H2NHC29H17C3O3C29H17C3O3C3NC2NH2NHC3NC2NH2NHC2NCNHNH
_chemical_formula_sum              "C90 H60 N12 O6"
_cell_length_a       45.0467
_cell_length_b       45.0466
_cell_length_c       14.9825
_cell_angle_alpha    90
_cell_angle_beta     90
_cell_angle_gamma    120

_space_group_name_H-M_alt    "P 1"
_space_group_IT_number       1

loop_
  _space_group_symop_operation_xyz
  'x, y, z'

loop_
  _atom_site_type_symbol
  _atom_site_label
  _atom_site_symmetry_multiplicity
  _atom_site_fract_x
  _atom_site_fract_y
  _atom_site_fract_z
  _atom_site_occupancy
  C   C1        1.0  0.00898  0.50148  0.58329  1.0000
  C   C2        1.0  0.01554  0.50585  0.42458  1.0000
  H   H1        1.0  0.02003  0.50560  0.64495  1.0000
  C   C3        1.0  0.02197  0.51192  0.26347  1.0000
  C   C4        1.0  0.40795  0.85490  0.33950  1.0000
  H   H2        1.0  0.39698  0.86998  0.33452  1.0000
  H   H3        1.0  0.36030  0.80972  0.35229  1.0000
  H   H4        1.0  0.47420  0.60454  0.33440  1.0000
  H   H5        1.0  0.13151  0.52728  0.33454  1.0000
  C   C5        1.0  0.59382  0.14644  0.33059  1.0000
  H   H6        1.0  0.60482  0.13151  0.33890  1.0000
  H   H7        1.0  0.64157  0.19169  0.32087  1.0000
  H   H8        1.0  0.52783  0.39660  0.33896  1.0000
  H   H9        1.0  0.86997  0.47362  0.33894  1.0000
  C   C6        1.0  0.51577  0.47902  0.32931  1.0000
  C   C7        1.0  0.50440  0.48948  0.25410  1.0000
  C   C8        1.0  0.48950  0.51028  0.26359  1.0000
  H   H10       1.0  0.48258  0.51823  0.20736  1.0000
  H   H11       1.0  0.50764  0.48257  0.19133  1.0000
  N   N1        1.0  0.52964  0.45828  0.31732  1.0000
  H   H12       1.0  0.51766  0.43915  0.27606  1.0000
  C   C9        1.0  0.52241  0.03704  0.32920  1.0000
  C   C10       1.0  0.51194  0.01519  0.25404  1.0000
  C   C11       1.0  0.49117  0.97950  0.26361  1.0000
  H   H13       1.0  0.48323  0.96461  0.20742  1.0000
  H   H14       1.0  0.51884  0.02532  0.19125  1.0000
  N   N2        1.0  0.54309  0.07166  0.31710  1.0000
  H   H15       1.0  0.56227  0.07882  0.27599  1.0000
  C   C12       1.0  0.96444  0.48567  0.32912  1.0000
  C   C13       1.0  0.98628  0.49705  0.25394  1.0000
  H   H16       1.0  0.03685  0.51884  0.20726  1.0000
  H   H17       1.0  0.97614  0.49377  0.19115  1.0000
  N   N3        1.0  0.92982  0.47171  0.31701  1.0000
  H   H18       1.0  0.92266  0.48377  0.27603  1.0000
  C   C14       1.0  0.44395  0.86945  0.33337  1.0000
  C   C15       1.0  0.45744  0.84704  0.33736  1.0000
  C   C16       1.0  0.43581  0.81148  0.34777  1.0000
  C   C17       1.0  0.39985  0.79706  0.35279  1.0000
  C   C18       1.0  0.38625  0.81930  0.34930  1.0000
  C   C19       1.0  0.37796  0.76197  0.36204  1.0000
  C   C20       1.0  0.37892  0.73847  0.30857  1.0000
  C   C21       1.0  0.35665  0.70337  0.31560  1.0000
  C   C22       1.0  0.32068  0.68940  0.31495  1.0000
  C   C23       1.0  0.29809  0.65357  0.31552  1.0000
  C   C24       1.0  0.31206  0.63158  0.31492  1.0000
  C   C25       1.0  0.34789  0.64481  0.31552  1.0000
  C   C26       1.0  0.36988  0.68078  0.31498  1.0000
  C   C27       1.0  0.36071  0.62255  0.30850  1.0000
  C   C28       1.0  0.38518  0.62351  0.36198  1.0000
  C   C29       1.0  0.39839  0.60163  0.35273  1.0000
  C   C30       1.0  0.43424  0.61525  0.34919  1.0000
  C   C31       1.0  0.37686  0.56567  0.34771  1.0000
  C   C32       1.0  0.39081  0.54405  0.33725  1.0000
  C   C33       1.0  0.42670  0.55755  0.33326  1.0000
  C   C34       1.0  0.44815  0.59355  0.33946  1.0000
  C   C35       1.0  0.26299  0.64074  0.30852  1.0000
  C   C36       1.0  0.23950  0.61629  0.36202  1.0000
  C   C37       1.0  0.20441  0.60308  0.35280  1.0000
  C   C38       1.0  0.18998  0.62462  0.34782  1.0000
  C   C39       1.0  0.18218  0.56723  0.34927  1.0000
  C   C40       1.0  0.14657  0.55333  0.33955  1.0000
  C   C41       1.0  0.13201  0.57477  0.33345  1.0000
  C   C42       1.0  0.15441  0.61066  0.33743  1.0000
  H   H19       1.0  0.48332  0.85645  0.33398  1.0000
  H   H20       1.0  0.44660  0.79618  0.35138  1.0000
  H   H21       1.0  0.39590  0.69064  0.31200  1.0000
  H   H22       1.0  0.31082  0.70555  0.31201  1.0000
  H   H23       1.0  0.29590  0.60556  0.31196  1.0000
  H   H24       1.0  0.20527  0.65070  0.35145  1.0000
  H   H25       1.0  0.45059  0.64119  0.35224  1.0000
  H   H26       1.0  0.37433  0.51817  0.33388  1.0000
  H   H27       1.0  0.35077  0.55487  0.35135  1.0000
  H   H28       1.0  0.14500  0.62714  0.33409  1.0000
  H   H29       1.0  0.19177  0.55088  0.35229  1.0000
  H   H30       1.0  0.39540  0.64148  0.40901  1.0000
  H   H31       1.0  0.35077  0.60474  0.26096  1.0000
  H   H32       1.0  0.35998  0.75422  0.40904  1.0000
  H   H33       1.0  0.39673  0.74632  0.26104  1.0000
  H   H34       1.0  0.24726  0.60608  0.40905  1.0000
  H   H35       1.0  0.25513  0.65069  0.26098  1.0000
  C   C43       1.0  0.09608  0.56094  0.32092  1.0000
  C   C44       1.0  0.44054  0.53546  0.32066  1.0000
  C   C45       1.0  0.46606  0.90538  0.32085  1.0000
  O   O1        1.0  0.42115  0.50574  0.27584  1.0000
  O   O2        1.0  0.49575  0.91570  0.27584  1.0000
  O   O3        1.0  0.08574  0.58031  0.27596  1.0000
  C   C46       1.0  0.55773  0.13176  0.33255  1.0000
  C   C47       1.0  0.54425  0.15409  0.32453  1.0000
  C   C48       1.0  0.56594  0.18965  0.31425  1.0000
  C   C49       1.0  0.60195  0.20415  0.31325  1.0000
  C   C50       1.0  0.61558  0.18202  0.32075  1.0000
  C   C51       1.0  0.62389  0.23921  0.30418  1.0000
  C   C52       1.0  0.62265  0.26271  0.35709  1.0000
  C   C53       1.0  0.64502  0.29780  0.35047  1.0000
  C   C54       1.0  0.68098  0.31171  0.35114  1.0000
  C   C55       1.0  0.70366  0.34753  0.35051  1.0000
  C   C56       1.0  0.68976  0.36958  0.35112  1.0000
  C   C57       1.0  0.65394  0.35644  0.35048  1.0000
  C   C58       1.0  0.63189  0.32049  0.35108  1.0000
  C   C59       1.0  0.64120  0.37881  0.35708  1.0000
  C   C60       1.0  0.61648  0.37757  0.30416  1.0000
  C   C61       1.0  0.60334  0.39950  0.31322  1.0000
  C   C62       1.0  0.56758  0.38585  0.32075  1.0000
  C   C63       1.0  0.62485  0.43551  0.31423  1.0000
  C   C64       1.0  0.61096  0.45719  0.32453  1.0000
  C   C65       1.0  0.57515  0.44370  0.33259  1.0000
  C   C66       1.0  0.55375  0.40761  0.33059  1.0000
  C   C67       1.0  0.73876  0.36027  0.35715  1.0000
  C   C68       1.0  0.76226  0.38500  0.30426  1.0000
  C   C69       1.0  0.79732  0.39812  0.31334  1.0000
  C   C70       1.0  0.81181  0.37660  0.31435  1.0000
  C   C71       1.0  0.81945  0.43388  0.32087  1.0000
  C   C72       1.0  0.85504  0.44769  0.33068  1.0000
  C   C73       1.0  0.86971  0.42628  0.33263  1.0000
  C   C74       1.0  0.84738  0.39047  0.32462  1.0000
  H   H36       1.0  0.51833  0.14464  0.32505  1.0000
  H   H37       1.0  0.55518  0.20490  0.30785  1.0000
  H   H38       1.0  0.60588  0.31067  0.35395  1.0000
  H   H39       1.0  0.69079  0.29551  0.35401  1.0000
  H   H40       1.0  0.70596  0.39559  0.35401  1.0000
  H   H41       1.0  0.79657  0.35059  0.30794  1.0000
  H   H42       1.0  0.55128  0.35987  0.32087  1.0000
  H   H43       1.0  0.62742  0.48312  0.32505  1.0000
  H   H44       1.0  0.65085  0.44628  0.30780  1.0000
  H   H45       1.0  0.85683  0.37400  0.32515  1.0000
  H   H46       1.0  0.80979  0.45020  0.32091  1.0000
  H   H47       1.0  0.60597  0.35934  0.25785  1.0000
  H   H48       1.0  0.65142  0.39691  0.40384  1.0000
  H   H49       1.0  0.64213  0.24693  0.25788  1.0000
  H   H50       1.0  0.60455  0.25482  0.40384  1.0000
  H   H51       1.0  0.75454  0.39551  0.25795  1.0000
  H   H52       1.0  0.74664  0.35004  0.40390  1.0000
  C   C75       1.0  0.90561  0.43998  0.34584  1.0000
  C   C76       1.0  0.56144  0.46588  0.34586  1.0000
  C   C77       1.0  0.53553  0.09586  0.34578  1.0000
  O   O4        1.0  0.58181  0.49656  0.38559  1.0000
  O   O5        1.0  0.50486  0.08555  0.38552  1.0000
  O   O6        1.0  0.91592  0.41960  0.38556  1.0000
  C   C78       1.0  0.48466  0.52069  0.34881  1.0000
  C   C79       1.0  0.49560  0.50997  0.42470  1.0000
  C   C80       1.0  0.51072  0.48896  0.41513  1.0000
  N   N4        1.0  0.51931  0.47817  0.49066  1.0000
  C   C81       1.0  0.51459  0.48681  0.57402  1.0000
  C   C82       1.0  0.49995  0.50779  0.58342  1.0000
  N   N5        1.0  0.49089  0.51838  0.50877  1.0000
  H   H53       1.0  0.52153  0.47809  0.62861  1.0000
  H   H54       1.0  0.49584  0.51474  0.64506  1.0000
  N   N6        1.0  0.47083  0.54165  0.35736  1.0000
  H   H55       1.0  0.48181  0.56033  0.40033  1.0000
  C   C83       1.0  0.48079  0.96427  0.34885  1.0000
  C   C84       1.0  0.49150  0.98595  0.42470  1.0000
  C   C85       1.0  0.51248  0.02208  0.41506  1.0000
  N   N7        1.0  0.52327  0.04148  0.49055  1.0000
  C   C86       1.0  0.51465  0.02815  0.57394  1.0000
  C   C87       1.0  0.49369  0.99253  0.58341  1.0000
  N   N8        1.0  0.48312  0.97286  0.50880  1.0000
  H   H56       1.0  0.52337  0.04382  0.62849  1.0000
  H   H57       1.0  0.48677  0.98148  0.64507  1.0000
  N   N9        1.0  0.45987  0.92947  0.35750  1.0000
  H   H58       1.0  0.44117  0.92178  0.40040  1.0000
  C   C88       1.0  0.03720  0.51677  0.34871  1.0000
  C   C89       1.0  0.97941  0.49072  0.41497  1.0000
  N   N10       1.0  0.96002  0.48212  0.49048  1.0000
  C   C90       1.0  0.97336  0.48683  0.57385  1.0000
  N   N11       1.0  0.02864  0.51055  0.50867  1.0000
  H   H59       1.0  0.95770  0.47990  0.62842  1.0000
  N   N12       1.0  0.07200  0.53057  0.35724  1.0000
  H   H60       1.0  0.07966  0.51960  0.40033  1.0000
