data_image0
_chemical_formula_structural       C2HNHC4HNO2NO2CNCNCN2OC3HNHC4HC3HOC2HC3H2NO2C2HC3HNH2NO2C2HC3HNH2NO2C4H2NO2C7H2NH2NO2C3HNH2C7H2NH2NO2C7H2NH2NO2C7H2NH2NO2CNCNCNCNCNCNCNCNCNCNCNCNCNCNCNC3HNH2C7H2NH2NO2C7H2NH2NO2C2HNH2C2HC3HNH2NO2C3HNH2NO2C2HC3HNH2NO2C2HC3HNH2NO2C2HC3HNH2NO2
_chemical_formula_sum              "C126 H72 N54 O36"
_cell_length_a       46.5091
_cell_length_b       46.5092
_cell_length_c       14.8279
_cell_angle_alpha    90
_cell_angle_beta     90
_cell_angle_gamma    120

_space_group_name_H-M_alt    "P 1"
_space_group_IT_number       1

loop_
  _space_group_symop_operation_xyz
  'x, y, z'

loop_
  _atom_site_type_symbol
  _atom_site_label
  _atom_site_symmetry_multiplicity
  _atom_site_fract_x
  _atom_site_fract_y
  _atom_site_fract_z
  _atom_site_occupancy
  C   C1        1.0  0.04474  0.49687  0.31449  1.0000
  C   C2        1.0  0.08003  0.51546  0.31682  1.0000
  H   H1        1.0  0.09263  0.50393  0.29513  1.0000
  N   N1        1.0  0.02981  0.46521  0.28235  1.0000
  H   H2        1.0  0.04277  0.45531  0.26139  1.0000
  C   C3        1.0  0.09852  0.54914  0.34500  1.0000
  C   C4        1.0  0.07960  0.56417  0.37173  1.0000
  C   C5        1.0  0.04430  0.54559  0.37112  1.0000
  C   C6        1.0  0.02620  0.51195  0.34397  1.0000
  H   H3        1.0  0.03151  0.55702  0.39219  1.0000
  N   N2        1.0  0.09589  0.59769  0.40062  1.0000
  O   O1        1.0  0.08908  0.61535  0.35081  1.0000
  O   O2        1.0  0.08889  0.60047  0.48082  1.0000
  N   N3        1.0  0.17569  0.66566  0.26994  1.0000
  O   O3        1.0  0.18046  0.67100  0.18669  1.0000
  O   O4        1.0  0.16127  0.68048  0.29930  1.0000
  C   C7        1.0  0.18797  0.61623  0.35381  1.0000
  N   N4        1.0  0.15404  0.60008  0.35260  1.0000
  C   C8        1.0  0.13460  0.56617  0.34498  1.0000
  N   N5        1.0  0.15109  0.54867  0.33722  1.0000
  C   C9        1.0  0.18484  0.56378  0.33540  1.0000
  N   N6        1.0  0.20211  0.59709  0.34424  1.0000
  N   N7        1.0  0.19058  0.52789  0.48362  1.0000
  O   O5        1.0  0.17782  0.49800  0.50686  1.0000
  C   C10       1.0  0.26271  0.54203  0.33693  1.0000
  C   C11       1.0  0.25576  0.55485  0.25777  1.0000
  C   C12       1.0  0.22661  0.55732  0.25507  1.0000
  H   H4        1.0  0.22298  0.56883  0.20082  1.0000
  N   N8        1.0  0.27704  0.56686  0.18645  1.0000
  H   H5        1.0  0.27201  0.57595  0.13349  1.0000
  C   C13       1.0  0.21038  0.65132  0.36168  1.0000
  C   C14       1.0  0.20577  0.67565  0.31663  1.0000
  C   C15       1.0  0.23213  0.70916  0.31392  1.0000
  C   C16       1.0  0.26338  0.71923  0.35408  1.0000
  H   H6        1.0  0.22899  0.72608  0.27738  1.0000
  C   C17       1.0  0.20454  0.54835  0.32901  1.0000
  C   C18       1.0  0.21103  0.53473  0.40665  1.0000
  C   C19       1.0  0.23956  0.53109  0.40881  1.0000
  H   H7        1.0  0.24511  0.52335  0.46762  1.0000
  O   O6        1.0  0.20657  0.54594  0.54924  1.0000
  C   C20       1.0  0.26783  0.69528  0.40232  1.0000
  C   C21       1.0  0.24110  0.66223  0.40645  1.0000
  H   H8        1.0  0.24488  0.64513  0.44004  1.0000
  C   C22       1.0  0.91836  0.46165  0.34087  1.0000
  C   C23       1.0  0.93812  0.48955  0.28488  1.0000
  C   C24       1.0  0.97333  0.50538  0.28817  1.0000
  H   H9        1.0  0.98685  0.52495  0.24564  1.0000
  H   H10       1.0  0.00591  0.45187  0.27553  1.0000
  N   N9        1.0  0.92248  0.50060  0.22307  1.0000
  O   O7        1.0  0.92968  0.49814  0.14281  1.0000
  O   O8        1.0  0.93011  0.53018  0.23798  1.0000
  C   C25       1.0  0.51760  0.55074  0.31447  1.0000
  C   C26       1.0  0.49902  0.56744  0.31678  1.0000
  H   H11       1.0  0.51056  0.59156  0.29512  1.0000
  C   C27       1.0  0.55284  0.45960  0.34089  1.0000
  C   C28       1.0  0.52494  0.45145  0.28488  1.0000
  C   C29       1.0  0.50910  0.47081  0.28817  1.0000
  H   H12       1.0  0.48953  0.46475  0.24563  1.0000
  N   N10       1.0  0.54927  0.56746  0.28237  1.0000
  H   H13       1.0  0.55917  0.59032  0.26142  1.0000
  H   H14       1.0  0.56261  0.55690  0.27556  1.0000
  N   N11       1.0  0.51391  0.42477  0.22305  1.0000
  O   O9        1.0  0.51637  0.43443  0.14279  1.0000
  O   O10       1.0  0.48433  0.40280  0.23794  1.0000
  C   C30       1.0  0.46374  0.96976  0.31449  1.0000
  C   C31       1.0  0.44705  0.93447  0.31682  1.0000
  H   H15       1.0  0.42292  0.92188  0.29514  1.0000
  C   C32       1.0  0.55489  0.09614  0.34084  1.0000
  C   C33       1.0  0.56303  0.07638  0.28485  1.0000
  C   C34       1.0  0.54367  0.04118  0.28814  1.0000
  H   H16       1.0  0.54972  0.02766  0.24560  1.0000
  N   N12       1.0  0.44701  0.98469  0.28238  1.0000
  H   H17       1.0  0.42415  0.97173  0.26143  1.0000
  H   H18       1.0  0.45757  0.00859  0.27556  1.0000
  N   N13       1.0  0.58971  0.09203  0.22301  1.0000
  O   O11       1.0  0.58005  0.08482  0.14276  1.0000
  O   O12       1.0  0.61167  0.08441  0.23791  1.0000
  C   C35       1.0  0.36319  0.56204  0.36147  1.0000
  C   C36       1.0  0.33886  0.53306  0.31661  1.0000
  C   C37       1.0  0.30534  0.52591  0.31392  1.0000
  C   C38       1.0  0.29528  0.54711  0.35394  1.0000
  H   H19       1.0  0.28841  0.50582  0.27752  1.0000
  H   H20       1.0  0.29758  0.56625  0.18486  1.0000
  N   N14       1.0  0.34883  0.51292  0.27011  1.0000
  O   O13       1.0  0.34345  0.51226  0.18686  1.0000
  O   O14       1.0  0.33400  0.48370  0.29969  1.0000
  C   C39       1.0  0.45251  0.80408  0.36148  1.0000
  C   C40       1.0  0.48148  0.80871  0.31660  1.0000
  C   C41       1.0  0.48862  0.78234  0.31394  1.0000
  C   C42       1.0  0.46744  0.75110  0.35412  1.0000
  C   C43       1.0  0.47253  0.72361  0.33723  1.0000
  C   C44       1.0  0.45966  0.70381  0.25813  1.0000
  C   C45       1.0  0.45726  0.67221  0.25537  1.0000
  H   H21       1.0  0.44566  0.65704  0.20126  1.0000
  H   H22       1.0  0.50872  0.78550  0.27756  1.0000
  N   N15       1.0  0.44755  0.71301  0.18690  1.0000
  H   H23       1.0  0.44812  0.73414  0.18532  1.0000
  H   H24       1.0  0.43844  0.69888  0.13399  1.0000
  N   N16       1.0  0.50160  0.83880  0.26999  1.0000
  O   O15       1.0  0.50223  0.83405  0.18675  1.0000
  O   O16       1.0  0.53083  0.85322  0.29950  1.0000
  C   C46       1.0  0.29088  0.75180  0.33701  1.0000
  C   C47       1.0  0.31065  0.75871  0.25789  1.0000
  C   C48       1.0  0.34228  0.78785  0.25520  1.0000
  H   H25       1.0  0.35741  0.79146  0.20096  1.0000
  N   N17       1.0  0.30139  0.73742  0.18662  1.0000
  H   H26       1.0  0.28023  0.71688  0.18503  1.0000
  H   H27       1.0  0.31551  0.74242  0.13369  1.0000
  C   C49       1.0  0.65498  0.45097  0.36220  1.0000
  C   C50       1.0  0.67910  0.47872  0.31278  1.0000
  C   C51       1.0  0.71244  0.48535  0.30956  1.0000
  C   C52       1.0  0.72245  0.46470  0.35317  1.0000
  C   C53       1.0  0.75458  0.46879  0.33507  1.0000
  C   C54       1.0  0.76039  0.45447  0.25716  1.0000
  C   C55       1.0  0.78939  0.45175  0.25355  1.0000
  H   H28       1.0  0.79224  0.43924  0.20050  1.0000
  H   H29       1.0  0.72916  0.50445  0.26990  1.0000
  N   N18       1.0  0.73823  0.44132  0.18803  1.0000
  H   H30       1.0  0.71769  0.44195  0.18722  1.0000
  H   H31       1.0  0.74251  0.43124  0.13599  1.0000
  N   N19       1.0  0.66900  0.49792  0.26210  1.0000
  O   O17       1.0  0.67356  0.49646  0.17908  1.0000
  O   O18       1.0  0.68438  0.52781  0.28630  1.0000
  C   C56       1.0  0.56359  0.20694  0.36207  1.0000
  C   C57       1.0  0.53581  0.20329  0.31275  1.0000
  C   C58       1.0  0.52917  0.22998  0.30953  1.0000
  C   C59       1.0  0.54987  0.26068  0.35296  1.0000
  C   C60       1.0  0.54579  0.28872  0.33475  1.0000
  C   C61       1.0  0.56010  0.30883  0.25681  1.0000
  C   C62       1.0  0.56289  0.34058  0.25329  1.0000
  H   H32       1.0  0.57532  0.35591  0.20010  1.0000
  H   H33       1.0  0.51007  0.22761  0.26989  1.0000
  N   N20       1.0  0.57316  0.29976  0.18761  1.0000
  H   H34       1.0  0.57247  0.27856  0.18676  1.0000
  H   H35       1.0  0.58325  0.31411  0.13554  1.0000
  N   N21       1.0  0.51658  0.17396  0.26222  1.0000
  O   O19       1.0  0.51798  0.17993  0.17917  1.0000
  O   O20       1.0  0.48670  0.15946  0.28657  1.0000
  C   C63       1.0  0.80755  0.35957  0.36204  1.0000
  C   C64       1.0  0.81121  0.33544  0.31276  1.0000
  C   C65       1.0  0.78451  0.30210  0.30957  1.0000
  C   C66       1.0  0.75384  0.29209  0.35312  1.0000
  C   C67       1.0  0.72581  0.25995  0.33503  1.0000
  C   C68       1.0  0.70567  0.25415  0.25714  1.0000
  C   C69       1.0  0.67395  0.22514  0.25356  1.0000
  H   H36       1.0  0.65859  0.22229  0.20050  1.0000
  H   H37       1.0  0.78690  0.28536  0.27000  1.0000
  N   N22       1.0  0.71468  0.27631  0.18801  1.0000
  H   H38       1.0  0.73585  0.29684  0.18718  1.0000
  H   H39       1.0  0.70031  0.27202  0.13598  1.0000
  N   N23       1.0  0.84053  0.34553  0.26218  1.0000
  O   O21       1.0  0.83454  0.34094  0.17914  1.0000
  O   O22       1.0  0.85504  0.33017  0.28652  1.0000
  C   C70       1.0  0.39828  0.57468  0.35371  1.0000
  N   N24       1.0  0.41441  0.55688  0.35246  1.0000
  C   C71       1.0  0.44832  0.57132  0.34493  1.0000
  N   N25       1.0  0.46584  0.60531  0.33728  1.0000
  C   C72       1.0  0.45077  0.62398  0.33548  1.0000
  N   N26       1.0  0.41746  0.60796  0.34426  1.0000
  C   C73       1.0  0.43986  0.82652  0.35363  1.0000
  N   N27       1.0  0.45765  0.86045  0.35247  1.0000
  C   C74       1.0  0.44319  0.87990  0.34493  1.0000
  N   N28       1.0  0.40920  0.86342  0.33723  1.0000
  C   C75       1.0  0.39055  0.82967  0.33540  1.0000
  N   N29       1.0  0.40658  0.81239  0.34414  1.0000
  C   C76       1.0  0.82983  0.39462  0.35351  1.0000
  N   N30       1.0  0.86378  0.41091  0.35167  1.0000
  C   C77       1.0  0.88257  0.44475  0.34142  1.0000
  N   N31       1.0  0.86607  0.46215  0.33285  1.0000
  C   C78       1.0  0.83230  0.44669  0.33223  1.0000
  N   N32       1.0  0.81533  0.41342  0.34288  1.0000
  C   C79       1.0  0.61992  0.43817  0.35365  1.0000
  N   N33       1.0  0.60361  0.45581  0.35176  1.0000
  C   C80       1.0  0.56977  0.44073  0.34141  1.0000
  N   N34       1.0  0.55240  0.40684  0.33271  1.0000
  C   C81       1.0  0.56790  0.38856  0.33198  1.0000
  N   N35       1.0  0.60116  0.40488  0.34280  1.0000
  C   C82       1.0  0.57639  0.18467  0.35360  1.0000
  N   N36       1.0  0.55872  0.15072  0.35169  1.0000
  C   C83       1.0  0.57377  0.13193  0.34139  1.0000
  N   N37       1.0  0.60767  0.14843  0.33279  1.0000
  C   C84       1.0  0.62597  0.18221  0.33209  1.0000
  N   N38       1.0  0.60967  0.19917  0.34286  1.0000
  C   C85       1.0  0.99027  0.49476  0.34652  1.0000
  C   C86       1.0  0.97064  0.46719  0.40413  1.0000
  C   C87       1.0  0.93540  0.45097  0.39889  1.0000
  H   H40       1.0  0.92170  0.43137  0.44121  1.0000
  N   N39       1.0  0.98453  0.45607  0.46579  1.0000
  H   H41       1.0  0.00835  0.46705  0.47507  1.0000
  H   H42       1.0  0.97087  0.43750  0.50558  1.0000
  C   C88       1.0  0.46534  0.55226  0.34493  1.0000
  C   C89       1.0  0.45029  0.51831  0.37161  1.0000
  C   C90       1.0  0.46886  0.50157  0.37102  1.0000
  C   C91       1.0  0.50252  0.51711  0.34393  1.0000
  C   C92       1.0  0.51970  0.49837  0.34652  1.0000
  C   C93       1.0  0.54727  0.50632  0.40416  1.0000
  C   C94       1.0  0.56349  0.48730  0.39896  1.0000
  H   H43       1.0  0.58311  0.49324  0.44123  1.0000
  H   H44       1.0  0.45743  0.47736  0.39209  1.0000
  N   N40       1.0  0.55838  0.53132  0.46581  1.0000
  H   H45       1.0  0.54739  0.54416  0.47508  1.0000
  H   H46       1.0  0.57695  0.53624  0.50563  1.0000
  N   N41       1.0  0.41677  0.50108  0.40046  1.0000
  O   O23       1.0  0.39912  0.47662  0.35062  1.0000
  O   O24       1.0  0.41397  0.49128  0.48066  1.0000
  C   C95       1.0  0.46224  0.91598  0.34496  1.0000
  C   C96       1.0  0.49619  0.93490  0.37167  1.0000
  C   C97       1.0  0.51292  0.97020  0.37107  1.0000
  C   C98       1.0  0.49736  0.98830  0.34395  1.0000
  C   C99       1.0  0.51610  0.02423  0.34650  1.0000
  C   C100      1.0  0.50816  0.04385  0.40413  1.0000
  C   C101      1.0  0.52717  0.07910  0.39888  1.0000
  H   H47       1.0  0.52127  0.09279  0.44121  1.0000
  H   H48       1.0  0.53713  0.98299  0.39213  1.0000
  N   N42       1.0  0.48316  0.02996  0.46581  1.0000
  H   H49       1.0  0.47033  0.00615  0.47509  1.0000
  H   H50       1.0  0.47825  0.04362  0.50561  1.0000
  N   N43       1.0  0.51342  0.91861  0.40052  1.0000
  O   O25       1.0  0.53788  0.92542  0.35069  1.0000
  O   O26       1.0  0.52322  0.92561  0.48072  1.0000
  C   C102      1.0  0.31925  0.57556  0.40205  1.0000
  C   C103      1.0  0.35230  0.58189  0.40616  1.0000
  H   H51       1.0  0.36941  0.60278  0.43966  1.0000
  N   N44       1.0  0.31230  0.59792  0.44129  1.0000
  H   H52       1.0  0.32935  0.61746  0.47250  1.0000
  H   H53       1.0  0.29041  0.59561  0.43852  1.0000
  C   C104      1.0  0.43903  0.74665  0.40234  1.0000
  C   C105      1.0  0.43270  0.77338  0.40638  1.0000
  H   H54       1.0  0.41182  0.76961  0.43990  1.0000
  C   C106      1.0  0.46627  0.65912  0.32929  1.0000
  C   C107      1.0  0.47991  0.67928  0.40681  1.0000
  C   C108      1.0  0.48357  0.71146  0.40896  1.0000
  H   H55       1.0  0.49130  0.72475  0.46776  1.0000
  N   N45       1.0  0.41671  0.71738  0.44178  1.0000
  H   H56       1.0  0.39719  0.71490  0.47308  1.0000
  H   H57       1.0  0.41903  0.69779  0.43909  1.0000
  N   N46       1.0  0.48675  0.66566  0.48378  1.0000
  O   O27       1.0  0.46870  0.66362  0.54940  1.0000
  O   O28       1.0  0.51663  0.68277  0.50701  1.0000
  C   C109      1.0  0.35544  0.80998  0.32904  1.0000
  C   C110      1.0  0.33527  0.80348  0.40659  1.0000
  C   C111      1.0  0.30308  0.77497  0.40881  1.0000
  H   H58       1.0  0.28979  0.76945  0.46761  1.0000
  N   N47       1.0  0.29712  0.70223  0.44168  1.0000
  H   H59       1.0  0.29961  0.68519  0.47297  1.0000
  H   H60       1.0  0.31672  0.72413  0.43889  1.0000
  N   N48       1.0  0.34887  0.82395  0.48354  1.0000
  O   O29       1.0  0.35091  0.80797  0.54922  1.0000
  O   O30       1.0  0.33176  0.83674  0.50668  1.0000
  C   C112      1.0  0.69870  0.43753  0.40570  1.0000
  C   C113      1.0  0.66585  0.43180  0.41044  1.0000
  H   H61       1.0  0.64877  0.41165  0.44652  1.0000
  C   C114      1.0  0.81238  0.46187  0.32560  1.0000
  C   C115      1.0  0.80698  0.47692  0.40188  1.0000
  C   C116      1.0  0.77863  0.48085  0.40473  1.0000
  H   H62       1.0  0.77391  0.48971  0.46276  1.0000
  N   N49       1.0  0.70559  0.41572  0.44846  1.0000
  H   H63       1.0  0.68869  0.39701  0.48266  1.0000
  H   H64       1.0  0.72731  0.41760  0.44551  1.0000
  N   N50       1.0  0.82837  0.48493  0.47722  1.0000
  O   O31       1.0  0.81314  0.46805  0.54528  1.0000
  O   O32       1.0  0.84158  0.51519  0.49679  1.0000
  C   C117      1.0  0.57707  0.26412  0.40536  1.0000
  C   C118      1.0  0.58281  0.23701  0.41015  1.0000
  H   H65       1.0  0.60296  0.24009  0.44620  1.0000
  C   C119      1.0  0.55278  0.35346  0.32529  1.0000
  C   C120      1.0  0.53773  0.33304  0.40163  1.0000
  C   C121      1.0  0.53381  0.30076  0.40451  1.0000
  H   H66       1.0  0.52491  0.28717  0.46254  1.0000
  N   N51       1.0  0.59892  0.29286  0.44795  1.0000
  H   H67       1.0  0.61766  0.29468  0.48205  1.0000
  H   H68       1.0  0.59705  0.31269  0.44495  1.0000
  N   N52       1.0  0.52970  0.34641  0.47695  1.0000
  O   O33       1.0  0.54657  0.34806  0.54504  1.0000
  O   O34       1.0  0.49944  0.32934  0.49650  1.0000
  C   C122      1.0  0.75041  0.31584  0.40557  1.0000
  C   C123      1.0  0.77751  0.34870  0.41028  1.0000
  H   H69       1.0  0.77443  0.36578  0.44630  1.0000
  C   C124      1.0  0.66107  0.20212  0.32556  1.0000
  C   C125      1.0  0.68155  0.20755  0.40180  1.0000
  C   C126      1.0  0.71383  0.23590  0.40466  1.0000
  H   H70       1.0  0.72742  0.24063  0.46270  1.0000
  N   N53       1.0  0.72169  0.30894  0.44830  1.0000
  H   H71       1.0  0.71987  0.32585  0.48244  1.0000
  H   H72       1.0  0.70187  0.28722  0.44538  1.0000
  N   N54       1.0  0.66818  0.18616  0.47715  1.0000
  O   O35       1.0  0.66653  0.20139  0.54521  1.0000
  O   O36       1.0  0.68523  0.17296  0.49672  1.0000
