data_image0
_chemical_formula_structural       C11H7C2O4CNCOCH3NHCNC2NCOCHNHNHC14H9C2NC2OCH3NHOH2CH3C11H7C2O4CNCOCH3NHCNC2NCOCHNHNHC14H9C2NC2OCH3NHOH2CH3C11H7C2O4CNCOCH3NHCNC2NCOCHNHNHC14H9C2NC2OCH3NHOH2CH3C11H7C2O4CNCOCH3NHCNC2NCOCHNHNHC14H9C2NC2OCH3NHOH2CH3
_chemical_formula_sum              "C164 H128 O32 N32"
_cell_length_a       30.6774
_cell_length_b       30.6774
_cell_length_c       15.0124
_cell_angle_alpha    90
_cell_angle_beta     90
_cell_angle_gamma    90

_space_group_name_H-M_alt    "P 1"
_space_group_IT_number       1

loop_
  _space_group_symop_operation_xyz
  'x, y, z'

loop_
  _atom_site_type_symbol
  _atom_site_label
  _atom_site_symmetry_multiplicity
  _atom_site_fract_x
  _atom_site_fract_y
  _atom_site_fract_z
  _atom_site_occupancy
  C   C1        1.0  0.46002  0.49627  0.00132  1.0000
  C   C2        1.0  0.44152  0.45560  0.02601  1.0000
  C   C3        1.0  0.41256  0.45177  0.09807  1.0000
  C   C4        1.0  0.40087  0.48839  0.15014  1.0000
  C   C5        1.0  0.41972  0.02895  0.12752  1.0000
  C   C6        1.0  0.44868  0.03263  0.05531  1.0000
  C   C7        1.0  0.05597  0.04036  0.02739  1.0000
  C   C8        1.0  0.08768  0.04137  0.09496  1.0000
  C   C9        1.0  0.10061  0.00292  0.13981  1.0000
  C   C10       1.0  0.07953  0.46366  0.11577  1.0000
  C   C11       1.0  0.04815  0.46274  0.04762  1.0000
  H   H1        1.0  0.40003  0.42158  0.11172  1.0000
  H   H2        1.0  0.41370  0.05613  0.16499  1.0000
  H   H3        1.0  0.46271  0.06235  0.04399  1.0000
  H   H4        1.0  0.04689  0.06946  0.00006  1.0000
  H   H5        1.0  0.10167  0.07074  0.11000  1.0000
  H   H6        1.0  0.08631  0.43518  0.14833  1.0000
  H   H7        1.0  0.03347  0.43358  0.03396  1.0000
  C   C12       1.0  0.36938  0.48401  0.21966  1.0000
  C   C13       1.0  0.13571  0.00395  0.20246  1.0000
  O   O1        1.0  0.14563  0.04287  0.24031  1.0000
  O   O2        1.0  0.44794  0.14901  0.30320  1.0000
  O   O3        1.0  0.36223  0.44362  0.25347  1.0000
  O   O4        1.0  0.04648  0.36523  0.27593  1.0000
  C   C14       1.0  0.98857  0.29864  0.30270  1.0000
  N   N1        1.0  0.99380  0.22727  0.24152  1.0000
  C   C15       1.0  0.98257  0.26987  0.23042  1.0000
  O   O5        1.0  0.96384  0.28325  0.15251  1.0000
  C   C16       1.0  0.99531  0.29623  0.08667  1.0000
  H   H8        1.0  0.97774  0.30617  0.02693  1.0000
  H   H9        1.0  0.01695  0.26928  0.06893  1.0000
  H   H10       1.0  0.51473  0.32394  0.10943  1.0000
  N   N2        1.0  0.97586  0.34097  0.30229  1.0000
  H   H11       1.0  0.94797  0.34543  0.33185  1.0000
  C   C17       1.0  0.20840  0.47987  0.21804  1.0000
  N   N3        1.0  0.22440  0.49723  0.29494  1.0000
  C   C18       1.0  0.26704  0.50827  0.30627  1.0000
  C   C19       1.0  0.29582  0.50238  0.23397  1.0000
  N   N4        1.0  0.27962  0.48590  0.15680  1.0000
  C   C20       1.0  0.23742  0.47436  0.14573  1.0000
  O   O6        1.0  0.22419  0.45870  0.06477  1.0000
  C   C21       1.0  0.21507  0.49258  0.00119  1.0000
  H   H12       1.0  0.18908  0.51415  0.02437  1.0000
  N   N5        1.0  0.33821  0.51488  0.23463  1.0000
  H   H13       1.0  0.34266  0.54349  0.20813  1.0000
  N   N6        1.0  0.16519  0.47072  0.20778  1.0000
  H   H14       1.0  0.15937  0.44450  0.17337  1.0000
  C   C22       1.0  0.48998  0.10381  0.39986  1.0000
  C   C23       1.0  0.02973  0.08273  0.42014  1.0000
  C   C24       1.0  0.03210  0.05108  0.48758  1.0000
  C   C25       1.0  0.49507  0.03873  0.53858  1.0000
  C   C26       1.0  0.45498  0.05874  0.51487  1.0000
  C   C27       1.0  0.45253  0.09071  0.44794  1.0000
  C   C28       1.0  0.99761  0.49965  0.60156  1.0000
  C   C29       1.0  0.99954  0.46271  0.53331  1.0000
  C   C30       1.0  0.46204  0.45163  0.48244  1.0000
  C   C31       1.0  0.46412  0.42283  0.40969  1.0000
  C   C32       1.0  0.00410  0.40388  0.38338  1.0000
  C   C33       1.0  0.04182  0.41542  0.43214  1.0000
  C   C34       1.0  0.03959  0.44422  0.50473  1.0000
  C   C35       1.0  0.03608  0.00083  0.66633  1.0000
  H   H15       1.0  0.45028  0.42757  0.66064  1.0000
  H   H16       1.0  0.06831  0.45277  0.53437  1.0000
  H   H17       1.0  0.07164  0.40277  0.41582  1.0000
  H   H18       1.0  0.43612  0.41676  0.37487  1.0000
  H   H19       1.0  0.43259  0.46556  0.49681  1.0000
  H   H20       1.0  0.42650  0.04946  0.54456  1.0000
  H   H21       1.0  0.06151  0.03628  0.49818  1.0000
  H   H22       1.0  0.05748  0.08956  0.38505  1.0000
  H   H23       1.0  0.42284  0.10467  0.43559  1.0000
  C   C36       1.0  0.00690  0.37232  0.31364  1.0000
  C   C37       1.0  0.48761  0.13896  0.33750  1.0000
  N   N7        1.0  0.00565  0.28256  0.37942  1.0000
  C   C38       1.0  0.01750  0.24041  0.39018  1.0000
  C   C39       1.0  0.01161  0.21136  0.31805  1.0000
  O   O7        1.0  0.03398  0.22724  0.47048  1.0000
  C   C40       1.0  0.00079  0.21810  0.53553  1.0000
  H   H24       1.0  0.01678  0.20731  0.59651  1.0000
  H   H25       1.0  0.97901  0.19210  0.51334  1.0000
  H   H26       1.0  0.48168  0.24719  0.55092  1.0000
  N   N8        1.0  0.02085  0.16819  0.32811  1.0000
  H   H27       1.0  0.04779  0.16248  0.36022  1.0000
  O   O8        1.0  0.28043  0.52669  0.38448  1.0000
  H   H28       1.0  0.20427  0.47726  0.60619  1.0000
  H   H29       1.0  0.24418  0.01184  0.65329  1.0000
  C   C41       1.0  0.29399  0.49502  0.44942  1.0000
  H   H30       1.0  0.30390  0.51239  0.50944  1.0000
  H   H31       1.0  0.32188  0.97608  0.42584  1.0000
  H   H32       1.0  0.26736  0.47296  0.46698  1.0000
  C   C42       1.0  0.46002  0.99627  0.00132  1.0000
  C   C43       1.0  0.44152  0.95561  0.02601  1.0000
  C   C44       1.0  0.41256  0.95177  0.09807  1.0000
  C   C45       1.0  0.40087  0.98839  0.15014  1.0000
  C   C46       1.0  0.41972  0.52895  0.12752  1.0000
  C   C47       1.0  0.44868  0.53263  0.05531  1.0000
  C   C48       1.0  0.05597  0.54036  0.02739  1.0000
  C   C49       1.0  0.08768  0.54137  0.09496  1.0000
  C   C50       1.0  0.10061  0.50292  0.13981  1.0000
  C   C51       1.0  0.07953  0.96366  0.11577  1.0000
  C   C52       1.0  0.04815  0.96274  0.04762  1.0000
  H   H33       1.0  0.40003  0.92158  0.11172  1.0000
  H   H34       1.0  0.41370  0.55613  0.16499  1.0000
  H   H35       1.0  0.46271  0.56235  0.04399  1.0000
  H   H36       1.0  0.04689  0.56946  0.00006  1.0000
  H   H37       1.0  0.10167  0.57074  0.11000  1.0000
  H   H38       1.0  0.08631  0.93518  0.14833  1.0000
  H   H39       1.0  0.03347  0.93358  0.03396  1.0000
  C   C53       1.0  0.36938  0.98401  0.21966  1.0000
  C   C54       1.0  0.13571  0.50395  0.20246  1.0000
  O   O9        1.0  0.14563  0.54287  0.24031  1.0000
  O   O10       1.0  0.44794  0.64901  0.30320  1.0000
  O   O11       1.0  0.36223  0.94362  0.25347  1.0000
  O   O12       1.0  0.04648  0.86523  0.27593  1.0000
  C   C55       1.0  0.98857  0.79864  0.30270  1.0000
  N   N9        1.0  0.99380  0.72727  0.24152  1.0000
  C   C56       1.0  0.98257  0.76987  0.23042  1.0000
  O   O13       1.0  0.96384  0.78325  0.15251  1.0000
  C   C57       1.0  0.99531  0.79623  0.08667  1.0000
  H   H40       1.0  0.97774  0.80617  0.02693  1.0000
  H   H41       1.0  0.01695  0.76928  0.06893  1.0000
  H   H42       1.0  0.51473  0.82394  0.10943  1.0000
  N   N10       1.0  0.97586  0.84097  0.30229  1.0000
  H   H43       1.0  0.94797  0.84543  0.33185  1.0000
  C   C58       1.0  0.20840  0.97987  0.21804  1.0000
  N   N11       1.0  0.22440  0.99723  0.29494  1.0000
  C   C59       1.0  0.26704  0.00827  0.30627  1.0000
  C   C60       1.0  0.29582  0.00238  0.23397  1.0000
  N   N12       1.0  0.27962  0.98590  0.15680  1.0000
  C   C61       1.0  0.23742  0.97436  0.14573  1.0000
  O   O14       1.0  0.22419  0.95870  0.06477  1.0000
  C   C62       1.0  0.21507  0.99258  0.00119  1.0000
  H   H44       1.0  0.18908  0.01415  0.02437  1.0000
  N   N13       1.0  0.33821  0.01488  0.23463  1.0000
  H   H45       1.0  0.34266  0.04349  0.20813  1.0000
  N   N14       1.0  0.16519  0.97072  0.20778  1.0000
  H   H46       1.0  0.15937  0.94449  0.17337  1.0000
  C   C63       1.0  0.48998  0.60381  0.39986  1.0000
  C   C64       1.0  0.02973  0.58273  0.42014  1.0000
  C   C65       1.0  0.03210  0.55108  0.48758  1.0000
  C   C66       1.0  0.49507  0.53873  0.53858  1.0000
  C   C67       1.0  0.45498  0.55874  0.51487  1.0000
  C   C68       1.0  0.45253  0.59071  0.44794  1.0000
  C   C69       1.0  0.99761  0.99965  0.60156  1.0000
  C   C70       1.0  0.99954  0.96271  0.53331  1.0000
  C   C71       1.0  0.46204  0.95163  0.48244  1.0000
  C   C72       1.0  0.46412  0.92283  0.40969  1.0000
  C   C73       1.0  0.00410  0.90388  0.38338  1.0000
  C   C74       1.0  0.04182  0.91542  0.43214  1.0000
  C   C75       1.0  0.03959  0.94422  0.50473  1.0000
  C   C76       1.0  0.03608  0.50083  0.66633  1.0000
  H   H47       1.0  0.45028  0.92757  0.66064  1.0000
  H   H48       1.0  0.06831  0.95277  0.53437  1.0000
  H   H49       1.0  0.07164  0.90277  0.41582  1.0000
  H   H50       1.0  0.43612  0.91677  0.37487  1.0000
  H   H51       1.0  0.43259  0.96556  0.49681  1.0000
  H   H52       1.0  0.42650  0.54946  0.54456  1.0000
  H   H53       1.0  0.06151  0.53628  0.49818  1.0000
  H   H54       1.0  0.05748  0.58956  0.38505  1.0000
  H   H55       1.0  0.42284  0.60467  0.43559  1.0000
  C   C77       1.0  0.00690  0.87232  0.31364  1.0000
  C   C78       1.0  0.48761  0.63896  0.33750  1.0000
  N   N15       1.0  0.00565  0.78256  0.37942  1.0000
  C   C79       1.0  0.01750  0.74041  0.39018  1.0000
  C   C80       1.0  0.01161  0.71136  0.31805  1.0000
  O   O15       1.0  0.03398  0.72724  0.47048  1.0000
  C   C81       1.0  0.00079  0.71810  0.53553  1.0000
  H   H56       1.0  0.01678  0.70731  0.59651  1.0000
  H   H57       1.0  0.97901  0.69210  0.51334  1.0000
  H   H58       1.0  0.48168  0.74720  0.55092  1.0000
  N   N16       1.0  0.02085  0.66819  0.32811  1.0000
  H   H59       1.0  0.04779  0.66248  0.36022  1.0000
  O   O16       1.0  0.28043  0.02669  0.38448  1.0000
  H   H60       1.0  0.20427  0.97726  0.60619  1.0000
  H   H61       1.0  0.24418  0.51184  0.65329  1.0000
  C   C82       1.0  0.29399  0.99502  0.44942  1.0000
  H   H62       1.0  0.30390  0.01239  0.50944  1.0000
  H   H63       1.0  0.32188  0.47607  0.42584  1.0000
  H   H64       1.0  0.26736  0.97297  0.46698  1.0000
  C   C83       1.0  0.96002  0.49627  0.00132  1.0000
  C   C84       1.0  0.94152  0.45560  0.02601  1.0000
  C   C85       1.0  0.91256  0.45177  0.09807  1.0000
  C   C86       1.0  0.90087  0.48839  0.15014  1.0000
  C   C87       1.0  0.91972  0.02895  0.12752  1.0000
  C   C88       1.0  0.94868  0.03263  0.05531  1.0000
  C   C89       1.0  0.55597  0.04036  0.02739  1.0000
  C   C90       1.0  0.58768  0.04137  0.09496  1.0000
  C   C91       1.0  0.60061  0.00292  0.13981  1.0000
  C   C92       1.0  0.57953  0.46366  0.11577  1.0000
  C   C93       1.0  0.54815  0.46274  0.04762  1.0000
  H   H65       1.0  0.90003  0.42158  0.11172  1.0000
  H   H66       1.0  0.91370  0.05613  0.16499  1.0000
  H   H67       1.0  0.96271  0.06235  0.04399  1.0000
  H   H68       1.0  0.54690  0.06946  0.00006  1.0000
  H   H69       1.0  0.60167  0.07074  0.11000  1.0000
  H   H70       1.0  0.58631  0.43518  0.14833  1.0000
  H   H71       1.0  0.53347  0.43358  0.03396  1.0000
  C   C94       1.0  0.86938  0.48401  0.21966  1.0000
  C   C95       1.0  0.63571  0.00395  0.20246  1.0000
  O   O17       1.0  0.64563  0.04287  0.24031  1.0000
  O   O18       1.0  0.94794  0.14901  0.30320  1.0000
  O   O19       1.0  0.86223  0.44362  0.25347  1.0000
  O   O20       1.0  0.54648  0.36523  0.27593  1.0000
  C   C96       1.0  0.48857  0.29864  0.30270  1.0000
  N   N17       1.0  0.49379  0.22727  0.24152  1.0000
  C   C97       1.0  0.48257  0.26987  0.23042  1.0000
  O   O21       1.0  0.46384  0.28325  0.15251  1.0000
  C   C98       1.0  0.49532  0.29623  0.08667  1.0000
  H   H72       1.0  0.47773  0.30617  0.02693  1.0000
  H   H73       1.0  0.51695  0.26928  0.06893  1.0000
  H   H74       1.0  0.01473  0.32394  0.10943  1.0000
  N   N18       1.0  0.47585  0.34097  0.30229  1.0000
  H   H75       1.0  0.44797  0.34543  0.33185  1.0000
  C   C99       1.0  0.70840  0.47987  0.21804  1.0000
  N   N19       1.0  0.72440  0.49723  0.29494  1.0000
  C   C100      1.0  0.76704  0.50827  0.30627  1.0000
  C   C101      1.0  0.79582  0.50238  0.23397  1.0000
  N   N20       1.0  0.77962  0.48590  0.15680  1.0000
  C   C102      1.0  0.73742  0.47436  0.14573  1.0000
  O   O22       1.0  0.72419  0.45870  0.06477  1.0000
  C   C103      1.0  0.71507  0.49258  0.00119  1.0000
  H   H76       1.0  0.68908  0.51415  0.02437  1.0000
  N   N21       1.0  0.83821  0.51488  0.23463  1.0000
  H   H77       1.0  0.84266  0.54349  0.20813  1.0000
  N   N22       1.0  0.66520  0.47072  0.20778  1.0000
  H   H78       1.0  0.65938  0.44450  0.17337  1.0000
  C   C104      1.0  0.98998  0.10381  0.39986  1.0000
  C   C105      1.0  0.52973  0.08273  0.42014  1.0000
  C   C106      1.0  0.53210  0.05108  0.48758  1.0000
  C   C107      1.0  0.99507  0.03873  0.53858  1.0000
  C   C108      1.0  0.95498  0.05874  0.51487  1.0000
  C   C109      1.0  0.95253  0.09071  0.44794  1.0000
  C   C110      1.0  0.49761  0.49965  0.60156  1.0000
  C   C111      1.0  0.49954  0.46271  0.53331  1.0000
  C   C112      1.0  0.96204  0.45163  0.48244  1.0000
  C   C113      1.0  0.96412  0.42283  0.40969  1.0000
  C   C114      1.0  0.50410  0.40388  0.38338  1.0000
  C   C115      1.0  0.54182  0.41542  0.43214  1.0000
  C   C116      1.0  0.53960  0.44422  0.50473  1.0000
  C   C117      1.0  0.53608  0.00083  0.66633  1.0000
  H   H79       1.0  0.95027  0.42757  0.66064  1.0000
  H   H80       1.0  0.56831  0.45277  0.53437  1.0000
  H   H81       1.0  0.57164  0.40277  0.41582  1.0000
  H   H82       1.0  0.93612  0.41676  0.37487  1.0000
  H   H83       1.0  0.93258  0.46556  0.49681  1.0000
  H   H84       1.0  0.92650  0.04946  0.54456  1.0000
  H   H85       1.0  0.56151  0.03628  0.49818  1.0000
  H   H86       1.0  0.55748  0.08956  0.38505  1.0000
  H   H87       1.0  0.92284  0.10467  0.43559  1.0000
  C   C118      1.0  0.50691  0.37232  0.31364  1.0000
  C   C119      1.0  0.98760  0.13896  0.33750  1.0000
  N   N23       1.0  0.50565  0.28256  0.37942  1.0000
  C   C120      1.0  0.51750  0.24041  0.39018  1.0000
  C   C121      1.0  0.51161  0.21136  0.31805  1.0000
  O   O23       1.0  0.53399  0.22724  0.47048  1.0000
  C   C122      1.0  0.50079  0.21810  0.53553  1.0000
  H   H88       1.0  0.51678  0.20731  0.59651  1.0000
  H   H89       1.0  0.47901  0.19210  0.51334  1.0000
  H   H90       1.0  0.98168  0.24719  0.55092  1.0000
  N   N24       1.0  0.52085  0.16819  0.32811  1.0000
  H   H91       1.0  0.54779  0.16248  0.36022  1.0000
  O   O24       1.0  0.78044  0.52669  0.38448  1.0000
  H   H92       1.0  0.70427  0.47726  0.60619  1.0000
  H   H93       1.0  0.74418  0.01184  0.65329  1.0000
  C   C123      1.0  0.79399  0.49502  0.44942  1.0000
  H   H94       1.0  0.80390  0.51239  0.50944  1.0000
  H   H95       1.0  0.82188  0.97608  0.42584  1.0000
  H   H96       1.0  0.76736  0.47296  0.46698  1.0000
  C   C124      1.0  0.96002  0.99627  0.00132  1.0000
  C   C125      1.0  0.94152  0.95561  0.02601  1.0000
  C   C126      1.0  0.91256  0.95177  0.09807  1.0000
  C   C127      1.0  0.90087  0.98839  0.15014  1.0000
  C   C128      1.0  0.91972  0.52895  0.12752  1.0000
  C   C129      1.0  0.94868  0.53263  0.05531  1.0000
  C   C130      1.0  0.55597  0.54036  0.02739  1.0000
  C   C131      1.0  0.58768  0.54137  0.09496  1.0000
  C   C132      1.0  0.60061  0.50292  0.13981  1.0000
  C   C133      1.0  0.57953  0.96366  0.11577  1.0000
  C   C134      1.0  0.54815  0.96274  0.04762  1.0000
  H   H97       1.0  0.90003  0.92158  0.11172  1.0000
  H   H98       1.0  0.91370  0.55613  0.16499  1.0000
  H   H99       1.0  0.96271  0.56235  0.04399  1.0000
  H   H100      1.0  0.54690  0.56946  0.00006  1.0000
  H   H101      1.0  0.60167  0.57074  0.11000  1.0000
  H   H102      1.0  0.58631  0.93518  0.14833  1.0000
  H   H103      1.0  0.53347  0.93358  0.03396  1.0000
  C   C135      1.0  0.86938  0.98401  0.21966  1.0000
  C   C136      1.0  0.63571  0.50395  0.20246  1.0000
  O   O25       1.0  0.64563  0.54287  0.24031  1.0000
  O   O26       1.0  0.94794  0.64901  0.30320  1.0000
  O   O27       1.0  0.86223  0.94362  0.25347  1.0000
  O   O28       1.0  0.54648  0.86523  0.27593  1.0000
  C   C137      1.0  0.48857  0.79864  0.30270  1.0000
  N   N25       1.0  0.49379  0.72727  0.24152  1.0000
  C   C138      1.0  0.48257  0.76987  0.23042  1.0000
  O   O29       1.0  0.46384  0.78325  0.15251  1.0000
  C   C139      1.0  0.49532  0.79623  0.08667  1.0000
  H   H104      1.0  0.47773  0.80617  0.02693  1.0000
  H   H105      1.0  0.51695  0.76928  0.06893  1.0000
  H   H106      1.0  0.01473  0.82394  0.10943  1.0000
  N   N26       1.0  0.47585  0.84097  0.30229  1.0000
  H   H107      1.0  0.44797  0.84543  0.33185  1.0000
  C   C140      1.0  0.70840  0.97987  0.21804  1.0000
  N   N27       1.0  0.72440  0.99723  0.29494  1.0000
  C   C141      1.0  0.76704  0.00827  0.30627  1.0000
  C   C142      1.0  0.79582  0.00238  0.23397  1.0000
  N   N28       1.0  0.77962  0.98590  0.15680  1.0000
  C   C143      1.0  0.73742  0.97436  0.14573  1.0000
  O   O30       1.0  0.72419  0.95870  0.06477  1.0000
  C   C144      1.0  0.71507  0.99258  0.00119  1.0000
  H   H108      1.0  0.68908  0.01415  0.02437  1.0000
  N   N29       1.0  0.83821  0.01488  0.23463  1.0000
  H   H109      1.0  0.84266  0.04349  0.20813  1.0000
  N   N30       1.0  0.66520  0.97072  0.20778  1.0000
  H   H110      1.0  0.65938  0.94449  0.17337  1.0000
  C   C145      1.0  0.98998  0.60381  0.39986  1.0000
  C   C146      1.0  0.52973  0.58273  0.42014  1.0000
  C   C147      1.0  0.53210  0.55108  0.48758  1.0000
  C   C148      1.0  0.99507  0.53873  0.53858  1.0000
  C   C149      1.0  0.95498  0.55874  0.51487  1.0000
  C   C150      1.0  0.95253  0.59071  0.44794  1.0000
  C   C151      1.0  0.49761  0.99965  0.60156  1.0000
  C   C152      1.0  0.49954  0.96271  0.53331  1.0000
  C   C153      1.0  0.96204  0.95163  0.48244  1.0000
  C   C154      1.0  0.96412  0.92283  0.40969  1.0000
  C   C155      1.0  0.50410  0.90388  0.38338  1.0000
  C   C156      1.0  0.54182  0.91542  0.43214  1.0000
  C   C157      1.0  0.53960  0.94422  0.50473  1.0000
  C   C158      1.0  0.53608  0.50083  0.66633  1.0000
  H   H111      1.0  0.95027  0.92757  0.66064  1.0000
  H   H112      1.0  0.56831  0.95277  0.53437  1.0000
  H   H113      1.0  0.57164  0.90277  0.41582  1.0000
  H   H114      1.0  0.93612  0.91677  0.37487  1.0000
  H   H115      1.0  0.93258  0.96556  0.49681  1.0000
  H   H116      1.0  0.92650  0.54946  0.54456  1.0000
  H   H117      1.0  0.56151  0.53628  0.49818  1.0000
  H   H118      1.0  0.55748  0.58956  0.38505  1.0000
  H   H119      1.0  0.92284  0.60467  0.43559  1.0000
  C   C159      1.0  0.50691  0.87232  0.31364  1.0000
  C   C160      1.0  0.98760  0.63896  0.33750  1.0000
  N   N31       1.0  0.50565  0.78256  0.37942  1.0000
  C   C161      1.0  0.51750  0.74041  0.39018  1.0000
  C   C162      1.0  0.51161  0.71136  0.31805  1.0000
  O   O31       1.0  0.53399  0.72724  0.47048  1.0000
  C   C163      1.0  0.50079  0.71810  0.53553  1.0000
  H   H120      1.0  0.51678  0.70731  0.59651  1.0000
  H   H121      1.0  0.47901  0.69210  0.51334  1.0000
  H   H122      1.0  0.98168  0.74720  0.55092  1.0000
  N   N32       1.0  0.52085  0.66819  0.32811  1.0000
  H   H123      1.0  0.54779  0.66248  0.36022  1.0000
  O   O32       1.0  0.78044  0.02669  0.38448  1.0000
  H   H124      1.0  0.70427  0.97726  0.60619  1.0000
  H   H125      1.0  0.74418  0.51184  0.65329  1.0000
  C   C164      1.0  0.79399  0.99502  0.44942  1.0000
  H   H126      1.0  0.80390  0.01239  0.50944  1.0000
  H   H127      1.0  0.82188  0.47607  0.42584  1.0000
  H   H128      1.0  0.76736  0.97297  0.46698  1.0000
