data_image0
_chemical_formula_structural       NC5H3NC5H3NC5H3C5NH3C5NH3C5NH3C24H15C24H15C24H15C24H15C5NH3C5NH3C5NH3NC5H3NC5H3NC5H3
_chemical_formula_sum              "N12 C156 H96"
_cell_length_a       57.3229
_cell_length_b       57.3228
_cell_length_c       14.953
_cell_angle_alpha    90
_cell_angle_beta     90
_cell_angle_gamma    120

_space_group_name_H-M_alt    "P 1"
_space_group_IT_number       1

loop_
  _space_group_symop_operation_xyz
  'x, y, z'

loop_
  _atom_site_type_symbol
  _atom_site_label
  _atom_site_symmetry_multiplicity
  _atom_site_fract_x
  _atom_site_fract_y
  _atom_site_fract_z
  _atom_site_occupancy
  N   N1        1.0  0.24157  0.11953  0.26745  1.0000
  C   C1        1.0  0.26891  0.13306  0.26652  1.0000
  C   C2        1.0  0.19751  0.09926  0.33623  1.0000
  C   C3        1.0  0.18355  0.09130  0.25377  1.0000
  C   C4        1.0  0.15517  0.07731  0.25240  1.0000
  C   C5        1.0  0.13998  0.07087  0.33252  1.0000
  H   H1        1.0  0.19373  0.09577  0.19435  1.0000
  H   H2        1.0  0.14570  0.07240  0.19164  1.0000
  H   H3        1.0  0.27839  0.13666  0.20605  1.0000
  N   N2        1.0  0.87437  0.12258  0.26470  1.0000
  C   C6        1.0  0.86081  0.13634  0.26298  1.0000
  C   C7        1.0  0.89484  0.09923  0.33508  1.0000
  C   C8        1.0  0.90346  0.09366  0.25318  1.0000
  C   C9        1.0  0.91752  0.07936  0.25283  1.0000
  C   C10       1.0  0.92325  0.07023  0.33344  1.0000
  H   H4        1.0  0.89953  0.09972  0.19350  1.0000
  H   H5        1.0  0.92306  0.07518  0.19254  1.0000
  H   H6        1.0  0.85702  0.14192  0.20223  1.0000
  N   N3        1.0  0.87325  0.75243  0.26713  1.0000
  C   C11       1.0  0.85943  0.72510  0.26535  1.0000
  C   C12       1.0  0.89527  0.79628  0.33759  1.0000
  C   C13       1.0  0.90297  0.81041  0.25539  1.0000
  C   C14       1.0  0.91712  0.83878  0.25476  1.0000
  C   C15       1.0  0.92379  0.85371  0.33539  1.0000
  H   H7        1.0  0.89841  0.80038  0.19569  1.0000
  H   H8        1.0  0.92208  0.84846  0.19434  1.0000
  H   H9        1.0  0.85498  0.71572  0.20451  1.0000
  C   C16       1.0  0.51434  0.15843  0.33371  1.0000
  C   C17       1.0  0.52243  0.14974  0.25720  1.0000
  C   C18       1.0  0.54501  0.14621  0.25967  1.0000
  C   C19       1.0  0.56025  0.15168  0.33926  1.0000
  C   C20       1.0  0.62096  0.15112  0.26103  1.0000
  N   N4        1.0  0.59618  0.14857  0.26666  1.0000
  H   H10       1.0  0.62743  0.14867  0.19993  1.0000
  H   H11       1.0  0.51231  0.14654  0.19802  1.0000
  H   H12       1.0  0.55073  0.14076  0.20218  1.0000
  C   C21       1.0  0.83588  0.35665  0.33399  1.0000
  C   C22       1.0  0.84460  0.37348  0.25760  1.0000
  C   C23       1.0  0.84808  0.39957  0.26022  1.0000
  C   C24       1.0  0.84257  0.40927  0.33989  1.0000
  C   C25       1.0  0.84333  0.47066  0.26203  1.0000
  N   N5        1.0  0.84585  0.44841  0.26759  1.0000
  H   H13       1.0  0.84586  0.47965  0.20102  1.0000
  H   H14       1.0  0.84782  0.36660  0.19837  1.0000
  H   H15       1.0  0.85356  0.41077  0.20283  1.0000
  C   C26       1.0  0.63757  0.48007  0.33246  1.0000
  C   C27       1.0  0.62075  0.47193  0.25605  1.0000
  C   C28       1.0  0.59466  0.44932  0.25866  1.0000
  C   C29       1.0  0.58496  0.43411  0.33834  1.0000
  C   C30       1.0  0.52369  0.37330  0.26059  1.0000
  N   N6        1.0  0.54589  0.39811  0.26605  1.0000
  H   H16       1.0  0.51472  0.36680  0.19958  1.0000
  H   H17       1.0  0.62765  0.48204  0.19681  1.0000
  H   H18       1.0  0.58346  0.44358  0.20127  1.0000
  C   C31       1.0  0.98098  0.01240  0.33895  1.0000
  C   C32       1.0  0.00950  0.02637  0.33892  1.0000
  C   C33       1.0  0.02430  0.01269  0.33738  1.0000
  C   C34       1.0  0.00981  0.98419  0.33679  1.0000
  C   C35       1.0  0.98129  0.96933  0.33800  1.0000
  C   C36       1.0  0.96732  0.98389  0.33892  1.0000
  C   C37       1.0  0.05310  0.02732  0.33570  1.0000
  C   C38       1.0  0.06802  0.04885  0.39562  1.0000
  C   C39       1.0  0.09638  0.06314  0.39416  1.0000
  C   C40       1.0  0.11106  0.05664  0.33253  1.0000
  C   C41       1.0  0.09601  0.03530  0.27183  1.0000
  C   C42       1.0  0.06764  0.02089  0.27354  1.0000
  C   C43       1.0  0.96644  0.02670  0.33736  1.0000
  C   C44       1.0  0.97431  0.04909  0.28012  1.0000
  C   C45       1.0  0.96010  0.06323  0.27849  1.0000
  C   C46       1.0  0.93747  0.05563  0.33429  1.0000
  C   C47       1.0  0.92954  0.03317  0.39133  1.0000
  C   C48       1.0  0.94368  0.01896  0.39268  1.0000
  C   C49       1.0  0.96697  0.94047  0.33740  1.0000
  C   C50       1.0  0.94460  0.92552  0.39434  1.0000
  C   C51       1.0  0.93053  0.89716  0.39381  1.0000
  C   C52       1.0  0.93810  0.88254  0.33587  1.0000
  C   C53       1.0  0.96040  0.89750  0.27865  1.0000
  C   C54       1.0  0.97461  0.92586  0.27967  1.0000
  H   H19       1.0  0.96685  0.07954  0.23702  1.0000
  H   H20       1.0  0.99036  0.05519  0.23786  1.0000
  H   H21       1.0  0.91307  0.02666  0.43197  1.0000
  H   H22       1.0  0.93740  0.00308  0.43588  1.0000
  H   H23       1.0  0.93852  0.93517  0.43801  1.0000
  H   H24       1.0  0.91432  0.88726  0.43554  1.0000
  H   H25       1.0  0.99041  0.93577  0.23641  1.0000
  H   H26       1.0  0.96687  0.88785  0.23644  1.0000
  H   H27       1.0  0.05766  0.00569  0.22820  1.0000
  H   H28       1.0  0.10557  0.02950  0.22684  1.0000
  H   H29       1.0  0.10620  0.07867  0.43839  1.0000
  H   H30       1.0  0.05834  0.05407  0.44216  1.0000
  H   H31       1.0  0.01975  0.04700  0.33920  1.0000
  H   H32       1.0  0.94671  0.97347  0.33599  1.0000
  H   H33       1.0  0.02029  0.97405  0.33825  1.0000
  C   C55       1.0  0.44243  0.24308  0.33243  1.0000
  C   C56       1.0  0.41407  0.22850  0.34100  1.0000
  C   C57       1.0  0.39951  0.19993  0.34475  1.0000
  C   C58       1.0  0.41432  0.18616  0.34216  1.0000
  C   C59       1.0  0.44266  0.20014  0.33349  1.0000
  C   C60       1.0  0.45631  0.22853  0.32923  1.0000
  C   C61       1.0  0.37063  0.18535  0.34722  1.0000
  C   C62       1.0  0.35599  0.19351  0.40274  1.0000
  C   C63       1.0  0.32760  0.17940  0.40329  1.0000
  C   C64       1.0  0.31261  0.15666  0.34774  1.0000
  C   C65       1.0  0.32728  0.14850  0.29236  1.0000
  C   C66       1.0  0.35563  0.16250  0.29219  1.0000
  C   C67       1.0  0.45737  0.27175  0.32699  1.0000
  C   C68       1.0  0.45560  0.28799  0.39482  1.0000
  C   C69       1.0  0.47364  0.31600  0.39668  1.0000
  C   C70       1.0  0.49371  0.32875  0.33011  1.0000
  C   C71       1.0  0.49452  0.31255  0.26009  1.0000
  C   C72       1.0  0.47674  0.28459  0.25868  1.0000
  C   C73       1.0  0.45775  0.18658  0.32831  1.0000
  C   C74       1.0  0.47637  0.19248  0.25792  1.0000
  C   C75       1.0  0.49409  0.18223  0.25822  1.0000
  C   C76       1.0  0.49395  0.16579  0.32910  1.0000
  C   C77       1.0  0.47472  0.15923  0.39813  1.0000
  C   C78       1.0  0.45673  0.16926  0.39743  1.0000
  H   H34       1.0  0.47247  0.32694  0.44878  1.0000
  H   H35       1.0  0.44236  0.27933  0.44669  1.0000
  H   H36       1.0  0.50919  0.32064  0.21211  1.0000
  H   H37       1.0  0.47882  0.27349  0.20892  1.0000
  H   H38       1.0  0.47789  0.20518  0.20724  1.0000
  H   H39       1.0  0.50816  0.18823  0.20836  1.0000
  H   H40       1.0  0.44399  0.16512  0.45056  1.0000
  H   H41       1.0  0.47410  0.14758  0.45093  1.0000
  H   H42       1.0  0.36523  0.15609  0.24956  1.0000
  H   H43       1.0  0.31743  0.13199  0.25188  1.0000
  H   H44       1.0  0.31795  0.18635  0.44355  1.0000
  H   H45       1.0  0.36590  0.20977  0.44423  1.0000
  H   H46       1.0  0.40383  0.23889  0.34042  1.0000
  H   H47       1.0  0.47694  0.23889  0.32545  1.0000
  H   H48       1.0  0.40434  0.16555  0.34534  1.0000
  C   C79       1.0  0.75117  0.20022  0.33179  1.0000
  C   C80       1.0  0.76573  0.18640  0.33914  1.0000
  C   C81       1.0  0.79430  0.20040  0.34218  1.0000
  C   C82       1.0  0.80812  0.22898  0.34015  1.0000
  C   C83       1.0  0.79413  0.24335  0.33275  1.0000
  C   C84       1.0  0.76573  0.22865  0.32913  1.0000
  C   C85       1.0  0.80880  0.18606  0.34376  1.0000
  C   C86       1.0  0.80073  0.16334  0.39955  1.0000
  C   C87       1.0  0.81478  0.14902  0.39963  1.0000
  C   C88       1.0  0.83737  0.15671  0.34346  1.0000
  C   C89       1.0  0.84540  0.17940  0.28755  1.0000
  C   C90       1.0  0.83144  0.19379  0.28779  1.0000
  C   C91       1.0  0.72252  0.18648  0.32672  1.0000
  C   C92       1.0  0.70637  0.16841  0.39454  1.0000
  C   C93       1.0  0.67836  0.15839  0.39660  1.0000
  C   C94       1.0  0.66553  0.16567  0.33020  1.0000
  C   C95       1.0  0.68168  0.18275  0.26020  1.0000
  C   C96       1.0  0.70964  0.19299  0.25854  1.0000
  C   C97       1.0  0.80772  0.27197  0.32783  1.0000
  C   C98       1.0  0.80181  0.28472  0.25759  1.0000
  C   C99       1.0  0.81210  0.31270  0.25806  1.0000
  C   C100      1.0  0.82852  0.32892  0.32912  1.0000
  C   C101      1.0  0.83510  0.31621  0.39797  1.0000
  C   C102      1.0  0.82504  0.28819  0.39704  1.0000
  H   H49       1.0  0.66746  0.14622  0.44865  1.0000
  H   H50       1.0  0.71509  0.16382  0.44623  1.0000
  H   H51       1.0  0.67353  0.18933  0.21239  1.0000
  H   H52       1.0  0.72070  0.20623  0.20887  1.0000
  H   H53       1.0  0.78908  0.27358  0.20692  1.0000
  H   H54       1.0  0.80605  0.32080  0.20847  1.0000
  H   H55       1.0  0.82920  0.27954  0.44998  1.0000
  H   H56       1.0  0.84677  0.32721  0.45079  1.0000
  H   H57       1.0  0.83776  0.20978  0.24509  1.0000
  H   H58       1.0  0.86181  0.18598  0.24666  1.0000
  H   H59       1.0  0.80794  0.13252  0.44024  1.0000
  H   H60       1.0  0.78463  0.15712  0.44168  1.0000
  H   H61       1.0  0.75532  0.16577  0.33804  1.0000
  H   H62       1.0  0.75537  0.23893  0.32610  1.0000
  H   H63       1.0  0.82873  0.23956  0.34280  1.0000
  C   C103      1.0  0.79406  0.55166  0.33233  1.0000
  C   C104      1.0  0.80788  0.58003  0.34036  1.0000
  C   C105      1.0  0.79386  0.59458  0.34282  1.0000
  C   C106      1.0  0.76530  0.57987  0.33966  1.0000
  C   C107      1.0  0.75093  0.55151  0.33195  1.0000
  C   C108      1.0  0.76564  0.53781  0.32875  1.0000
  C   C109      1.0  0.80818  0.62340  0.34489  1.0000
  C   C110      1.0  0.83018  0.63795  0.40355  1.0000
  C   C111      1.0  0.84442  0.66632  0.40437  1.0000
  C   C112      1.0  0.83745  0.68130  0.34580  1.0000
  C   C113      1.0  0.81550  0.66672  0.28695  1.0000
  C   C114      1.0  0.80112  0.63837  0.28671  1.0000
  C   C115      1.0  0.80781  0.53674  0.32753  1.0000
  C   C116      1.0  0.82574  0.53856  0.39567  1.0000
  C   C117      1.0  0.83582  0.52062  0.39775  1.0000
  C   C118      1.0  0.82864  0.50058  0.33117  1.0000
  C   C119      1.0  0.81167  0.49970  0.26088  1.0000
  C   C120      1.0  0.80140  0.51740  0.25922  1.0000
  C   C121      1.0  0.72230  0.53648  0.32674  1.0000
  C   C122      1.0  0.70957  0.51775  0.25666  1.0000
  C   C123      1.0  0.68159  0.50012  0.25695  1.0000
  C   C124      1.0  0.66532  0.50042  0.32768  1.0000
  C   C125      1.0  0.67801  0.51973  0.39646  1.0000
  C   C126      1.0  0.70604  0.53767  0.39565  1.0000
  H   H64       1.0  0.84794  0.52186  0.44995  1.0000
  H   H65       1.0  0.83032  0.55187  0.44734  1.0000
  H   H66       1.0  0.80514  0.48500  0.21301  1.0000
  H   H67       1.0  0.78824  0.51527  0.20931  1.0000
  H   H68       1.0  0.72074  0.51614  0.20611  1.0000
  H   H69       1.0  0.67348  0.48598  0.20731  1.0000
  H   H70       1.0  0.71467  0.55049  0.44857  1.0000
  H   H71       1.0  0.66699  0.52047  0.44908  1.0000
  H   H72       1.0  0.78564  0.62874  0.24207  1.0000
  H   H73       1.0  0.80949  0.67664  0.24418  1.0000
  H   H74       1.0  0.86038  0.67597  0.44718  1.0000
  H   H75       1.0  0.83588  0.62798  0.44722  1.0000
  H   H76       1.0  0.82851  0.59027  0.34017  1.0000
  H   H77       1.0  0.75536  0.51717  0.32545  1.0000
  H   H78       1.0  0.75475  0.58993  0.34184  1.0000
  C   C127      1.0  0.28373  0.14246  0.34703  1.0000
  C   C128      1.0  0.26850  0.13694  0.42670  1.0000
  C   C129      1.0  0.24013  0.12269  0.42501  1.0000
  C   C130      1.0  0.22624  0.11371  0.34266  1.0000
  C   C131      1.0  0.15493  0.07913  0.41310  1.0000
  N   N7        1.0  0.18225  0.09257  0.41180  1.0000
  H   H79       1.0  0.14557  0.07476  0.47391  1.0000
  H   H80       1.0  0.27794  0.14275  0.48736  1.0000
  H   H81       1.0  0.22990  0.11899  0.48414  1.0000
  C   C132      1.0  0.85163  0.14214  0.34326  1.0000
  C   C133      1.0  0.85742  0.13293  0.42351  1.0000
  C   C134      1.0  0.87165  0.11881  0.42261  1.0000
  C   C135      1.0  0.88039  0.11349  0.34051  1.0000
  C   C136      1.0  0.91428  0.07638  0.41346  1.0000
  N   N8        1.0  0.90086  0.09026  0.41114  1.0000
  H   H82       1.0  0.91808  0.07094  0.47443  1.0000
  H   H83       1.0  0.85180  0.13690  0.48397  1.0000
  H   H84       1.0  0.87555  0.11265  0.48212  1.0000
  C   C137      1.0  0.85206  0.71013  0.34586  1.0000
  C   C138      1.0  0.85976  0.72510  0.42640  1.0000
  C   C139      1.0  0.87394  0.75347  0.42551  1.0000
  C   C140      1.0  0.88091  0.76754  0.34316  1.0000
  C   C141      1.0  0.91561  0.83867  0.41571  1.0000
  N   N9        1.0  0.90214  0.81135  0.41367  1.0000
  H   H85       1.0  0.92008  0.84798  0.47663  1.0000
  H   H86       1.0  0.85463  0.71547  0.48688  1.0000
  H   H87       1.0  0.87898  0.76354  0.48516  1.0000
  N   N10       1.0  0.55146  0.15944  0.41192  1.0000
  C   C142      1.0  0.52939  0.16236  0.41283  1.0000
  C   C143      1.0  0.58527  0.15193  0.34309  1.0000
  C   C144      1.0  0.60095  0.15813  0.42192  1.0000
  C   C145      1.0  0.62696  0.16139  0.41851  1.0000
  C   C146      1.0  0.63786  0.15850  0.33707  1.0000
  H   H88       1.0  0.59425  0.16157  0.48112  1.0000
  H   H89       1.0  0.63849  0.16756  0.47522  1.0000
  H   H90       1.0  0.52533  0.16951  0.46983  1.0000
  N   N11       1.0  0.83478  0.39268  0.41244  1.0000
  C   C147      1.0  0.83184  0.36768  0.41313  1.0000
  C   C148      1.0  0.84235  0.43404  0.34386  1.0000
  C   C149      1.0  0.83604  0.44344  0.42266  1.0000
  C   C150      1.0  0.83280  0.46620  0.41933  1.0000
  C   C151      1.0  0.83584  0.48010  0.33802  1.0000
  H   H91       1.0  0.83248  0.43322  0.48174  1.0000
  H   H92       1.0  0.82652  0.47148  0.47596  1.0000
  H   H93       1.0  0.82473  0.35644  0.47009  1.0000
  N   N12       1.0  0.60154  0.44294  0.41091  1.0000
  C   C152      1.0  0.62653  0.46502  0.41162  1.0000
  C   C153      1.0  0.56021  0.40908  0.34235  1.0000
  C   C154      1.0  0.55081  0.39342  0.42124  1.0000
  C   C155      1.0  0.52809  0.36738  0.41802  1.0000
  C   C156      1.0  0.51423  0.35644  0.33672  1.0000
  H   H94       1.0  0.56099  0.40015  0.48037  1.0000
  H   H95       1.0  0.52279  0.35590  0.47480  1.0000
  H   H96       1.0  0.63776  0.46917  0.46861  1.0000
