data_image0
_chemical_formula_structural       C11H6C6H3C6N2C11H6C6H3C6N2C2NC2HNHCHC2NC2HNHCHC2NC2HNHCHC7H6NC7H6NC2HC6H3CHC2HC6H3CHC2HC6H3CH
_chemical_formula_sum              "C102 H54 N12"
_cell_length_a       52.4161
_cell_length_b       52.4272
_cell_length_c       14.954
_cell_angle_alpha    90
_cell_angle_beta     90
_cell_angle_gamma    119.985

_space_group_name_H-M_alt    "P 1"
_space_group_IT_number       1

loop_
  _space_group_symop_operation_xyz
  'x, y, z'

loop_
  _atom_site_type_symbol
  _atom_site_label
  _atom_site_symmetry_multiplicity
  _atom_site_fract_x
  _atom_site_fract_y
  _atom_site_fract_z
  _atom_site_occupancy
  C   C1        1.0  0.22041  0.61147  0.33318  1.0000
  C   C2        1.0  0.39330  0.61133  0.33376  1.0000
  C   C3        1.0  0.39264  0.78357  0.33394  1.0000
  C   C4        1.0  0.42501  0.58038  0.33433  1.0000
  C   C5        1.0  0.39873  0.56984  0.28420  1.0000
  C   C6        1.0  0.38305  0.58517  0.28368  1.0000
  C   C7        1.0  0.17378  0.61083  0.35345  1.0000
  C   C8        1.0  0.20480  0.62636  0.35180  1.0000
  C   C9        1.0  0.42355  0.84618  0.33449  1.0000
  C   C10       1.0  0.43448  0.83046  0.28600  1.0000
  C   C11       1.0  0.41915  0.79946  0.28547  1.0000
  H   H1        1.0  0.39056  0.55069  0.24855  1.0000
  H   H2        1.0  0.36407  0.57692  0.24678  1.0000
  H   H3        1.0  0.21574  0.64852  0.36495  1.0000
  H   H4        1.0  0.16289  0.62200  0.36762  1.0000
  H   H5        1.0  0.45387  0.84145  0.25156  1.0000
  H   H6        1.0  0.42767  0.78874  0.24977  1.0000
  C   C12       1.0  0.35106  0.69974  0.33305  1.0000
  C   C13       1.0  0.31994  0.68412  0.33278  1.0000
  C   C14       1.0  0.30428  0.65301  0.33257  1.0000
  C   C15       1.0  0.31991  0.63750  0.33265  1.0000
  C   C16       1.0  0.35104  0.65296  0.33295  1.0000
  C   C17       1.0  0.36653  0.68408  0.33313  1.0000
  H   H7        1.0  0.30858  0.61487  0.33258  1.0000
  H   H8        1.0  0.30863  0.69546  0.33279  1.0000
  H   H9        1.0  0.38917  0.69539  0.33339  1.0000
  C   C18       1.0  0.37845  0.75482  0.33367  1.0000
  C   C19       1.0  0.36542  0.72850  0.33336  1.0000
  C   C20       1.0  0.37875  0.62554  0.33348  1.0000
  C   C21       1.0  0.36545  0.63859  0.33319  1.0000
  C   C22       1.0  0.27550  0.63870  0.33251  1.0000
  C   C23       1.0  0.24917  0.62572  0.33270  1.0000
  N   N1        1.0  0.44039  0.56649  0.33943  1.0000
  N   N2        1.0  0.43744  0.87543  0.33964  1.0000
  C   C24       1.0  0.78411  0.39047  0.32976  1.0000
  C   C25       1.0  0.61391  0.39499  0.32863  1.0000
  C   C26       1.0  0.60928  0.22022  0.32877  1.0000
  C   C27       1.0  0.58289  0.42660  0.33316  1.0000
  C   C28       1.0  0.60949  0.43759  0.28497  1.0000
  C   C29       1.0  0.62502  0.42210  0.28311  1.0000
  C   C30       1.0  0.83105  0.39228  0.30359  1.0000
  C   C31       1.0  0.80003  0.37672  0.30166  1.0000
  C   C32       1.0  0.57763  0.15762  0.33327  1.0000
  C   C33       1.0  0.56643  0.17325  0.28623  1.0000
  C   C34       1.0  0.58195  0.20427  0.28439  1.0000
  H   H10       1.0  0.61789  0.45716  0.25130  1.0000
  H   H11       1.0  0.64437  0.43078  0.24795  1.0000
  H   H12       1.0  0.78932  0.35538  0.27933  1.0000
  H   H13       1.0  0.84216  0.38190  0.28285  1.0000
  H   H14       1.0  0.54670  0.16211  0.25340  1.0000
  H   H15       1.0  0.57312  0.21495  0.25007  1.0000
  C   C35       1.0  0.65269  0.30403  0.32544  1.0000
  C   C36       1.0  0.68380  0.31882  0.32578  1.0000
  C   C37       1.0  0.70028  0.34991  0.32589  1.0000
  C   C38       1.0  0.68548  0.36623  0.32572  1.0000
  C   C39       1.0  0.65437  0.35161  0.32538  1.0000
  C   C40       1.0  0.63806  0.32051  0.32528  1.0000
  H   H16       1.0  0.69740  0.38885  0.32602  1.0000
  H   H17       1.0  0.69451  0.30689  0.32613  1.0000
  H   H18       1.0  0.61543  0.30980  0.32529  1.0000
  C   C41       1.0  0.62388  0.24896  0.32690  1.0000
  C   C42       1.0  0.63755  0.27528  0.32591  1.0000
  C   C43       1.0  0.62808  0.38042  0.32676  1.0000
  C   C44       1.0  0.64075  0.36676  0.32580  1.0000
  C   C45       1.0  0.72903  0.36353  0.32669  1.0000
  C   C46       1.0  0.75536  0.37623  0.32787  1.0000
  N   N3        1.0  0.56894  0.44197  0.33106  1.0000
  N   N4        1.0  0.56222  0.12831  0.33127  1.0000
  C   C47       1.0  0.46075  0.53683  0.30284  1.0000
  C   C48       1.0  0.47141  0.52664  0.23251  1.0000
  N   N5        1.0  0.48703  0.51299  0.25020  1.0000
  C   C49       1.0  0.49350  0.50822  0.33435  1.0000
  C   C50       1.0  0.53298  0.46801  0.28939  1.0000
  H   H19       1.0  0.46737  0.52912  0.16710  1.0000
  N   N6        1.0  0.51843  0.48315  0.27913  1.0000
  H   H20       1.0  0.53864  0.46086  0.23324  1.0000
  C   C51       1.0  0.44358  0.54956  0.28378  1.0000
  H   H21       1.0  0.43381  0.54576  0.22433  1.0000
  C   C52       1.0  0.46728  0.92538  0.30316  1.0000
  C   C53       1.0  0.47742  0.94620  0.23280  1.0000
  N   N7        1.0  0.49110  0.97547  0.25047  1.0000
  C   C54       1.0  0.49592  0.98671  0.33462  1.0000
  C   C55       1.0  0.53620  0.06635  0.28953  1.0000
  H   H22       1.0  0.47492  0.93968  0.16739  1.0000
  N   N8        1.0  0.52101  0.03666  0.27932  1.0000
  H   H23       1.0  0.54334  0.07914  0.23335  1.0000
  C   C56       1.0  0.45455  0.89550  0.28417  1.0000
  H   H24       1.0  0.45851  0.88951  0.22497  1.0000
  C   C57       1.0  0.07892  0.53323  0.31133  1.0000
  C   C58       1.0  0.05844  0.52072  0.24056  1.0000
  N   N9        1.0  0.02913  0.50837  0.25621  1.0000
  C   C59       1.0  0.01759  0.50701  0.33862  1.0000
  C   C60       1.0  0.93821  0.46913  0.28930  1.0000
  H   H25       1.0  0.06526  0.52066  0.17651  1.0000
  N   N10       1.0  0.96789  0.48201  0.28104  1.0000
  H   H26       1.0  0.92562  0.46130  0.23288  1.0000
  C   C61       1.0  0.10878  0.54471  0.29543  1.0000
  H   H27       1.0  0.11489  0.53598  0.24667  1.0000
  C   C62       1.0  0.41933  0.62179  0.38469  1.0000
  C   C63       1.0  0.43486  0.60630  0.38529  1.0000
  C   C64       1.0  0.20458  0.58089  0.31630  1.0000
  C   C65       1.0  0.17357  0.56549  0.31750  1.0000
  C   C66       1.0  0.15780  0.58035  0.33515  1.0000
  C   C67       1.0  0.38181  0.79911  0.38331  1.0000
  C   C68       1.0  0.39729  0.83013  0.38394  1.0000
  H   H28       1.0  0.45362  0.61422  0.42298  1.0000
  H   H29       1.0  0.21534  0.56947  0.30358  1.0000
  H   H30       1.0  0.16260  0.54326  0.30665  1.0000
  H   H31       1.0  0.36272  0.78813  0.41957  1.0000
  H   H32       1.0  0.38911  0.84096  0.42050  1.0000
  H   H33       1.0  0.42718  0.64062  0.42209  1.0000
  N   N11       1.0  0.12856  0.56668  0.34020  1.0000
  C   C69       1.0  0.58706  0.38360  0.37571  1.0000
  C   C70       1.0  0.57169  0.39923  0.37765  1.0000
  C   C71       1.0  0.79963  0.41996  0.35946  1.0000
  C   C72       1.0  0.83062  0.43537  0.36161  1.0000
  C   C73       1.0  0.84672  0.42160  0.33468  1.0000
  C   C74       1.0  0.62087  0.20473  0.37472  1.0000
  C   C75       1.0  0.60522  0.17374  0.37665  1.0000
  H   H34       1.0  0.55205  0.39027  0.41102  1.0000
  H   H35       1.0  0.78865  0.43059  0.37946  1.0000
  H   H36       1.0  0.84134  0.45685  0.38216  1.0000
  H   H37       1.0  0.64080  0.21573  0.40675  1.0000
  H   H38       1.0  0.61431  0.16304  0.40917  1.0000
  H   H39       1.0  0.57832  0.36384  0.40861  1.0000
  N   N12       1.0  0.87604  0.43524  0.33384  1.0000
  C   C76       1.0  0.48360  0.51800  0.40825  1.0000
  C   C77       1.0  0.46729  0.53231  0.39137  1.0000
  H   H40       1.0  0.45963  0.53895  0.44432  1.0000
  C   C78       1.0  0.50923  0.49318  0.34884  1.0000
  C   C79       1.0  0.53918  0.46151  0.37583  1.0000
  C   C80       1.0  0.52999  0.47182  0.44971  1.0000
  C   C81       1.0  0.51504  0.48771  0.43743  1.0000
  C   C82       1.0  0.50539  0.49775  0.51050  1.0000
  C   C83       1.0  0.48982  0.51279  0.49603  1.0000
  H   H41       1.0  0.50933  0.49393  0.57476  1.0000
  H   H42       1.0  0.48277  0.51958  0.55007  1.0000
  H   H43       1.0  0.53394  0.46745  0.51345  1.0000
  C   C84       1.0  0.55241  0.44452  0.38982  1.0000
  H   H44       1.0  0.54925  0.43430  0.44831  1.0000
  C   C85       1.0  0.48617  0.96705  0.40855  1.0000
  C   C86       1.0  0.47184  0.93644  0.39169  1.0000
  H   H45       1.0  0.46523  0.92215  0.44466  1.0000
  C   C87       1.0  0.51100  0.01747  0.34908  1.0000
  C   C88       1.0  0.54279  0.07906  0.37594  1.0000
  C   C89       1.0  0.53250  0.05959  0.44988  1.0000
  C   C90       1.0  0.51655  0.02875  0.43766  1.0000
  C   C91       1.0  0.50653  0.00908  0.51075  1.0000
  C   C92       1.0  0.49144  0.97848  0.49632  1.0000
  H   H46       1.0  0.51041  0.01685  0.57500  1.0000
  H   H47       1.0  0.48468  0.96466  0.55037  1.0000
  H   H48       1.0  0.53693  0.06792  0.51359  1.0000
  C   C93       1.0  0.55984  0.10925  0.38982  1.0000
  H   H49       1.0  0.57025  0.11632  0.44805  1.0000
  C   C94       1.0  0.03696  0.51913  0.41281  1.0000
  C   C95       1.0  0.06759  0.53219  0.39805  1.0000
  H   H50       1.0  0.08172  0.54059  0.45128  1.0000
  C   C96       1.0  0.98682  0.49368  0.35109  1.0000
  C   C97       1.0  0.92525  0.46737  0.37374  1.0000
  C   C98       1.0  0.94440  0.47930  0.44797  1.0000
  C   C99       1.0  0.97523  0.49245  0.43788  1.0000
  C   C100      1.0  0.99460  0.50446  0.51125  1.0000
  C   C101      1.0  0.02521  0.51767  0.49884  1.0000
  H   H51       1.0  0.98661  0.50375  0.57421  1.0000
  H   H52       1.0  0.03882  0.52624  0.55304  1.0000
  H   H53       1.0  0.93585  0.47851  0.51023  1.0000
  C   C102      1.0  0.89512  0.45566  0.38477  1.0000
  H   H54       1.0  0.88814  0.46287  0.43553  1.0000
