data_image0
_chemical_formula_structural       C3H2CH2CH2C3H2CH2CH2C3H2CH2CH2C6H3NHNHNHC6H3NHNHNHC3NC2NHOHCH2C3NC2NHOHCH2C3NC2NHOHCH2C3H2CH2CH2C3H2CH2CH2C3H2CH2CH2C6H3NHNHNHC6H3NHNHNHC3NC2NHOHCH2C3NC2NHOHCH2C3NC2NHOHCH2C3H2CH2CH2C3H2CH2CH2C3H2CH2CH2C6H3NHNHNHC6H3NHNHNHC3NC2NHOHCH2C3NC2NHOHCH2C3NC2NHOHCH2C3H2CH2CH2C3H2CH2CH2C3H2CH2CH2C6H3NHNHNHC6H3NHNHNHC3NC2NHOHCH2C3NC2NHOHCH2C3NC2NHOHCH2
_chemical_formula_sum              "C180 H168 N48 O12"
_cell_length_a       43.6406
_cell_length_b       43.6406
_cell_length_c       15.028
_cell_angle_alpha    90
_cell_angle_beta     90
_cell_angle_gamma    120

_space_group_name_H-M_alt    "P 1"
_space_group_IT_number       1

loop_
  _space_group_symop_operation_xyz
  'x, y, z'

loop_
  _atom_site_type_symbol
  _atom_site_label
  _atom_site_symmetry_multiplicity
  _atom_site_fract_x
  _atom_site_fract_y
  _atom_site_fract_z
  _atom_site_occupancy
  C   C1        1.0  0.28437  0.24466  0.34502  1.0000
  C   C2        1.0  0.25710  0.27542  0.27187  1.0000
  C   C3        1.0  0.28194  0.26393  0.27253  1.0000
  H   H1        1.0  0.29812  0.26949  0.21839  1.0000
  H   H2        1.0  0.25677  0.28938  0.21768  1.0000
  C   C4        1.0  0.27105  0.20936  0.01709  1.0000
  H   H3        1.0  0.26967  0.19210  0.07124  1.0000
  H   H4        1.0  0.27216  0.23287  0.04621  1.0000
  C   C5        1.0  0.30867  0.23005  0.33659  1.0000
  H   H5        1.0  0.33160  0.24728  0.29524  1.0000
  H   H6        1.0  0.29374  0.20504  0.30059  1.0000
  C   C6        1.0  0.25302  0.03927  0.34505  1.0000
  C   C7        1.0  0.22227  0.48125  0.27184  1.0000
  C   C8        1.0  0.23376  0.01757  0.27254  1.0000
  H   H7        1.0  0.22821  0.02820  0.21841  1.0000
  H   H8        1.0  0.20832  0.46697  0.21764  1.0000
  C   C9        1.0  0.28830  0.06120  0.01713  1.0000
  H   H9        1.0  0.30556  0.07707  0.07130  1.0000
  H   H10       1.0  0.26478  0.03880  0.04623  1.0000
  C   C10       1.0  0.26761  0.07817  0.33667  1.0000
  H   H11       1.0  0.25036  0.08387  0.29540  1.0000
  H   H12       1.0  0.29261  0.08826  0.30061  1.0000
  C   C11       1.0  0.45842  0.21328  0.34509  1.0000
  C   C12       1.0  0.01642  0.24059  0.27180  1.0000
  C   C13       1.0  0.48010  0.21574  0.27253  1.0000
  H   H13       1.0  0.46947  0.19955  0.21841  1.0000
  H   H14       1.0  0.03070  0.24093  0.21757  1.0000
  C   C14       1.0  0.43651  0.22662  0.01719  1.0000
  H   H15       1.0  0.42064  0.22801  0.07137  1.0000
  H   H16       1.0  0.45891  0.22550  0.04626  1.0000
  C   C15       1.0  0.41952  0.18891  0.33676  1.0000
  H   H17       1.0  0.41386  0.16593  0.29568  1.0000
  H   H18       1.0  0.40939  0.20375  0.30049  1.0000
  C   C16       1.0  0.18474  0.31448  0.26636  1.0000
  C   C17       1.0  0.14739  0.29522  0.26623  1.0000
  C   C18       1.0  0.12786  0.31294  0.26624  1.0000
  C   C19       1.0  0.14594  0.35028  0.26618  1.0000
  C   C20       1.0  0.18319  0.36982  0.26628  1.0000
  C   C21       1.0  0.20245  0.35173  0.26632  1.0000
  H   H19       1.0  0.13187  0.36326  0.26391  1.0000
  H   H20       1.0  0.22950  0.36580  0.26401  1.0000
  H   H21       1.0  0.13441  0.26816  0.26399  1.0000
  N   N1        1.0  0.20523  0.29778  0.26104  1.0000
  H   H22       1.0  0.19676  0.28082  0.20757  1.0000
  N   N2        1.0  0.19990  0.40700  0.26097  1.0000
  H   H23       1.0  0.21688  0.41550  0.20752  1.0000
  N   N3        1.0  0.09067  0.29245  0.26093  1.0000
  H   H24       1.0  0.08217  0.30091  0.20745  1.0000
  C   C22       1.0  0.32747  0.19575  0.42782  1.0000
  C   C23       1.0  0.36166  0.19991  0.42900  1.0000
  C   C24       1.0  0.36643  0.17022  0.42792  1.0000
  C   C25       1.0  0.33640  0.13603  0.42903  1.0000
  C   C26       1.0  0.30194  0.13126  0.42788  1.0000
  C   C27       1.0  0.29779  0.16129  0.42894  1.0000
  H   H25       1.0  0.33966  0.11440  0.42759  1.0000
  H   H26       1.0  0.27289  0.15803  0.42744  1.0000
  H   H27       1.0  0.38329  0.22480  0.42746  1.0000
  N   N4        1.0  0.32192  0.22502  0.42353  1.0000
  H   H28       1.0  0.34361  0.24826  0.44370  1.0000
  N   N5        1.0  0.27267  0.09644  0.42363  1.0000
  H   H29       1.0  0.24944  0.09489  0.44389  1.0000
  N   N6        1.0  0.40124  0.17577  0.42374  1.0000
  H   H30       1.0  0.40280  0.15411  0.44419  1.0000
  C   C28       1.0  0.26025  0.23641  0.41662  1.0000
  C   C29       1.0  0.23515  0.24817  0.41613  1.0000
  C   C30       1.0  0.23302  0.26755  0.34299  1.0000
  N   N7        1.0  0.21301  0.23978  0.48734  1.0000
  C   C31       1.0  0.21375  0.22109  0.55859  1.0000
  C   C32       1.0  0.23860  0.20961  0.55979  1.0000
  N   N8        1.0  0.26024  0.21737  0.48834  1.0000
  H   H31       1.0  0.19651  0.21560  0.61010  1.0000
  O   O1        1.0  0.24011  0.19013  0.62907  1.0000
  H   H32       1.0  0.29528  0.21710  0.64616  1.0000
  C   C33       1.0  0.20599  0.27901  0.34273  1.0000
  H   H33       1.0  0.21154  0.29654  0.39993  1.0000
  H   H34       1.0  0.17983  0.25565  0.35230  1.0000
  C   C34       1.0  0.26126  0.02338  0.41664  1.0000
  C   C35       1.0  0.24950  0.48652  0.41612  1.0000
  C   C36       1.0  0.23013  0.46502  0.34296  1.0000
  N   N9        1.0  0.25789  0.47276  0.48732  1.0000
  C   C37       1.0  0.27656  0.49217  0.55859  1.0000
  C   C38       1.0  0.28805  0.02851  0.55982  1.0000
  N   N10       1.0  0.28029  0.04239  0.48839  1.0000
  H   H35       1.0  0.28205  0.48041  0.61008  1.0000
  O   O2        1.0  0.30753  0.04949  0.62912  1.0000
  H   H36       1.0  0.28057  0.07769  0.64622  1.0000
  C   C39       1.0  0.21867  0.42653  0.34268  1.0000
  H   H37       1.0  0.20112  0.41455  0.39986  1.0000
  H   H38       1.0  0.24201  0.42373  0.35228  1.0000
  C   C40       1.0  0.47430  0.23741  0.41668  1.0000
  C   C41       1.0  0.01116  0.26253  0.41611  1.0000
  C   C42       1.0  0.03265  0.26466  0.34292  1.0000
  N   N11       1.0  0.02492  0.28468  0.48728  1.0000
  C   C43       1.0  0.00551  0.28394  0.55858  1.0000
  C   C44       1.0  0.46919  0.25907  0.55986  1.0000
  N   N12       1.0  0.45530  0.23742  0.48844  1.0000
  H   H39       1.0  0.01727  0.30119  0.61006  1.0000
  O   O3        1.0  0.44821  0.25756  0.62918  1.0000
  H   H40       1.0  0.42001  0.20239  0.64627  1.0000
  C   C45       1.0  0.07113  0.29170  0.34262  1.0000
  H   H41       1.0  0.08313  0.28617  0.39982  1.0000
  H   H42       1.0  0.07393  0.31786  0.35216  1.0000
  C   C46       1.0  0.28437  0.74466  0.34502  1.0000
  C   C47       1.0  0.25710  0.77541  0.27187  1.0000
  C   C48       1.0  0.28193  0.76393  0.27254  1.0000
  H   H43       1.0  0.29812  0.76949  0.21839  1.0000
  H   H44       1.0  0.25677  0.78938  0.21768  1.0000
  C   C49       1.0  0.27104  0.70936  0.01709  1.0000
  H   H45       1.0  0.26967  0.69210  0.07124  1.0000
  H   H46       1.0  0.27216  0.73287  0.04621  1.0000
  C   C50       1.0  0.30867  0.73005  0.33659  1.0000
  H   H47       1.0  0.33160  0.74728  0.29524  1.0000
  H   H48       1.0  0.29374  0.70504  0.30059  1.0000
  C   C51       1.0  0.25302  0.53926  0.34505  1.0000
  C   C52       1.0  0.22227  0.98125  0.27184  1.0000
  C   C53       1.0  0.23376  0.51757  0.27254  1.0000
  H   H49       1.0  0.22821  0.52820  0.21841  1.0000
  H   H50       1.0  0.20832  0.96696  0.21764  1.0000
  C   C54       1.0  0.28830  0.56120  0.01713  1.0000
  H   H51       1.0  0.30556  0.57707  0.07130  1.0000
  H   H52       1.0  0.26478  0.53880  0.04623  1.0000
  C   C55       1.0  0.26761  0.57817  0.33667  1.0000
  H   H53       1.0  0.25036  0.58387  0.29540  1.0000
  H   H54       1.0  0.29261  0.58826  0.30061  1.0000
  C   C56       1.0  0.45842  0.71328  0.34509  1.0000
  C   C57       1.0  0.01642  0.74059  0.27180  1.0000
  C   C58       1.0  0.48010  0.71574  0.27253  1.0000
  H   H55       1.0  0.46947  0.69955  0.21841  1.0000
  H   H56       1.0  0.03070  0.74093  0.21757  1.0000
  C   C59       1.0  0.43651  0.72662  0.01719  1.0000
  H   H57       1.0  0.42064  0.72801  0.07137  1.0000
  H   H58       1.0  0.45891  0.72550  0.04626  1.0000
  C   C60       1.0  0.41952  0.68891  0.33676  1.0000
  H   H59       1.0  0.41386  0.66593  0.29568  1.0000
  H   H60       1.0  0.40939  0.70374  0.30049  1.0000
  C   C61       1.0  0.18474  0.81448  0.26636  1.0000
  C   C62       1.0  0.14739  0.79522  0.26623  1.0000
  C   C63       1.0  0.12786  0.81293  0.26624  1.0000
  C   C64       1.0  0.14594  0.85028  0.26618  1.0000
  C   C65       1.0  0.18319  0.86982  0.26628  1.0000
  C   C66       1.0  0.20245  0.85173  0.26632  1.0000
  H   H61       1.0  0.13187  0.86326  0.26391  1.0000
  H   H62       1.0  0.22950  0.86580  0.26401  1.0000
  H   H63       1.0  0.13441  0.76817  0.26399  1.0000
  N   N13       1.0  0.20523  0.79778  0.26104  1.0000
  H   H64       1.0  0.19676  0.78082  0.20757  1.0000
  N   N14       1.0  0.19990  0.90700  0.26097  1.0000
  H   H65       1.0  0.21688  0.91550  0.20752  1.0000
  N   N15       1.0  0.09067  0.79245  0.26093  1.0000
  H   H66       1.0  0.08217  0.80091  0.20745  1.0000
  C   C67       1.0  0.32747  0.69575  0.42782  1.0000
  C   C68       1.0  0.36166  0.69990  0.42900  1.0000
  C   C69       1.0  0.36643  0.67022  0.42792  1.0000
  C   C70       1.0  0.33639  0.63604  0.42903  1.0000
  C   C71       1.0  0.30194  0.63126  0.42788  1.0000
  C   C72       1.0  0.29778  0.66129  0.42894  1.0000
  H   H67       1.0  0.33966  0.61440  0.42759  1.0000
  H   H68       1.0  0.27289  0.65803  0.42744  1.0000
  H   H69       1.0  0.38329  0.72480  0.42746  1.0000
  N   N16       1.0  0.32192  0.72502  0.42353  1.0000
  H   H70       1.0  0.34361  0.74826  0.44370  1.0000
  N   N17       1.0  0.27267  0.59644  0.42363  1.0000
  H   H71       1.0  0.24944  0.59489  0.44389  1.0000
  N   N18       1.0  0.40124  0.67577  0.42374  1.0000
  H   H72       1.0  0.40280  0.65411  0.44419  1.0000
  C   C73       1.0  0.26025  0.73641  0.41662  1.0000
  C   C74       1.0  0.23515  0.74817  0.41613  1.0000
  C   C75       1.0  0.23302  0.76755  0.34299  1.0000
  N   N19       1.0  0.21301  0.73978  0.48734  1.0000
  C   C76       1.0  0.21375  0.72109  0.55859  1.0000
  C   C77       1.0  0.23860  0.70961  0.55979  1.0000
  N   N20       1.0  0.26024  0.71737  0.48834  1.0000
  H   H73       1.0  0.19650  0.71560  0.61010  1.0000
  O   O4        1.0  0.24011  0.69013  0.62907  1.0000
  H   H74       1.0  0.29528  0.71710  0.64616  1.0000
  C   C78       1.0  0.20599  0.77900  0.34273  1.0000
  H   H75       1.0  0.21154  0.79654  0.39993  1.0000
  H   H76       1.0  0.17984  0.75565  0.35230  1.0000
  C   C79       1.0  0.26126  0.52338  0.41664  1.0000
  C   C80       1.0  0.24950  0.98652  0.41612  1.0000
  C   C81       1.0  0.23013  0.96502  0.34296  1.0000
  N   N21       1.0  0.25789  0.97276  0.48732  1.0000
  C   C82       1.0  0.27657  0.99217  0.55859  1.0000
  C   C83       1.0  0.28805  0.52851  0.55982  1.0000
  N   N22       1.0  0.28029  0.54239  0.48839  1.0000
  H   H77       1.0  0.28205  0.98041  0.61008  1.0000
  O   O5        1.0  0.30753  0.54949  0.62912  1.0000
  H   H78       1.0  0.28057  0.57769  0.64622  1.0000
  C   C84       1.0  0.21866  0.92653  0.34268  1.0000
  H   H79       1.0  0.20112  0.91455  0.39986  1.0000
  H   H80       1.0  0.24201  0.92373  0.35228  1.0000
  C   C85       1.0  0.47431  0.73741  0.41668  1.0000
  C   C86       1.0  0.01116  0.76253  0.41611  1.0000
  C   C87       1.0  0.03265  0.76466  0.34292  1.0000
  N   N23       1.0  0.02492  0.78468  0.48728  1.0000
  C   C88       1.0  0.00552  0.78394  0.55858  1.0000
  C   C89       1.0  0.46919  0.75907  0.55986  1.0000
  N   N24       1.0  0.45530  0.73742  0.48844  1.0000
  H   H81       1.0  0.01727  0.80119  0.61006  1.0000
  O   O6        1.0  0.44821  0.75756  0.62918  1.0000
  H   H82       1.0  0.42001  0.70239  0.64627  1.0000
  C   C90       1.0  0.07113  0.79170  0.34262  1.0000
  H   H83       1.0  0.08313  0.78617  0.39982  1.0000
  H   H84       1.0  0.07394  0.81786  0.35216  1.0000
  C   C91       1.0  0.78437  0.24466  0.34502  1.0000
  C   C92       1.0  0.75710  0.27542  0.27187  1.0000
  C   C93       1.0  0.78194  0.26393  0.27253  1.0000
  H   H85       1.0  0.79812  0.26949  0.21839  1.0000
  H   H86       1.0  0.75677  0.28938  0.21768  1.0000
  C   C94       1.0  0.77105  0.20936  0.01709  1.0000
  H   H87       1.0  0.76967  0.19210  0.07124  1.0000
  H   H88       1.0  0.77216  0.23287  0.04621  1.0000
  C   C95       1.0  0.80867  0.23005  0.33659  1.0000
  H   H89       1.0  0.83160  0.24728  0.29524  1.0000
  H   H90       1.0  0.79374  0.20504  0.30059  1.0000
  C   C96       1.0  0.75302  0.03927  0.34505  1.0000
  C   C97       1.0  0.72227  0.48125  0.27184  1.0000
  C   C98       1.0  0.73376  0.01757  0.27254  1.0000
  H   H91       1.0  0.72821  0.02820  0.21841  1.0000
  H   H92       1.0  0.70832  0.46697  0.21764  1.0000
  C   C99       1.0  0.78830  0.06120  0.01713  1.0000
  H   H93       1.0  0.80556  0.07707  0.07130  1.0000
  H   H94       1.0  0.76478  0.03880  0.04623  1.0000
  C   C100      1.0  0.76761  0.07817  0.33667  1.0000
  H   H95       1.0  0.75036  0.08387  0.29540  1.0000
  H   H96       1.0  0.79261  0.08826  0.30061  1.0000
  C   C101      1.0  0.95842  0.21328  0.34509  1.0000
  C   C102      1.0  0.51642  0.24059  0.27180  1.0000
  C   C103      1.0  0.98010  0.21574  0.27253  1.0000
  H   H97       1.0  0.96947  0.19955  0.21841  1.0000
  H   H98       1.0  0.53070  0.24093  0.21757  1.0000
  C   C104      1.0  0.93651  0.22662  0.01719  1.0000
  H   H99       1.0  0.92064  0.22801  0.07137  1.0000
  H   H100      1.0  0.95891  0.22550  0.04626  1.0000
  C   C105      1.0  0.91952  0.18891  0.33676  1.0000
  H   H101      1.0  0.91386  0.16593  0.29568  1.0000
  H   H102      1.0  0.90939  0.20375  0.30049  1.0000
  C   C106      1.0  0.68474  0.31448  0.26636  1.0000
  C   C107      1.0  0.64739  0.29522  0.26623  1.0000
  C   C108      1.0  0.62786  0.31294  0.26624  1.0000
  C   C109      1.0  0.64594  0.35028  0.26618  1.0000
  C   C110      1.0  0.68319  0.36982  0.26628  1.0000
  C   C111      1.0  0.70245  0.35173  0.26632  1.0000
  H   H103      1.0  0.63187  0.36326  0.26391  1.0000
  H   H104      1.0  0.72950  0.36580  0.26401  1.0000
  H   H105      1.0  0.63441  0.26816  0.26399  1.0000
  N   N25       1.0  0.70522  0.29778  0.26104  1.0000
  H   H106      1.0  0.69676  0.28082  0.20757  1.0000
  N   N26       1.0  0.69990  0.40700  0.26097  1.0000
  H   H107      1.0  0.71687  0.41550  0.20752  1.0000
  N   N27       1.0  0.59067  0.29245  0.26093  1.0000
  H   H108      1.0  0.58217  0.30091  0.20745  1.0000
  C   C112      1.0  0.82747  0.19575  0.42782  1.0000
  C   C113      1.0  0.86165  0.19991  0.42900  1.0000
  C   C114      1.0  0.86643  0.17022  0.42792  1.0000
  C   C115      1.0  0.83639  0.13603  0.42903  1.0000
  C   C116      1.0  0.80194  0.13126  0.42788  1.0000
  C   C117      1.0  0.79778  0.16129  0.42894  1.0000
  H   H109      1.0  0.83966  0.11440  0.42759  1.0000
  H   H110      1.0  0.77289  0.15803  0.42744  1.0000
  H   H111      1.0  0.88329  0.22480  0.42746  1.0000
  N   N28       1.0  0.82192  0.22502  0.42353  1.0000
  H   H112      1.0  0.84361  0.24826  0.44370  1.0000
  N   N29       1.0  0.77267  0.09644  0.42363  1.0000
  H   H113      1.0  0.74944  0.09489  0.44389  1.0000
  N   N30       1.0  0.90124  0.17577  0.42374  1.0000
  H   H114      1.0  0.90280  0.15411  0.44419  1.0000
  C   C118      1.0  0.76025  0.23641  0.41662  1.0000
  C   C119      1.0  0.73515  0.24817  0.41613  1.0000
  C   C120      1.0  0.73303  0.26755  0.34299  1.0000
  N   N31       1.0  0.71301  0.23978  0.48734  1.0000
  C   C121      1.0  0.71375  0.22109  0.55859  1.0000
  C   C122      1.0  0.73860  0.20961  0.55979  1.0000
  N   N32       1.0  0.76024  0.21737  0.48834  1.0000
  H   H115      1.0  0.69651  0.21560  0.61010  1.0000
  O   O7        1.0  0.74011  0.19013  0.62907  1.0000
  H   H116      1.0  0.79527  0.21710  0.64616  1.0000
  C   C123      1.0  0.70599  0.27901  0.34273  1.0000
  H   H117      1.0  0.71154  0.29654  0.39993  1.0000
  H   H118      1.0  0.67983  0.25565  0.35230  1.0000
  C   C124      1.0  0.76126  0.02338  0.41664  1.0000
  C   C125      1.0  0.74950  0.48652  0.41612  1.0000
  C   C126      1.0  0.73013  0.46502  0.34296  1.0000
  N   N33       1.0  0.75789  0.47276  0.48732  1.0000
  C   C127      1.0  0.77656  0.49217  0.55859  1.0000
  C   C128      1.0  0.78805  0.02851  0.55982  1.0000
  N   N34       1.0  0.78029  0.04239  0.48839  1.0000
  H   H119      1.0  0.78205  0.48041  0.61008  1.0000
  O   O8        1.0  0.80753  0.04949  0.62912  1.0000
  H   H120      1.0  0.78056  0.07769  0.64622  1.0000
  C   C129      1.0  0.71867  0.42653  0.34268  1.0000
  H   H121      1.0  0.70112  0.41455  0.39986  1.0000
  H   H122      1.0  0.74201  0.42373  0.35228  1.0000
  C   C130      1.0  0.97430  0.23741  0.41668  1.0000
  C   C131      1.0  0.51116  0.26253  0.41611  1.0000
  C   C132      1.0  0.53265  0.26466  0.34292  1.0000
  N   N35       1.0  0.52492  0.28468  0.48728  1.0000
  C   C133      1.0  0.50552  0.28394  0.55858  1.0000
  C   C134      1.0  0.96918  0.25907  0.55986  1.0000
  N   N36       1.0  0.95530  0.23742  0.48844  1.0000
  H   H123      1.0  0.51727  0.30119  0.61006  1.0000
  O   O9        1.0  0.94821  0.25756  0.62918  1.0000
  H   H124      1.0  0.92001  0.20239  0.64627  1.0000
  C   C135      1.0  0.57113  0.29170  0.34262  1.0000
  H   H125      1.0  0.58313  0.28617  0.39982  1.0000
  H   H126      1.0  0.57393  0.31786  0.35216  1.0000
  C   C136      1.0  0.78437  0.74466  0.34502  1.0000
  C   C137      1.0  0.75710  0.77541  0.27187  1.0000
  C   C138      1.0  0.78194  0.76393  0.27254  1.0000
  H   H127      1.0  0.79812  0.76949  0.21839  1.0000
  H   H128      1.0  0.75677  0.78938  0.21768  1.0000
  C   C139      1.0  0.77104  0.70936  0.01709  1.0000
  H   H129      1.0  0.76967  0.69210  0.07124  1.0000
  H   H130      1.0  0.77216  0.73287  0.04621  1.0000
  C   C140      1.0  0.80867  0.73005  0.33659  1.0000
  H   H131      1.0  0.83160  0.74728  0.29524  1.0000
  H   H132      1.0  0.79374  0.70504  0.30059  1.0000
  C   C141      1.0  0.75302  0.53926  0.34505  1.0000
  C   C142      1.0  0.72228  0.98125  0.27184  1.0000
  C   C143      1.0  0.73376  0.51757  0.27254  1.0000
  H   H133      1.0  0.72821  0.52820  0.21841  1.0000
  H   H134      1.0  0.70832  0.96696  0.21764  1.0000
  C   C144      1.0  0.78830  0.56120  0.01713  1.0000
  H   H135      1.0  0.80556  0.57707  0.07130  1.0000
  H   H136      1.0  0.76478  0.53880  0.04623  1.0000
  C   C145      1.0  0.76761  0.57817  0.33667  1.0000
  H   H137      1.0  0.75036  0.58387  0.29540  1.0000
  H   H138      1.0  0.79261  0.58826  0.30061  1.0000
  C   C146      1.0  0.95842  0.71328  0.34509  1.0000
  C   C147      1.0  0.51642  0.74059  0.27180  1.0000
  C   C148      1.0  0.98010  0.71574  0.27253  1.0000
  H   H139      1.0  0.96947  0.69955  0.21841  1.0000
  H   H140      1.0  0.53070  0.74093  0.21757  1.0000
  C   C149      1.0  0.93651  0.72662  0.01719  1.0000
  H   H141      1.0  0.92064  0.72801  0.07137  1.0000
  H   H142      1.0  0.95891  0.72550  0.04626  1.0000
  C   C150      1.0  0.91952  0.68891  0.33676  1.0000
  H   H143      1.0  0.91386  0.66593  0.29568  1.0000
  H   H144      1.0  0.90939  0.70374  0.30049  1.0000
  C   C151      1.0  0.68474  0.81448  0.26636  1.0000
  C   C152      1.0  0.64739  0.79522  0.26623  1.0000
  C   C153      1.0  0.62786  0.81293  0.26624  1.0000
  C   C154      1.0  0.64594  0.85028  0.26618  1.0000
  C   C155      1.0  0.68319  0.86982  0.26628  1.0000
  C   C156      1.0  0.70245  0.85173  0.26632  1.0000
  H   H145      1.0  0.63187  0.86326  0.26391  1.0000
  H   H146      1.0  0.72950  0.86580  0.26401  1.0000
  H   H147      1.0  0.63441  0.76817  0.26399  1.0000
  N   N37       1.0  0.70523  0.79778  0.26104  1.0000
  H   H148      1.0  0.69676  0.78082  0.20757  1.0000
  N   N38       1.0  0.69990  0.90700  0.26097  1.0000
  H   H149      1.0  0.71688  0.91550  0.20752  1.0000
  N   N39       1.0  0.59067  0.79245  0.26093  1.0000
  H   H150      1.0  0.58217  0.80091  0.20745  1.0000
  C   C157      1.0  0.82747  0.69575  0.42782  1.0000
  C   C158      1.0  0.86165  0.69990  0.42900  1.0000
  C   C159      1.0  0.86643  0.67022  0.42792  1.0000
  C   C160      1.0  0.83639  0.63604  0.42903  1.0000
  C   C161      1.0  0.80194  0.63126  0.42788  1.0000
  C   C162      1.0  0.79778  0.66129  0.42894  1.0000
  H   H151      1.0  0.83966  0.61440  0.42759  1.0000
  H   H152      1.0  0.77289  0.65803  0.42744  1.0000
  H   H153      1.0  0.88329  0.72480  0.42746  1.0000
  N   N40       1.0  0.82192  0.72502  0.42353  1.0000
  H   H154      1.0  0.84361  0.74826  0.44370  1.0000
  N   N41       1.0  0.77267  0.59644  0.42363  1.0000
  H   H155      1.0  0.74943  0.59489  0.44389  1.0000
  N   N42       1.0  0.90124  0.67577  0.42374  1.0000
  H   H156      1.0  0.90280  0.65411  0.44419  1.0000
  C   C163      1.0  0.76025  0.73641  0.41662  1.0000
  C   C164      1.0  0.73515  0.74817  0.41613  1.0000
  C   C165      1.0  0.73302  0.76755  0.34299  1.0000
  N   N43       1.0  0.71301  0.73978  0.48734  1.0000
  C   C166      1.0  0.71375  0.72109  0.55859  1.0000
  C   C167      1.0  0.73860  0.70961  0.55979  1.0000
  N   N44       1.0  0.76024  0.71737  0.48834  1.0000
  H   H157      1.0  0.69650  0.71560  0.61010  1.0000
  O   O10       1.0  0.74011  0.69013  0.62907  1.0000
  H   H158      1.0  0.79528  0.71710  0.64616  1.0000
  C   C168      1.0  0.70599  0.77900  0.34273  1.0000
  H   H159      1.0  0.71154  0.79654  0.39993  1.0000
  H   H160      1.0  0.67984  0.75565  0.35230  1.0000
  C   C169      1.0  0.76126  0.52338  0.41664  1.0000
  C   C170      1.0  0.74950  0.98652  0.41612  1.0000
  C   C171      1.0  0.73013  0.96502  0.34296  1.0000
  N   N45       1.0  0.75789  0.97276  0.48732  1.0000
  C   C172      1.0  0.77656  0.99217  0.55859  1.0000
  C   C173      1.0  0.78804  0.52851  0.55982  1.0000
  N   N46       1.0  0.78029  0.54239  0.48839  1.0000
  H   H161      1.0  0.78205  0.98041  0.61008  1.0000
  O   O11       1.0  0.80753  0.54949  0.62912  1.0000
  H   H162      1.0  0.78056  0.57769  0.64622  1.0000
  C   C174      1.0  0.71866  0.92653  0.34268  1.0000
  H   H163      1.0  0.70112  0.91455  0.39986  1.0000
  H   H164      1.0  0.74201  0.92373  0.35228  1.0000
  C   C175      1.0  0.97431  0.73741  0.41668  1.0000
  C   C176      1.0  0.51116  0.76253  0.41611  1.0000
  C   C177      1.0  0.53265  0.76466  0.34292  1.0000
  N   N47       1.0  0.52492  0.78468  0.48728  1.0000
  C   C178      1.0  0.50551  0.78394  0.55858  1.0000
  C   C179      1.0  0.96918  0.75907  0.55986  1.0000
  N   N48       1.0  0.95530  0.73742  0.48844  1.0000
  H   H165      1.0  0.51727  0.80119  0.61006  1.0000
  O   O12       1.0  0.94821  0.75756  0.62918  1.0000
  H   H166      1.0  0.92001  0.70239  0.64627  1.0000
  C   C180      1.0  0.57113  0.79170  0.34262  1.0000
  H   H167      1.0  0.58313  0.78617  0.39982  1.0000
  H   H168      1.0  0.57393  0.81786  0.35216  1.0000
