data_image0
_chemical_formula_structural       CHC2HC3HNO2C10H6C6H2C2H2C10H6C6H2C2H2C3H2C2H2NC3H2C2H2NC2H2NC8H7CHC8H7CHC7H2N2O4NC7H2N2O4NC4HNO2N
_chemical_formula_sum              "C90 H54 N12 O12"
_cell_length_a       44.4981
_cell_length_b       44.4672
_cell_length_c       14.9312
_cell_angle_alpha    90
_cell_angle_beta     90
_cell_angle_gamma    120.015

_space_group_name_H-M_alt    "P 1"
_space_group_IT_number       1

loop_
  _space_group_symop_operation_xyz
  'x, y, z'

loop_
  _atom_site_type_symbol
  _atom_site_label
  _atom_site_symmetry_multiplicity
  _atom_site_fract_x
  _atom_site_fract_y
  _atom_site_fract_z
  _atom_site_occupancy
  C   C1        1.0  0.04015  0.54251  0.30428  1.0000
  H   H1        1.0  0.02669  0.55041  0.26435  1.0000
  C   C2        1.0  0.04215  0.50380  0.41534  1.0000
  C   C3        1.0  0.02231  0.51377  0.36215  1.0000
  H   H2        1.0  0.02980  0.48252  0.45613  1.0000
  C   C4        1.0  0.07660  0.56100  0.30088  1.0000
  C   C5        1.0  0.07894  0.52220  0.41250  1.0000
  C   C6        1.0  0.09649  0.55144  0.35546  1.0000
  H   H3        1.0  0.08844  0.58138  0.25728  1.0000
  N   N1        1.0  0.09864  0.51209  0.46607  1.0000
  O   O1        1.0  0.09194  0.48179  0.44752  1.0000
  O   O2        1.0  0.09294  0.51341  0.54801  1.0000
  C   C7        1.0  0.26342  0.64031  0.33623  1.0000
  C   C8        1.0  0.36659  0.62522  0.32565  1.0000
  C   C9        1.0  0.18948  0.61175  0.33221  1.0000
  C   C10       1.0  0.21189  0.64139  0.28096  1.0000
  C   C11       1.0  0.24806  0.65530  0.28275  1.0000
  C   C12       1.0  0.37380  0.76613  0.29454  1.0000
  C   C13       1.0  0.39596  0.80242  0.29639  1.0000
  C   C14       1.0  0.39481  0.57955  0.31753  1.0000
  C   C15       1.0  0.36636  0.57390  0.26328  1.0000
  C   C16       1.0  0.35259  0.59629  0.26715  1.0000
  H   H4        1.0  0.20206  0.65324  0.24128  1.0000
  H   H5        1.0  0.26311  0.67643  0.24335  1.0000
  H   H6        1.0  0.35209  0.75630  0.25520  1.0000
  H   H7        1.0  0.38953  0.81768  0.25895  1.0000
  H   H8        1.0  0.35520  0.55325  0.22010  1.0000
  H   H9        1.0  0.33226  0.59131  0.22587  1.0000
  C   C17       1.0  0.35189  0.64742  0.33119  1.0000
  C   C18       1.0  0.37331  0.68399  0.33426  1.0000
  C   C19       1.0  0.35950  0.70654  0.34003  1.0000
  C   C20       1.0  0.32292  0.69128  0.34208  1.0000
  C   C21       1.0  0.30035  0.65488  0.33774  1.0000
  C   C22       1.0  0.31547  0.63349  0.33300  1.0000
  H   H10       1.0  0.39962  0.69447  0.32911  1.0000
  H   H11       1.0  0.29955  0.60712  0.33011  1.0000
  C   C23       1.0  0.40698  0.55615  0.31386  1.0000
  C   C24       1.0  0.15389  0.59937  0.33059  1.0000
  H   H12       1.0  0.39164  0.53288  0.28719  1.0000
  H   H13       1.0  0.14575  0.61550  0.31121  1.0000
  C   C25       1.0  0.74401  0.36649  0.34725  1.0000
  C   C26       1.0  0.63845  0.37734  0.33622  1.0000
  C   C27       1.0  0.81813  0.39885  0.32986  1.0000
  C   C28       1.0  0.79560  0.36824  0.28197  1.0000
  C   C29       1.0  0.75936  0.35242  0.29049  1.0000
  C   C30       1.0  0.63723  0.23957  0.30461  1.0000
  C   C31       1.0  0.61589  0.20319  0.30197  1.0000
  C   C32       1.0  0.60629  0.41923  0.31652  1.0000
  C   C33       1.0  0.63581  0.42591  0.26548  1.0000
  C   C34       1.0  0.65157  0.40545  0.27518  1.0000
  H   H14       1.0  0.80535  0.35725  0.23905  1.0000
  H   H15       1.0  0.74423  0.33093  0.25231  1.0000
  H   H16       1.0  0.65961  0.25053  0.26771  1.0000
  H   H17       1.0  0.62355  0.18896  0.26423  1.0000
  H   H18       1.0  0.64612  0.44573  0.21971  1.0000
  H   H19       1.0  0.67236  0.41085  0.23521  1.0000
  C   C35       1.0  0.65429  0.35624  0.34478  1.0000
  C   C36       1.0  0.63384  0.31956  0.34750  1.0000
  C   C37       1.0  0.64872  0.29793  0.35343  1.0000
  C   C38       1.0  0.68539  0.31433  0.35635  1.0000
  C   C39       1.0  0.70700  0.35085  0.35201  1.0000
  C   C40       1.0  0.69083  0.37128  0.34711  1.0000
  H   H20       1.0  0.60750  0.30832  0.34082  1.0000
  H   H21       1.0  0.70605  0.39773  0.34330  1.0000
  C   C41       1.0  0.59089  0.43956  0.30315  1.0000
  C   C42       1.0  0.85387  0.41434  0.31704  1.0000
  H   H22       1.0  0.59881  0.45582  0.25136  1.0000
  H   H23       1.0  0.86239  0.40553  0.26755  1.0000
  C   C43       1.0  0.45368  0.54521  0.34631  1.0000
  C   C44       1.0  0.46315  0.49808  0.29534  1.0000
  C   C45       1.0  0.44446  0.51583  0.29165  1.0000
  H   H24       1.0  0.45554  0.47684  0.25506  1.0000
  H   H25       1.0  0.42426  0.50721  0.24754  1.0000
  C   C46       1.0  0.54403  0.46950  0.27303  1.0000
  C   C47       1.0  0.52493  0.48684  0.27469  1.0000
  H   H26       1.0  0.55314  0.46643  0.21287  1.0000
  H   H27       1.0  0.52141  0.49644  0.21570  1.0000
  N   N2        1.0  0.43697  0.56321  0.34362  1.0000
  C   C48       1.0  0.45802  0.90993  0.35114  1.0000
  C   C49       1.0  0.50652  0.96556  0.29984  1.0000
  C   C50       1.0  0.48793  0.92905  0.29757  1.0000
  H   H28       1.0  0.52829  0.97857  0.26105  1.0000
  H   H29       1.0  0.49633  0.91646  0.25606  1.0000
  C   C51       1.0  0.53792  0.07679  0.28081  1.0000
  C   C52       1.0  0.51939  0.04027  0.28006  1.0000
  H   H30       1.0  0.54077  0.09001  0.22241  1.0000
  H   H31       1.0  0.50879  0.02779  0.22089  1.0000
  N   N3        1.0  0.43976  0.87529  0.34925  1.0000
  C   C53       1.0  0.93019  0.46207  0.28342  1.0000
  C   C54       1.0  0.96664  0.48097  0.28420  1.0000
  H   H32       1.0  0.91775  0.45280  0.22363  1.0000
  H   H33       1.0  0.97954  0.48423  0.22497  1.0000
  N   N4        1.0  0.13118  0.56816  0.35320  1.0000
  C   C55       1.0  0.38177  0.74356  0.34294  1.0000
  C   C56       1.0  0.24094  0.61047  0.38698  1.0000
  C   C57       1.0  0.20468  0.59645  0.38514  1.0000
  C   C58       1.0  0.42708  0.81751  0.34658  1.0000
  C   C59       1.0  0.43518  0.79518  0.39505  1.0000
  C   C60       1.0  0.41284  0.75896  0.39368  1.0000
  C   C61       1.0  0.39531  0.63108  0.37923  1.0000
  C   C62       1.0  0.40915  0.60869  0.37539  1.0000
  H   H34       1.0  0.18953  0.57523  0.42415  1.0000
  H   H35       1.0  0.41951  0.74389  0.43107  1.0000
  H   H36       1.0  0.45747  0.80510  0.43230  1.0000
  H   H37       1.0  0.40590  0.65126  0.42381  1.0000
  H   H38       1.0  0.42945  0.61359  0.41671  1.0000
  H   H39       1.0  0.31242  0.70704  0.34905  1.0000
  H   H40       1.0  0.25086  0.59903  0.42769  1.0000
  C   C63       1.0  0.45016  0.85302  0.34632  1.0000
  H   H41       1.0  0.47549  0.86130  0.34786  1.0000
  C   C64       1.0  0.62744  0.26074  0.35323  1.0000
  C   C65       1.0  0.76652  0.39706  0.39544  1.0000
  C   C66       1.0  0.80287  0.41291  0.38710  1.0000
  C   C67       1.0  0.58379  0.18668  0.34760  1.0000
  C   C68       1.0  0.57376  0.20744  0.39638  1.0000
  C   C69       1.0  0.59537  0.24377  0.39972  1.0000
  C   C70       1.0  0.60892  0.37064  0.38735  1.0000
  C   C71       1.0  0.59315  0.39117  0.37782  1.0000
  H   H42       1.0  0.81806  0.43514  0.42263  1.0000
  H   H43       1.0  0.58731  0.25775  0.43689  1.0000
  H   H44       1.0  0.55058  0.19630  0.42995  1.0000
  H   H45       1.0  0.59872  0.35082  0.43301  1.0000
  H   H46       1.0  0.57173  0.38516  0.41586  1.0000
  H   H47       1.0  0.69673  0.29930  0.36275  1.0000
  H   H48       1.0  0.75661  0.40806  0.43769  1.0000
  C   C72       1.0  0.56152  0.15128  0.34069  1.0000
  H   H49       1.0  0.53725  0.14281  0.32049  1.0000
  C   C73       1.0  0.48263  0.55683  0.40432  1.0000
  C   C74       1.0  0.50127  0.53867  0.40738  1.0000
  C   C75       1.0  0.49177  0.50907  0.35363  1.0000
  C   C76       1.0  0.51112  0.49135  0.35566  1.0000
  C   C77       1.0  0.51664  0.47759  0.43598  1.0000
  C   C78       1.0  0.53589  0.46004  0.43312  1.0000
  C   C79       1.0  0.55013  0.45614  0.35254  1.0000
  H   H50       1.0  0.53954  0.44998  0.49112  1.0000
  H   H51       1.0  0.52244  0.54769  0.44853  1.0000
  N   N5        1.0  0.50185  0.48049  0.51725  1.0000
  N   N6        1.0  0.49235  0.58647  0.45838  1.0000
  O   O3        1.0  0.52472  0.49688  0.57543  1.0000
  O   O4        1.0  0.52265  0.61028  0.44080  1.0000
  O   O5        1.0  0.48042  0.45118  0.54830  1.0000
  O   O6        1.0  0.49071  0.57921  0.54022  1.0000
  N   N7        1.0  0.56751  0.43888  0.35532  1.0000
  C   C80       1.0  0.44638  0.92812  0.40580  1.0000
  C   C81       1.0  0.46550  0.96492  0.40797  1.0000
  C   C82       1.0  0.49579  0.98404  0.35587  1.0000
  C   C83       1.0  0.51496  0.02104  0.35938  1.0000
  C   C84       1.0  0.53006  0.03928  0.44028  1.0000
  C   C85       1.0  0.54909  0.07610  0.43970  1.0000
  C   C86       1.0  0.55269  0.09508  0.36094  1.0000
  H   H52       1.0  0.56019  0.08917  0.49787  1.0000
  H   H53       1.0  0.45691  0.97783  0.44778  1.0000
  N   N8        1.0  0.52677  0.02048  0.51978  1.0000
  N   N9        1.0  0.41613  0.90902  0.45832  1.0000
  O   O7        1.0  0.51148  0.02740  0.58015  1.0000
  O   O8        1.0  0.39313  0.91631  0.43780  1.0000
  O   O9        1.0  0.55583  0.02674  0.54889  1.0000
  O   O10       1.0  0.42270  0.91487  0.54041  1.0000
  N   N10       1.0  0.57124  0.12955  0.36339  1.0000
  C   C87       1.0  0.98526  0.49484  0.36476  1.0000
  C   C88       1.0  0.96631  0.48974  0.44547  1.0000
  C   C89       1.0  0.92950  0.47072  0.44348  1.0000
  C   C90       1.0  0.91107  0.45629  0.36339  1.0000
  H   H54       1.0  0.91602  0.46729  0.50177  1.0000
  N   N11       1.0  0.98435  0.50468  0.52625  1.0000
  O   O11       1.0  0.97786  0.48192  0.58480  1.0000
  O   O12       1.0  0.97687  0.52641  0.55715  1.0000
  N   N12       1.0  0.87645  0.43888  0.36692  1.0000
