data_image0
_chemical_formula_structural       C4H2NC6H6NCHC4NH2C4H2C12H6NCHNCHCHNC3HCNHNC18H12C3H2C3H2C4H2
_chemical_formula_sum              "C66 H42 N8"
_cell_length_a       32.1955
_cell_length_b       32.1954
_cell_length_c       14.5229
_cell_angle_alpha    90
_cell_angle_beta     90
_cell_angle_gamma    120

_space_group_name_H-M_alt    "P 1"
_space_group_IT_number       1

loop_
  _space_group_symop_operation_xyz
  'x, y, z'

loop_
  _atom_site_type_symbol
  _atom_site_label
  _atom_site_symmetry_multiplicity
  _atom_site_fract_x
  _atom_site_fract_y
  _atom_site_fract_z
  _atom_site_occupancy
  C   C1        1.0  0.15277  0.58055  0.36249  1.0000
  C   C2        1.0  0.12624  0.55837  0.28167  1.0000
  C   C3        1.0  0.07572  0.53291  0.28190  1.0000
  C   C4        1.0  0.05026  0.52910  0.36388  1.0000
  H   H1        1.0  0.14352  0.55957  0.22174  1.0000
  H   H2        1.0  0.05804  0.51718  0.22212  1.0000
  N   N1        1.0  0.35804  0.68304  0.36673  1.0000
  C   C5        1.0  0.30710  0.65756  0.36522  1.0000
  C   C6        1.0  0.28084  0.62856  0.44040  1.0000
  C   C7        1.0  0.23033  0.60328  0.43931  1.0000
  C   C8        1.0  0.20428  0.60632  0.36336  1.0000
  C   C9        1.0  0.23116  0.63574  0.28836  1.0000
  C   C10       1.0  0.28169  0.66085  0.28912  1.0000
  H   H3        1.0  0.36898  0.63593  0.22658  1.0000
  H   H4        1.0  0.29848  0.62554  0.49629  1.0000
  H   H5        1.0  0.21276  0.58185  0.49442  1.0000
  H   H6        1.0  0.36000  0.74222  0.49766  1.0000
  H   H7        1.0  0.29998  0.68185  0.23401  1.0000
  H   H8        1.0  0.21417  0.63993  0.23263  1.0000
  N   N2        1.0  0.07693  0.55105  0.44011  1.0000
  C   C11       1.0  0.12561  0.57573  0.44255  1.0000
  H   H9        1.0  0.14191  0.59141  0.50330  1.0000
  C   C12       1.0  0.45955  0.57946  0.36419  1.0000
  C   C13       1.0  0.44181  0.53530  0.31687  1.0000
  C   C14       1.0  0.46697  0.50993  0.31702  1.0000
  C   C15       1.0  0.51099  0.52840  0.36492  1.0000
  N   N3        1.0  0.52228  0.46187  0.32341  1.0000
  H   H10       1.0  0.40966  0.52051  0.28305  1.0000
  H   H11       1.0  0.45269  0.47806  0.28237  1.0000
  C   C16       1.0  0.46043  0.88830  0.36413  1.0000
  C   C17       1.0  0.46458  0.91459  0.28304  1.0000
  C   C18       1.0  0.48973  0.96510  0.28263  1.0000
  C   C19       1.0  0.51160  0.99080  0.36426  1.0000
  H   H12       1.0  0.44847  0.89715  0.22327  1.0000
  H   H13       1.0  0.49164  0.98260  0.22262  1.0000
  C   C20       1.0  0.38331  0.65742  0.36603  1.0000
  C   C21       1.0  0.38381  0.73398  0.36677  1.0000
  C   C22       1.0  0.38543  0.63411  0.28547  1.0000
  C   C23       1.0  0.41056  0.60874  0.28487  1.0000
  C   C24       1.0  0.43419  0.60558  0.36477  1.0000
  C   C25       1.0  0.43165  0.62916  0.44529  1.0000
  C   C26       1.0  0.40675  0.65477  0.44592  1.0000
  C   C27       1.0  0.41254  0.75959  0.29083  1.0000
  C   C28       1.0  0.43780  0.81009  0.29029  1.0000
  C   C29       1.0  0.43498  0.83679  0.36529  1.0000
  C   C30       1.0  0.40593  0.81057  0.44119  1.0000
  C   C31       1.0  0.38085  0.76004  0.44207  1.0000
  H   H14       1.0  0.41211  0.59322  0.22445  1.0000
  H   H15       1.0  0.40531  0.67113  0.50526  1.0000
  H   H16       1.0  0.44725  0.62721  0.50528  1.0000
  H   H17       1.0  0.41528  0.74148  0.23544  1.0000
  H   H18       1.0  0.45895  0.82718  0.23459  1.0000
  H   H19       1.0  0.40192  0.82805  0.49629  1.0000
  N   N4        1.0  0.52699  0.57098  0.40940  1.0000
  C   C32       1.0  0.50368  0.59634  0.41102  1.0000
  H   H20       1.0  0.51939  0.62830  0.44543  1.0000
  N   N5        1.0  0.50692  0.96435  0.44084  1.0000
  C   C33       1.0  0.48283  0.91568  0.44391  1.0000
  H   H21       1.0  0.48232  0.89955  0.50481  1.0000
  C   C34       1.0  0.54558  0.43650  0.32180  1.0000
  H   H22       1.0  0.52988  0.40455  0.28737  1.0000
  N   N6        1.0  0.54235  0.06850  0.29196  1.0000
  C   C35       1.0  0.53829  0.50445  0.36788  1.0000
  C   C36       1.0  0.53767  0.04206  0.36854  1.0000
  C   C37       1.0  0.56642  0.11718  0.28890  1.0000
  H   H23       1.0  0.56697  0.13331  0.22798  1.0000
  C   C38       1.0  0.92367  0.45710  0.29025  1.0000
  N   N7        1.0  0.97235  0.48180  0.29269  1.0000
  H   H24       1.0  0.90737  0.44145  0.22949  1.0000
  N   N8        1.0  0.69124  0.34982  0.36605  1.0000
  C   C39       1.0  0.66597  0.37544  0.36676  1.0000
  C   C40       1.0  0.66548  0.29888  0.36601  1.0000
  C   C41       1.0  0.74218  0.37530  0.36757  1.0000
  C   C42       1.0  0.76845  0.40431  0.29239  1.0000
  C   C43       1.0  0.81895  0.42957  0.29348  1.0000
  C   C44       1.0  0.84500  0.42654  0.36944  1.0000
  C   C45       1.0  0.81812  0.39712  0.44444  1.0000
  C   C46       1.0  0.76759  0.37202  0.44368  1.0000
  C   C47       1.0  0.66385  0.39874  0.44732  1.0000
  C   C48       1.0  0.63869  0.42410  0.44794  1.0000
  C   C49       1.0  0.61509  0.42727  0.36803  1.0000
  C   C50       1.0  0.61762  0.40369  0.28751  1.0000
  C   C51       1.0  0.64253  0.37808  0.28687  1.0000
  C   C52       1.0  0.63675  0.27327  0.44196  1.0000
  C   C53       1.0  0.61149  0.22277  0.44250  1.0000
  C   C54       1.0  0.61430  0.19606  0.36750  1.0000
  C   C55       1.0  0.64335  0.22228  0.29160  1.0000
  C   C56       1.0  0.66844  0.27282  0.29072  1.0000
  H   H25       1.0  0.63718  0.43964  0.50834  1.0000
  H   H26       1.0  0.68031  0.39693  0.50620  1.0000
  H   H27       1.0  0.64396  0.36172  0.22753  1.0000
  H   H28       1.0  0.60202  0.40564  0.22752  1.0000
  H   H29       1.0  0.75080  0.40732  0.23649  1.0000
  H   H30       1.0  0.83652  0.45101  0.23838  1.0000
  H   H31       1.0  0.63401  0.29138  0.49735  1.0000
  H   H32       1.0  0.59033  0.20568  0.49821  1.0000
  H   H33       1.0  0.64736  0.20480  0.23650  1.0000
  H   H34       1.0  0.68928  0.29063  0.23513  1.0000
  H   H35       1.0  0.74930  0.35101  0.49878  1.0000
  H   H36       1.0  0.83511  0.39292  0.50017  1.0000
  C   C57       1.0  0.58230  0.52291  0.41579  1.0000
  C   C58       1.0  0.60746  0.49755  0.41594  1.0000
  C   C59       1.0  0.58972  0.45340  0.36861  1.0000
  H   H37       1.0  0.59659  0.55480  0.45042  1.0000
  H   H38       1.0  0.63962  0.51235  0.44973  1.0000
  C   C60       1.0  0.55954  0.06775  0.45016  1.0000
  C   C61       1.0  0.58470  0.11827  0.44975  1.0000
  C   C62       1.0  0.58885  0.14456  0.36867  1.0000
  H   H39       1.0  0.55764  0.05026  0.51018  1.0000
  H   H40       1.0  0.60081  0.13571  0.50952  1.0000
  C   C63       1.0  0.99902  0.50374  0.36892  1.0000
  C   C64       1.0  0.97356  0.49993  0.45090  1.0000
  C   C65       1.0  0.92303  0.47449  0.45113  1.0000
  C   C66       1.0  0.89651  0.45230  0.37031  1.0000
  H   H41       1.0  0.99125  0.51567  0.51068  1.0000
  H   H42       1.0  0.90577  0.47329  0.51105  1.0000
