data_image0
_chemical_formula_structural       C2HCHC5OC4OHC4HOC4OHC4HOC4OHC2NC2HNCHC2NC2HNCHCNC2HNCHC2NC2HNCHC2NC2HNCHC2NC2HNCHC2H3C4H4C4H4C2HC2N2HC2HC3N2HC2HC3N2HC2HC3N2HC2HC3N2HC2HC3N2H
_chemical_formula_sum              "C96 H42 O6 N24"
_cell_length_a       31.6231
_cell_length_b       31.6231
_cell_length_c       14.8672
_cell_angle_alpha    90
_cell_angle_beta     90
_cell_angle_gamma    120

_space_group_name_H-M_alt    "P 1"
_space_group_IT_number       1

loop_
  _space_group_symop_operation_xyz
  'x, y, z'

loop_
  _atom_site_type_symbol
  _atom_site_label
  _atom_site_symmetry_multiplicity
  _atom_site_fract_x
  _atom_site_fract_y
  _atom_site_fract_z
  _atom_site_occupancy
  C   C1        1.0  0.03364  0.51794  0.34035  1.0000
  C   C2        1.0  0.06186  0.57016  0.34009  1.0000
  H   H1        1.0  0.04544  0.59077  0.33965  1.0000
  C   C3        1.0  0.06185  0.49392  0.34054  1.0000
  H   H2        1.0  0.04543  0.45689  0.34060  1.0000
  C   C4        1.0  0.11350  0.59655  0.34024  1.0000
  C   C5        1.0  0.11349  0.51917  0.34049  1.0000
  C   C6        1.0  0.13917  0.57070  0.34119  1.0000
  C   C7        1.0  0.14096  0.64849  0.34016  1.0000
  C   C8        1.0  0.14094  0.49469  0.34065  1.0000
  O   O1        1.0  0.18916  0.59569  0.33940  1.0000
  C   C9        1.0  0.97976  0.49100  0.34034  1.0000
  C   C10       1.0  0.87422  0.43825  0.34116  1.0000
  C   C11       1.0  0.89989  0.41239  0.34018  1.0000
  C   C12       1.0  0.95153  0.43877  0.34007  1.0000
  O   O2        1.0  0.82423  0.41326  0.33942  1.0000
  H   H3        1.0  0.96794  0.41816  0.33963  1.0000
  C   C13       1.0  0.49322  0.51791  0.34033  1.0000
  C   C14       1.0  0.44100  0.49390  0.34045  1.0000
  C   C15       1.0  0.41460  0.51914  0.34053  1.0000
  C   C16       1.0  0.44044  0.57067  0.34136  1.0000
  H   H4        1.0  0.42039  0.45687  0.34041  1.0000
  O   O3        1.0  0.41543  0.59566  0.33971  1.0000
  C   C17       1.0  0.52017  0.49098  0.34030  1.0000
  C   C18       1.0  0.57295  0.43824  0.34116  1.0000
  C   C19       1.0  0.59879  0.48976  0.34049  1.0000
  C   C20       1.0  0.57239  0.51500  0.34051  1.0000
  O   O4        1.0  0.59796  0.41325  0.33947  1.0000
  H   H5        1.0  0.59299  0.55203  0.34060  1.0000
  C   C21       1.0  0.49321  0.97752  0.34035  1.0000
  C   C22       1.0  0.51722  0.94930  0.34023  1.0000
  C   C23       1.0  0.49197  0.89766  0.34025  1.0000
  C   C24       1.0  0.44044  0.87198  0.34109  1.0000
  H   H6        1.0  0.55424  0.96571  0.33997  1.0000
  O   O5        1.0  0.41543  0.82199  0.33924  1.0000
  C   C25       1.0  0.52016  0.03140  0.34038  1.0000
  C   C26       1.0  0.57292  0.13693  0.34140  1.0000
  C   C27       1.0  0.52140  0.11125  0.34049  1.0000
  C   C28       1.0  0.49615  0.05961  0.34035  1.0000
  O   O6        1.0  0.59792  0.18693  0.33977  1.0000
  H   H7        1.0  0.45912  0.04320  0.34013  1.0000
  C   C29       1.0  0.36265  0.49464  0.34070  1.0000
  C   C30       1.0  0.33767  0.49030  0.25923  1.0000
  N   N1        1.0  0.29219  0.48477  0.26030  1.0000
  C   C31       1.0  0.26767  0.48165  0.33742  1.0000
  C   C32       1.0  0.22298  0.48165  0.33739  1.0000
  H   H8        1.0  0.35516  0.49630  0.19874  1.0000
  N   N2        1.0  0.20161  0.48481  0.26028  1.0000
  C   C33       1.0  0.16175  0.49048  0.25927  1.0000
  H   H9        1.0  0.15010  0.49625  0.19875  1.0000
  C   C34       1.0  0.51645  0.87020  0.34014  1.0000
  C   C35       1.0  0.52075  0.84944  0.25879  1.0000
  N   N3        1.0  0.52636  0.80954  0.25992  1.0000
  C   C36       1.0  0.52946  0.78818  0.33710  1.0000
  C   C37       1.0  0.52946  0.74349  0.33720  1.0000
  H   H10       1.0  0.51489  0.86103  0.19829  1.0000
  N   N4        1.0  0.52635  0.71894  0.26012  1.0000
  C   C38       1.0  0.52079  0.67345  0.25912  1.0000
  H   H11       1.0  0.51483  0.65595  0.19867  1.0000
  C   C39       1.0  0.16157  0.67359  0.25880  1.0000
  N   N5        1.0  0.20151  0.71908  0.25993  1.0000
  C   C40       1.0  0.22296  0.74354  0.33706  1.0000
  C   C41       1.0  0.26764  0.78824  0.33708  1.0000
  H   H12       1.0  0.15006  0.65616  0.19828  1.0000
  N   N6        1.0  0.29212  0.80969  0.25996  1.0000
  C   C42       1.0  0.33763  0.84960  0.25891  1.0000
  H   H13       1.0  0.35506  0.86118  0.19839  1.0000
  C   C43       1.0  0.65073  0.51426  0.34076  1.0000
  C   C44       1.0  0.67571  0.51851  0.25933  1.0000
  N   N7        1.0  0.72125  0.52419  0.26034  1.0000
  C   C45       1.0  0.74579  0.52735  0.33746  1.0000
  C   C46       1.0  0.79049  0.52736  0.33743  1.0000
  H   H14       1.0  0.65830  0.51271  0.19880  1.0000
  N   N8        1.0  0.81185  0.52421  0.26032  1.0000
  C   C47       1.0  0.85174  0.51858  0.25928  1.0000
  H   H15       1.0  0.86326  0.51267  0.19874  1.0000
  C   C48       1.0  0.49690  0.13870  0.34068  1.0000
  C   C49       1.0  0.49258  0.15934  0.25917  1.0000
  N   N9        1.0  0.48705  0.19929  0.26013  1.0000
  C   C50       1.0  0.48392  0.22073  0.33718  1.0000
  C   C51       1.0  0.48392  0.26542  0.33705  1.0000
  H   H16       1.0  0.49858  0.14783  0.19871  1.0000
  N   N10       1.0  0.48709  0.28991  0.25986  1.0000
  C   C52       1.0  0.49275  0.33544  0.25872  1.0000
  H   H17       1.0  0.49856  0.35286  0.19819  1.0000
  C   C53       1.0  0.87241  0.36043  0.34014  1.0000
  C   C54       1.0  0.85166  0.33543  0.25876  1.0000
  N   N11       1.0  0.81176  0.28992  0.25991  1.0000
  C   C55       1.0  0.79043  0.26544  0.33710  1.0000
  C   C56       1.0  0.74574  0.22074  0.33722  1.0000
  H   H18       1.0  0.86323  0.35289  0.19826  1.0000
  N   N12       1.0  0.72117  0.19932  0.26016  1.0000
  C   C57       1.0  0.67568  0.15938  0.25919  1.0000
  H   H19       1.0  0.65816  0.14784  0.19875  1.0000
  C   C58       1.0  0.95155  0.51501  0.34053  1.0000
  C   C59       1.0  0.89991  0.48977  0.34047  1.0000
  H   H20       1.0  0.19998  0.60105  0.40248  1.0000
  H   H21       1.0  0.81343  0.40787  0.40252  1.0000
  H   H22       1.0  0.96797  0.55204  0.34062  1.0000
  C   C60       1.0  0.49196  0.59652  0.34038  1.0000
  C   C61       1.0  0.51722  0.57014  0.34020  1.0000
  C   C62       1.0  0.49617  0.43876  0.34001  1.0000
  C   C63       1.0  0.52143  0.41238  0.34013  1.0000
  H   H23       1.0  0.41005  0.60104  0.40282  1.0000
  H   H24       1.0  0.60335  0.40786  0.40257  1.0000
  H   H25       1.0  0.55425  0.59075  0.33986  1.0000
  H   H26       1.0  0.45914  0.41814  0.33957  1.0000
  C   C64       1.0  0.41459  0.89766  0.34034  1.0000
  C   C65       1.0  0.44099  0.94930  0.34034  1.0000
  C   C66       1.0  0.57238  0.05962  0.34039  1.0000
  C   C67       1.0  0.59877  0.11126  0.34050  1.0000
  H   H27       1.0  0.41003  0.81115  0.40232  1.0000
  H   H28       1.0  0.60330  0.19769  0.40289  1.0000
  H   H29       1.0  0.42038  0.96572  0.34021  1.0000
  H   H30       1.0  0.59299  0.04320  0.34023  1.0000
  C   C68       1.0  0.29031  0.48394  0.42105  1.0000
  C   C69       1.0  0.33764  0.49013  0.42222  1.0000
  H   H31       1.0  0.35574  0.49668  0.48228  1.0000
  C   C70       1.0  0.16150  0.49017  0.42211  1.0000
  C   C71       1.0  0.20263  0.48396  0.42100  1.0000
  N   N13       1.0  0.22636  0.48516  0.49798  1.0000
  N   N14       1.0  0.26777  0.48514  0.49800  1.0000
  H   H32       1.0  0.14995  0.49669  0.48219  1.0000
  C   C72       1.0  0.52711  0.80854  0.42067  1.0000
  C   C73       1.0  0.52091  0.84968  0.42171  1.0000
  H   H33       1.0  0.51437  0.86125  0.48176  1.0000
  C   C74       1.0  0.51645  0.64846  0.34060  1.0000
  C   C75       1.0  0.52094  0.67352  0.42205  1.0000
  C   C76       1.0  0.52716  0.72087  0.42085  1.0000
  N   N15       1.0  0.52591  0.74342  0.49777  1.0000
  N   N16       1.0  0.52589  0.78482  0.49769  1.0000
  H   H34       1.0  0.51437  0.65545  0.48213  1.0000
  C   C77       1.0  0.20269  0.72079  0.42066  1.0000
  C   C78       1.0  0.16159  0.67343  0.42172  1.0000
  H   H35       1.0  0.15006  0.65536  0.48181  1.0000
  C   C79       1.0  0.36264  0.87021  0.34033  1.0000
  C   C80       1.0  0.33767  0.84970  0.42190  1.0000
  C   C81       1.0  0.29036  0.80851  0.42071  1.0000
  N   N17       1.0  0.26788  0.78469  0.49766  1.0000
  N   N18       1.0  0.22648  0.74326  0.49763  1.0000
  H   H36       1.0  0.35580  0.86107  0.48196  1.0000
  C   C82       1.0  0.72312  0.52501  0.42108  1.0000
  C   C83       1.0  0.67579  0.51884  0.42225  1.0000
  H   H37       1.0  0.65769  0.51215  0.48233  1.0000
  C   C84       1.0  0.87248  0.51427  0.34066  1.0000
  C   C85       1.0  0.85197  0.51884  0.42215  1.0000
  C   C86       1.0  0.81081  0.52501  0.42104  1.0000
  N   N19       1.0  0.78705  0.52375  0.49802  1.0000
  N   N20       1.0  0.74564  0.52375  0.49803  1.0000
  H   H38       1.0  0.86338  0.51215  0.48223  1.0000
  C   C87       1.0  0.48620  0.20041  0.42085  1.0000
  C   C88       1.0  0.49239  0.15927  0.42211  1.0000
  H   H39       1.0  0.49893  0.14776  0.48221  1.0000
  C   C89       1.0  0.49695  0.36042  0.34008  1.0000
  C   C90       1.0  0.49242  0.33545  0.42167  1.0000
  C   C91       1.0  0.48621  0.28811  0.42063  1.0000
  N   N21       1.0  0.48740  0.26561  0.49765  1.0000
  N   N22       1.0  0.48739  0.22419  0.49776  1.0000
  H   H40       1.0  0.49892  0.35356  0.48172  1.0000
  C   C92       1.0  0.81081  0.28813  0.42068  1.0000
  C   C93       1.0  0.85196  0.33547  0.42174  1.0000
  H   H41       1.0  0.86355  0.35357  0.48179  1.0000
  C   C94       1.0  0.65072  0.13872  0.34068  1.0000
  C   C95       1.0  0.67580  0.15928  0.42212  1.0000
  C   C96       1.0  0.72314  0.20041  0.42089  1.0000
  N   N23       1.0  0.74572  0.22420  0.49779  1.0000
  N   N24       1.0  0.78712  0.26562  0.49770  1.0000
  H   H42       1.0  0.65774  0.14776  0.48222  1.0000
