data_image0
_chemical_formula_structural       C5H6C4H4C4HCH3NC3HCH3NC2HNC12H6C6H3C9H3C8H4C3HC6H2C3HCH3NC3HCH3NCH2C2HC3H2C4HC2H3C2HCHC3H3N
_chemical_formula_sum              "C90 H60 N6"
_cell_length_a       45.3171
_cell_length_b       45.3227
_cell_length_c       14.374
_cell_angle_alpha    90
_cell_angle_beta     90
_cell_angle_gamma    119.994

_space_group_name_H-M_alt    "P 1"
_space_group_IT_number       1

loop_
  _space_group_symop_operation_xyz
  'x, y, z'

loop_
  _atom_site_type_symbol
  _atom_site_label
  _atom_site_symmetry_multiplicity
  _atom_site_fract_x
  _atom_site_fract_y
  _atom_site_fract_z
  _atom_site_occupancy
  C   C1        1.0  0.42347  0.59091  0.35532  1.0000
  C   C2        1.0  0.46332  0.84352  0.35360  1.0000
  C   C3        1.0  0.47807  0.87914  0.36282  1.0000
  C   C4        1.0  0.21094  0.63070  0.35345  1.0000
  C   C5        1.0  0.17531  0.60982  0.36266  1.0000
  H   H1        1.0  0.43449  0.55111  0.34663  1.0000
  H   H2        1.0  0.47779  0.83390  0.32727  1.0000
  H   H3        1.0  0.50294  0.89436  0.34338  1.0000
  H   H4        1.0  0.22055  0.65477  0.32705  1.0000
  H   H5        1.0  0.16008  0.61945  0.34320  1.0000
  H   H6        1.0  0.39915  0.57624  0.33074  1.0000
  C   C6        1.0  0.44436  0.57617  0.36432  1.0000
  C   C7        1.0  0.64217  0.45269  0.37136  1.0000
  C   C8        1.0  0.60184  0.20036  0.36916  1.0000
  C   C9        1.0  0.58747  0.16464  0.37099  1.0000
  H   H7        1.0  0.63175  0.49286  0.36570  1.0000
  H   H8        1.0  0.58618  0.21029  0.35836  1.0000
  H   H9        1.0  0.56174  0.14977  0.36158  1.0000
  H   H10       1.0  0.66786  0.46844  0.36267  1.0000
  C   C10       1.0  0.62081  0.46705  0.37306  1.0000
  C   C11       1.0  0.51433  0.53958  0.37443  1.0000
  C   C12       1.0  0.51543  0.52187  0.29522  1.0000
  C   C13       1.0  0.53476  0.50514  0.29355  1.0000
  H   H11       1.0  0.50238  0.52175  0.23698  1.0000
  C   C14       1.0  0.53590  0.48769  0.20701  1.0000
  H   H12       1.0  0.52132  0.49023  0.15022  1.0000
  H   H13       1.0  0.52540  0.46057  0.22052  1.0000
  H   H14       1.0  0.56223  0.49854  0.18369  1.0000
  N   N1        1.0  0.49602  0.55532  0.36947  1.0000
  C   C15       1.0  0.51482  0.98566  0.37475  1.0000
  C   C16       1.0  0.53249  0.00446  0.29547  1.0000
  C   C17       1.0  0.54923  0.04051  0.29377  1.0000
  H   H15       1.0  0.53260  0.99151  0.23723  1.0000
  C   C18       1.0  0.56667  0.05908  0.20722  1.0000
  H   H16       1.0  0.56414  0.04196  0.15045  1.0000
  H   H17       1.0  0.59379  0.07572  0.22072  1.0000
  H   H18       1.0  0.55581  0.07455  0.18388  1.0000
  N   N2        1.0  0.49908  0.95161  0.36981  1.0000
  C   C19       1.0  0.06879  0.54005  0.37475  1.0000
  C   C20       1.0  0.04999  0.53892  0.29547  1.0000
  H   H19       1.0  0.06294  0.55195  0.23721  1.0000
  N   N3        1.0  0.10284  0.55836  0.36982  1.0000
  C   C21       1.0  0.42930  0.82151  0.38152  1.0000
  C   C22       1.0  0.43579  0.62519  0.38109  1.0000
  C   C23       1.0  0.23296  0.61872  0.38153  1.0000
  C   C24       1.0  0.47799  0.59524  0.39954  1.0000
  C   C25       1.0  0.49004  0.62965  0.42449  1.0000
  C   C26       1.0  0.46934  0.64448  0.41536  1.0000
  C   C27       1.0  0.45926  0.89364  0.40027  1.0000
  C   C28       1.0  0.42511  0.87122  0.42739  1.0000
  C   C29       1.0  0.41028  0.83571  0.41815  1.0000
  C   C30       1.0  0.16082  0.57654  0.40031  1.0000
  C   C31       1.0  0.18326  0.56483  0.42756  1.0000
  C   C32       1.0  0.21877  0.58551  0.41828  1.0000
  H   H20       1.0  0.51412  0.64437  0.45052  1.0000
  H   H21       1.0  0.47902  0.66936  0.43502  1.0000
  H   H22       1.0  0.38557  0.82046  0.43934  1.0000
  H   H23       1.0  0.41057  0.88053  0.45506  1.0000
  H   H24       1.0  0.17395  0.54101  0.45533  1.0000
  H   H25       1.0  0.23403  0.57608  0.43958  1.0000
  C   C33       1.0  0.32989  0.67055  0.37130  1.0000
  C   C34       1.0  0.34818  0.70655  0.37142  1.0000
  C   C35       1.0  0.38421  0.72459  0.37132  1.0000
  C   C36       1.0  0.40193  0.70630  0.37141  1.0000
  C   C37       1.0  0.38394  0.67028  0.37131  1.0000
  C   C38       1.0  0.34793  0.65256  0.37141  1.0000
  H   H26       1.0  0.42810  0.71931  0.37192  1.0000
  H   H27       1.0  0.33517  0.71971  0.37195  1.0000
  H   H28       1.0  0.33477  0.62640  0.37190  1.0000
  C   C39       1.0  0.26608  0.63782  0.37542  1.0000
  C   C40       1.0  0.29654  0.65392  0.37256  1.0000
  C   C41       1.0  0.41667  0.63920  0.37523  1.0000
  C   C42       1.0  0.40058  0.65356  0.37251  1.0000
  C   C43       1.0  0.40093  0.75794  0.37258  1.0000
  C   C44       1.0  0.41529  0.78839  0.37542  1.0000
  C   C45       1.0  0.12594  0.55560  0.41484  1.0000
  C   C46       1.0  0.47320  0.92853  0.41475  1.0000
  C   C47       1.0  0.49895  0.58132  0.41405  1.0000
  H   H29       1.0  0.51801  0.59297  0.45914  1.0000
  H   H30       1.0  0.46169  0.93595  0.46029  1.0000
  H   H31       1.0  0.11852  0.53668  0.46040  1.0000
  C   C48       1.0  0.63720  0.22199  0.38222  1.0000
  C   C49       1.0  0.62832  0.41721  0.38178  1.0000
  C   C50       1.0  0.58508  0.44644  0.38521  1.0000
  C   C51       1.0  0.57163  0.41087  0.39541  1.0000
  C   C52       1.0  0.59283  0.39641  0.39373  1.0000
  C   C53       1.0  0.60795  0.14952  0.38590  1.0000
  C   C54       1.0  0.64340  0.17164  0.39876  1.0000
  C   C55       1.0  0.65786  0.20729  0.39698  1.0000
  H   H32       1.0  0.54602  0.39490  0.40439  1.0000
  H   H33       1.0  0.58195  0.37057  0.40153  1.0000
  H   H34       1.0  0.68361  0.22226  0.40671  1.0000
  H   H35       1.0  0.65927  0.16201  0.40980  1.0000
  C   C56       1.0  0.68148  0.31897  0.38025  1.0000
  C   C57       1.0  0.66340  0.33690  0.38025  1.0000
  C   C58       1.0  0.68104  0.37293  0.38020  1.0000
  H   H36       1.0  0.63724  0.32364  0.38030  1.0000
  C   C59       1.0  0.64769  0.40340  0.38070  1.0000
  C   C60       1.0  0.66407  0.38932  0.38030  1.0000
  C   C61       1.0  0.66509  0.28562  0.38042  1.0000
  C   C62       1.0  0.65101  0.25516  0.38093  1.0000
  C   C63       1.0  0.59475  0.11429  0.38909  1.0000
  C   C64       1.0  0.56303  0.45963  0.38838  1.0000
  H   H37       1.0  0.53857  0.44383  0.40324  1.0000
  H   H38       1.0  0.61050  0.10562  0.40450  1.0000
  C   C65       1.0  0.55306  0.50562  0.37462  1.0000
  C   C66       1.0  0.55200  0.52307  0.45575  1.0000
  C   C67       1.0  0.53243  0.53951  0.45443  1.0000
  H   H39       1.0  0.53138  0.55169  0.51315  1.0000
  C   C68       1.0  0.57055  0.52516  0.54327  1.0000
  H   H40       1.0  0.58508  0.51198  0.53909  1.0000
  H   H41       1.0  0.55240  0.51388  0.60042  1.0000
  H   H42       1.0  0.58834  0.55182  0.55983  1.0000
  N   N4        1.0  0.57251  0.49113  0.37299  1.0000
  C   C69       1.0  0.54879  0.05834  0.37484  1.0000
  C   C70       1.0  0.53138  0.03985  0.45604  1.0000
  C   C71       1.0  0.51494  0.00385  0.45476  1.0000
  H   H43       1.0  0.50279  0.99063  0.51353  1.0000
  C   C72       1.0  0.52931  0.05631  0.54357  1.0000
  H   H44       1.0  0.54247  0.08402  0.53934  1.0000
  H   H45       1.0  0.54064  0.04948  0.60068  1.0000
  H   H46       1.0  0.50266  0.04744  0.56024  1.0000
  N   N5        1.0  0.56328  0.09227  0.37315  1.0000
  C   C73       1.0  0.05061  0.52199  0.45477  1.0000
  H   H47       1.0  0.06382  0.52307  0.51355  1.0000
  H   H48       1.0  0.84415  0.38677  0.35810  1.0000
  C   C74       1.0  0.83244  0.42606  0.38222  1.0000
  C   C75       1.0  0.84713  0.46141  0.39714  1.0000
  H   H49       1.0  0.83215  0.47218  0.40698  1.0000
  C   C76       1.0  0.73544  0.37337  0.38024  1.0000
  C   C77       1.0  0.71751  0.33736  0.38029  1.0000
  C   C78       1.0  0.71705  0.39100  0.38024  1.0000
  H   H50       1.0  0.73077  0.32445  0.38038  1.0000
  H   H51       1.0  0.72995  0.41716  0.38029  1.0000
  C   C79       1.0  0.79926  0.40670  0.38092  1.0000
  C   C80       1.0  0.76880  0.39033  0.38041  1.0000
  C   C81       1.0  0.85408  0.41235  0.36901  1.0000
  C   C82       1.0  0.88980  0.43370  0.37085  1.0000
  H   H52       1.0  0.90467  0.42286  0.36132  1.0000
  C   C83       1.0  0.01394  0.51959  0.29375  1.0000
  C   C84       1.0  0.99536  0.51844  0.20717  1.0000
  H   H53       1.0  0.01248  0.53303  0.15041  1.0000
  H   H54       1.0  0.97871  0.52891  0.22065  1.0000
  H   H55       1.0  0.97990  0.49211  0.18385  1.0000
  C   C85       1.0  0.90491  0.46929  0.38590  1.0000
  C   C86       1.0  0.88277  0.48259  0.39892  1.0000
  H   H56       1.0  0.89241  0.50810  0.41006  1.0000
  C   C87       1.0  0.94015  0.49133  0.38909  1.0000
  H   H57       1.0  0.94881  0.51574  0.40453  1.0000
  C   C88       1.0  0.99610  0.50133  0.37483  1.0000
  C   C89       1.0  0.01460  0.50242  0.45604  1.0000
  C   C90       1.0  0.99813  0.48390  0.54358  1.0000
  H   H58       1.0  0.97042  0.46934  0.53934  1.0000
  H   H59       1.0  0.00496  0.50206  0.60066  1.0000
  H   H60       1.0  0.00701  0.46614  0.56028  1.0000
  N   N6        1.0  0.96218  0.48188  0.37313  1.0000
