data_image0
_chemical_formula_structural       C5H6C6H6C6H6C6H6C5H3CH3NC4H3CH3NC4H3CH3NC4H3CH3NC4H3CH3NC4H3CH3NC12H6C6H3C9H3C12H6C6H3C9H3C12H6C6H3C9H3C12H6C6H3C9H3C4H3CH3NC4H3CH3NC4H3CH3NC4H3CH3NC4H3CH3NC4H3CH3N
_chemical_formula_sum              "C192 H144 N12"
_cell_length_a       70.9388
_cell_length_b       70.9418
_cell_length_c       14.779
_cell_angle_alpha    90
_cell_angle_beta     90
_cell_angle_gamma    119.998

_space_group_name_H-M_alt    "P 1"
_space_group_IT_number       1

loop_
  _space_group_symop_operation_xyz
  'x, y, z'

loop_
  _atom_site_type_symbol
  _atom_site_label
  _atom_site_symmetry_multiplicity
  _atom_site_fract_x
  _atom_site_fract_y
  _atom_site_fract_z
  _atom_site_occupancy
  C   C1        1.0  0.96646  0.06635  0.33635  1.0000
  C   C2        1.0  0.94050  0.90379  0.33450  1.0000
  C   C3        1.0  0.93111  0.88088  0.33697  1.0000
  C   C4        1.0  0.10297  0.04040  0.33436  1.0000
  C   C5        1.0  0.12588  0.05393  0.33684  1.0000
  H   H1        1.0  0.95984  0.09207  0.32696  1.0000
  H   H2        1.0  0.93075  0.91019  0.31941  1.0000
  H   H3        1.0  0.91485  0.87145  0.32353  1.0000
  H   H4        1.0  0.09657  0.02426  0.31914  1.0000
  H   H5        1.0  0.13531  0.04711  0.32328  1.0000
  H   H6        1.0  0.98269  0.07618  0.32303  1.0000
  C   C6        1.0  0.95292  0.07573  0.33868  1.0000
  C   C7        1.0  0.50514  0.30778  0.34268  1.0000
  C   C8        1.0  0.33307  0.18114  0.34408  1.0000
  C   C9        1.0  0.31016  0.16757  0.34333  1.0000
  C   C10       1.0  0.48879  0.17263  0.33333  1.0000
  C   C11       1.0  0.50850  0.17224  0.33513  1.0000
  H   H7        1.0  0.53744  0.33329  0.33385  1.0000
  H   H8        1.0  0.33951  0.19759  0.33722  1.0000
  H   H9        1.0  0.30076  0.17465  0.33554  1.0000
  H   H10       1.0  0.47493  0.15912  0.31148  1.0000
  H   H11       1.0  0.50830  0.15838  0.31441  1.0000
  H   H12       1.0  0.50940  0.29602  0.33578  1.0000
  C   C12       1.0  0.52170  0.32982  0.34177  1.0000
  C   C13       1.0  0.69901  0.20108  0.34267  1.0000
  C   C14       1.0  0.82564  0.15565  0.34417  1.0000
  C   C15       1.0  0.83921  0.14630  0.34341  1.0000
  C   C16       1.0  0.83416  0.31988  0.33328  1.0000
  C   C17       1.0  0.83455  0.33998  0.33512  1.0000
  H   H13       1.0  0.67350  0.20787  0.33386  1.0000
  H   H14       1.0  0.80919  0.14564  0.33744  1.0000
  H   H15       1.0  0.83212  0.12982  0.33576  1.0000
  H   H16       1.0  0.84767  0.31953  0.31139  1.0000
  H   H17       1.0  0.84840  0.35363  0.31432  1.0000
  H   H18       1.0  0.71076  0.21710  0.33578  1.0000
  C   C18       1.0  0.67697  0.19561  0.34175  1.0000
  C   C19       1.0  0.80570  0.50164  0.34266  1.0000
  C   C20       1.0  0.85113  0.67370  0.34417  1.0000
  C   C21       1.0  0.86047  0.69661  0.34342  1.0000
  C   C22       1.0  0.68689  0.51799  0.33348  1.0000
  C   C23       1.0  0.66679  0.49828  0.33527  1.0000
  H   H19       1.0  0.79891  0.46933  0.33385  1.0000
  H   H20       1.0  0.86114  0.66725  0.33741  1.0000
  H   H21       1.0  0.87696  0.70601  0.33573  1.0000
  H   H22       1.0  0.68724  0.53186  0.31172  1.0000
  H   H23       1.0  0.65313  0.49849  0.31465  1.0000
  H   H24       1.0  0.78968  0.49738  0.33577  1.0000
  C   C24       1.0  0.81117  0.48507  0.34175  1.0000
  C   C25       1.0  0.19483  0.09758  0.34917  1.0000
  C   C26       1.0  0.20658  0.10753  0.26819  1.0000
  C   C27       1.0  0.22983  0.12078  0.27070  1.0000
  C   C28       1.0  0.24320  0.13206  0.18856  1.0000
  H   H25       1.0  0.23395  0.13003  0.12712  1.0000
  H   H26       1.0  0.25427  0.12594  0.17414  1.0000
  H   H27       1.0  0.25280  0.14954  0.20126  1.0000
  C   C29       1.0  0.19465  0.10400  0.18051  1.0000
  H   H28       1.0  0.17712  0.09318  0.18481  1.0000
  H   H29       1.0  0.20063  0.09678  0.13114  1.0000
  H   H30       1.0  0.19726  0.11954  0.15478  1.0000
  N   N1        1.0  0.17293  0.08489  0.34682  1.0000
  C   C30       1.0  0.90919  0.10094  0.34912  1.0000
  C   C31       1.0  0.89928  0.10280  0.26808  1.0000
  C   C32       1.0  0.88603  0.11279  0.27061  1.0000
  C   C33       1.0  0.87478  0.11491  0.18843  1.0000
  H   H31       1.0  0.87682  0.10771  0.12698  1.0000
  H   H32       1.0  0.88091  0.13211  0.17409  1.0000
  H   H33       1.0  0.85730  0.10704  0.20104  1.0000
  C   C34       1.0  0.90287  0.09446  0.18037  1.0000
  H   H34       1.0  0.91372  0.08777  0.18465  1.0000
  H   H35       1.0  0.91010  0.10769  0.13113  1.0000
  H   H36       1.0  0.88735  0.08153  0.15446  1.0000
  N   N2        1.0  0.92188  0.09174  0.34681  1.0000
  C   C35       1.0  0.90582  0.81193  0.34917  1.0000
  C   C36       1.0  0.90401  0.80018  0.26817  1.0000
  C   C37       1.0  0.89401  0.77693  0.27069  1.0000
  C   C38       1.0  0.89191  0.76357  0.18853  1.0000
  H   H37       1.0  0.89913  0.77281  0.12709  1.0000
  H   H38       1.0  0.87472  0.75249  0.17413  1.0000
  H   H39       1.0  0.89979  0.75397  0.20121  1.0000
  C   C39       1.0  0.91240  0.81211  0.18051  1.0000
  H   H40       1.0  0.91912  0.82965  0.18480  1.0000
  H   H41       1.0  0.89921  0.80614  0.13115  1.0000
  H   H42       1.0  0.92534  0.80950  0.15474  1.0000
  N   N3        1.0  0.91502  0.83383  0.34683  1.0000
  C   C40       1.0  0.61090  0.17795  0.34986  1.0000
  C   C41       1.0  0.60192  0.17988  0.26653  1.0000
  C   C42       1.0  0.58086  0.17790  0.26587  1.0000
  C   C43       1.0  0.61445  0.18418  0.17983  1.0000
  H   H43       1.0  0.63043  0.18572  0.18728  1.0000
  H   H44       1.0  0.61707  0.19934  0.14972  1.0000
  H   H45       1.0  0.60537  0.17088  0.13234  1.0000
  C   C44       1.0  0.57115  0.17970  0.17827  1.0000
  H   H46       1.0  0.55480  0.17730  0.18436  1.0000
  H   H47       1.0  0.57003  0.16741  0.13074  1.0000
  H   H48       1.0  0.58134  0.19580  0.14893  1.0000
  N   N4        1.0  0.63135  0.18160  0.35171  1.0000
  C   C45       1.0  0.82884  0.43667  0.34988  1.0000
  C   C46       1.0  0.82690  0.42575  0.26655  1.0000
  C   C47       1.0  0.82888  0.40667  0.26589  1.0000
  C   C48       1.0  0.82260  0.43398  0.17986  1.0000
  H   H49       1.0  0.82105  0.44842  0.18731  1.0000
  H   H50       1.0  0.80743  0.42144  0.14975  1.0000
  H   H51       1.0  0.83589  0.43820  0.13236  1.0000
  C   C49       1.0  0.82708  0.39517  0.17829  1.0000
  H   H52       1.0  0.82948  0.38121  0.18438  1.0000
  H   H53       1.0  0.83937  0.40633  0.13075  1.0000
  H   H54       1.0  0.81097  0.38925  0.14896  1.0000
  N   N5        1.0  0.82518  0.45346  0.35174  1.0000
  C   C50       1.0  0.57011  0.39588  0.34986  1.0000
  C   C51       1.0  0.58102  0.40486  0.26653  1.0000
  C   C52       1.0  0.60010  0.42592  0.26586  1.0000
  C   C53       1.0  0.57279  0.39233  0.17983  1.0000
  H   H55       1.0  0.55835  0.37635  0.18729  1.0000
  H   H56       1.0  0.58533  0.38970  0.14971  1.0000
  H   H57       1.0  0.56857  0.40141  0.13234  1.0000
  C   C54       1.0  0.61160  0.43562  0.17825  1.0000
  H   H58       1.0  0.62556  0.45198  0.18434  1.0000
  H   H59       1.0  0.60044  0.43675  0.13073  1.0000
  H   H60       1.0  0.61752  0.42543  0.14892  1.0000
  N   N6        1.0  0.55331  0.37543  0.35172  1.0000
  C   C55       1.0  0.96291  0.91771  0.35241  1.0000
  C   C56       1.0  0.95786  0.04384  0.35207  1.0000
  C   C57       1.0  0.08904  0.04888  0.35243  1.0000
  C   C58       1.0  0.93029  0.06302  0.35677  1.0000
  C   C59       1.0  0.92193  0.04046  0.37238  1.0000
  C   C60       1.0  0.93536  0.03104  0.37013  1.0000
  C   C61       1.0  0.94372  0.87097  0.35739  1.0000
  C   C62       1.0  0.96617  0.88516  0.37522  1.0000
  C   C63       1.0  0.97559  0.90801  0.37284  1.0000
  C   C64       1.0  0.13579  0.07644  0.35743  1.0000
  C   C65       1.0  0.12160  0.08469  0.37541  1.0000
  C   C66       1.0  0.09875  0.07126  0.37303  1.0000
  H   H61       1.0  0.90572  0.03048  0.38580  1.0000
  H   H62       1.0  0.92843  0.01468  0.38191  1.0000
  H   H63       1.0  0.99188  0.91745  0.38625  1.0000
  H   H64       1.0  0.97608  0.87894  0.39036  1.0000
  H   H65       1.0  0.12781  0.10080  0.39068  1.0000
  H   H66       1.0  0.08930  0.07810  0.38656  1.0000
  C   C67       1.0  0.02650  0.01522  0.34912  1.0000
  C   C68       1.0  0.01487  0.99214  0.34916  1.0000
  C   C69       1.0  0.99179  0.98025  0.34913  1.0000
  C   C70       1.0  0.98035  0.99189  0.34913  1.0000
  C   C71       1.0  0.99153  0.01497  0.34910  1.0000
  C   C72       1.0  0.01461  0.02641  0.34913  1.0000
  H   H67       1.0  0.96364  0.98343  0.34927  1.0000
  H   H68       1.0  0.02332  0.98389  0.34933  1.0000
  H   H69       1.0  0.02286  0.04311  0.34927  1.0000
  C   C73       1.0  0.06760  0.03655  0.35042  1.0000
  C   C74       1.0  0.04805  0.02616  0.34952  1.0000
  C   C75       1.0  0.97020  0.03472  0.35026  1.0000
  C   C76       1.0  0.98060  0.02557  0.34945  1.0000
  C   C77       1.0  0.98118  0.95871  0.34952  1.0000
  C   C78       1.0  0.97203  0.93916  0.35042  1.0000
  C   C79       1.0  0.15847  0.09058  0.36063  1.0000
  C   C80       1.0  0.93517  0.84828  0.36059  1.0000
  C   C81       1.0  0.91616  0.07157  0.35996  1.0000
  H   H70       1.0  0.90051  0.06135  0.37352  1.0000
  H   H71       1.0  0.94537  0.84286  0.37475  1.0000
  H   H72       1.0  0.16389  0.10619  0.37485  1.0000
  C   C82       1.0  0.34691  0.17224  0.35339  1.0000
  C   C83       1.0  0.48308  0.30205  0.35237  1.0000
  C   C84       1.0  0.48828  0.19148  0.36017  1.0000
  C   C85       1.0  0.51678  0.34681  0.35055  1.0000
  C   C86       1.0  0.49459  0.34079  0.36053  1.0000
  C   C87       1.0  0.47797  0.31878  0.36155  1.0000
  C   C88       1.0  0.30023  0.14463  0.35169  1.0000
  C   C89       1.0  0.31434  0.13597  0.36131  1.0000
  C   C90       1.0  0.33718  0.14943  0.36227  1.0000
  C   C91       1.0  0.52825  0.19064  0.36345  1.0000
  C   C92       1.0  0.52743  0.20939  0.39041  1.0000
  C   C93       1.0  0.50783  0.20986  0.38880  1.0000
  H   H73       1.0  0.49022  0.35247  0.36706  1.0000
  H   H74       1.0  0.46215  0.31518  0.36873  1.0000
  H   H75       1.0  0.34660  0.14231  0.36902  1.0000
  H   H76       1.0  0.30808  0.11953  0.36750  1.0000
  H   H77       1.0  0.54124  0.22313  0.41111  1.0000
  H   H78       1.0  0.50812  0.22388  0.40809  1.0000
  C   C94       1.0  0.44444  0.20672  0.35338  1.0000
  C   C95       1.0  0.42139  0.19498  0.35337  1.0000
  C   C96       1.0  0.40935  0.20604  0.35298  1.0000
  C   C97       1.0  0.42076  0.22912  0.35270  1.0000
  C   C98       1.0  0.44381  0.24104  0.35283  1.0000
  C   C99       1.0  0.45543  0.22970  0.35314  1.0000
  H   H79       1.0  0.41228  0.23734  0.35252  1.0000
  H   H80       1.0  0.41337  0.17829  0.35377  1.0000
  H   H81       1.0  0.47218  0.23832  0.35337  1.0000
  C   C100      1.0  0.47046  0.19272  0.35651  1.0000
  C   C101      1.0  0.45635  0.19732  0.35446  1.0000
  C   C102      1.0  0.46774  0.28153  0.35273  1.0000
  C   C103      1.0  0.45503  0.26238  0.35281  1.0000
  C   C104      1.0  0.38786  0.19500  0.35306  1.0000
  C   C105      1.0  0.36832  0.18457  0.35321  1.0000
  C   C106      1.0  0.54825  0.19122  0.36405  1.0000
  C   C107      1.0  0.27759  0.13043  0.34885  1.0000
  C   C108      1.0  0.53279  0.36882  0.34820  1.0000
  H   H82       1.0  0.52819  0.37995  0.34367  1.0000
  H   H83       1.0  0.27221  0.11456  0.34236  1.0000
  H   H84       1.0  0.56163  0.20540  0.37689  1.0000
  C   C109      1.0  0.83455  0.17839  0.35333  1.0000
  C   C110      1.0  0.70474  0.18476  0.35235  1.0000
  C   C111      1.0  0.81531  0.30052  0.36017  1.0000
  C   C112      1.0  0.65998  0.17370  0.35053  1.0000
  C   C113      1.0  0.66599  0.15752  0.36051  1.0000
  C   C114      1.0  0.68800  0.16291  0.36152  1.0000
  C   C115      1.0  0.86216  0.15932  0.35160  1.0000
  C   C116      1.0  0.87082  0.18209  0.36109  1.0000
  C   C117      1.0  0.85736  0.19147  0.36206  1.0000
  C   C118      1.0  0.81615  0.34133  0.36346  1.0000
  C   C119      1.0  0.79740  0.32176  0.39048  1.0000
  C   C120      1.0  0.79694  0.30169  0.38886  1.0000
  H   H85       1.0  0.65432  0.14148  0.36703  1.0000
  H   H86       1.0  0.69161  0.15069  0.36869  1.0000
  H   H87       1.0  0.86449  0.20802  0.36871  1.0000
  H   H88       1.0  0.88727  0.19227  0.36719  1.0000
  H   H89       1.0  0.78366  0.32183  0.41118  1.0000
  H   H90       1.0  0.78292  0.28796  0.40817  1.0000
  C   C121      1.0  0.80007  0.24144  0.35339  1.0000
  C   C122      1.0  0.81181  0.23013  0.35335  1.0000
  C   C123      1.0  0.80076  0.20704  0.35295  1.0000
  C   C124      1.0  0.77766  0.19536  0.35268  1.0000
  C   C125      1.0  0.76575  0.20649  0.35281  1.0000
  C   C126      1.0  0.77709  0.22946  0.35314  1.0000
  H   H91       1.0  0.76945  0.17867  0.35249  1.0000
  H   H92       1.0  0.82850  0.23880  0.35375  1.0000
  H   H93       1.0  0.76847  0.23758  0.35336  1.0000
  C   C127      1.0  0.81407  0.28146  0.35651  1.0000
  C   C128      1.0  0.80947  0.26275  0.35446  1.0000
  C   C129      1.0  0.72525  0.18993  0.35271  1.0000
  C   C130      1.0  0.74441  0.19638  0.35279  1.0000
  C   C131      1.0  0.81180  0.19659  0.35303  1.0000
  C   C132      1.0  0.82222  0.18748  0.35316  1.0000
  C   C133      1.0  0.81556  0.36074  0.36405  1.0000
  C   C134      1.0  0.87635  0.15087  0.34881  1.0000
  C   C135      1.0  0.63796  0.16769  0.34820  1.0000
  H   H94       1.0  0.62683  0.15196  0.34366  1.0000
  H   H95       1.0  0.89222  0.16136  0.34236  1.0000
  H   H96       1.0  0.80138  0.35994  0.37689  1.0000
  C   C136      1.0  0.82839  0.65986  0.35337  1.0000
  C   C137      1.0  0.82202  0.52368  0.35237  1.0000
  C   C138      1.0  0.70625  0.51849  0.36015  1.0000
  C   C139      1.0  0.83308  0.48999  0.35057  1.0000
  C   C140      1.0  0.84926  0.51218  0.36053  1.0000
  C   C141      1.0  0.84387  0.52880  0.36155  1.0000
  C   C142      1.0  0.84746  0.70654  0.35166  1.0000
  C   C143      1.0  0.82468  0.69243  0.36119  1.0000
  C   C144      1.0  0.81530  0.66959  0.36214  1.0000
  C   C145      1.0  0.66545  0.47852  0.36340  1.0000
  C   C146      1.0  0.68503  0.47933  0.39022  1.0000
  C   C147      1.0  0.70509  0.49893  0.38863  1.0000
  H   H97       1.0  0.86531  0.51654  0.36708  1.0000
  H   H98       1.0  0.85609  0.54462  0.36873  1.0000
  H   H99       1.0  0.79876  0.66017  0.36884  1.0000
  H   H100      1.0  0.81450  0.69870  0.36731  1.0000
  H   H101      1.0  0.68496  0.46552  0.41080  1.0000
  H   H102      1.0  0.71883  0.49864  0.40780  1.0000
  C   C148      1.0  0.76534  0.56233  0.35340  1.0000
  C   C149      1.0  0.77664  0.58538  0.35338  1.0000
  C   C150      1.0  0.79974  0.59742  0.35298  1.0000
  C   C151      1.0  0.81142  0.58601  0.35271  1.0000
  C   C152      1.0  0.80029  0.56297  0.35283  1.0000
  C   C153      1.0  0.77732  0.55134  0.35316  1.0000
  H   H103      1.0  0.82811  0.59449  0.35252  1.0000
  H   H104      1.0  0.76797  0.59340  0.35378  1.0000
  H   H105      1.0  0.76919  0.53459  0.35337  1.0000
  C   C154      1.0  0.72532  0.53632  0.35651  1.0000
  C   C155      1.0  0.74403  0.55042  0.35447  1.0000
  C   C156      1.0  0.81684  0.53902  0.35273  1.0000
  C   C157      1.0  0.81041  0.55174  0.35281  1.0000
  C   C158      1.0  0.81019  0.61891  0.35306  1.0000
  C   C159      1.0  0.81930  0.63845  0.35320  1.0000
  C   C160      1.0  0.64603  0.45853  0.36401  1.0000
  C   C161      1.0  0.85590  0.72918  0.34886  1.0000
  C   C162      1.0  0.83909  0.47398  0.34821  1.0000
  H   H106      1.0  0.85482  0.47858  0.34366  1.0000
  H   H107      1.0  0.84541  0.73456  0.34239  1.0000
  H   H108      1.0  0.64683  0.44514  0.37685  1.0000
  C   C163      1.0  0.24122  0.12361  0.35365  1.0000
  C   C164      1.0  0.22948  0.11379  0.43467  1.0000
  C   C165      1.0  0.20626  0.10038  0.43203  1.0000
  C   C166      1.0  0.24135  0.11751  0.52279  1.0000
  H   H109      1.0  0.25882  0.12863  0.51872  1.0000
  H   H110      1.0  0.23904  0.10211  0.54882  1.0000
  H   H111      1.0  0.23512  0.12449  0.57212  1.0000
  C   C167      1.0  0.19408  0.08931  0.51678  1.0000
  H   H112      1.0  0.17661  0.07882  0.50772  1.0000
  H   H113      1.0  0.19632  0.10145  0.56739  1.0000
  H   H114      1.0  0.20012  0.07901  0.54383  1.0000
  N   N7        1.0  0.26314  0.13637  0.35516  1.0000
  C   C168      1.0  0.88317  0.12132  0.35358  1.0000
  C   C169      1.0  0.89294  0.11935  0.43464  1.0000
  C   C170      1.0  0.90634  0.10953  0.43203  1.0000
  C   C171      1.0  0.88919  0.12747  0.52278  1.0000
  H   H115      1.0  0.87810  0.13385  0.51868  1.0000
  H   H116      1.0  0.90459  0.14053  0.54898  1.0000
  H   H117      1.0  0.88218  0.11425  0.57200  1.0000
  C   C172      1.0  0.91736  0.10836  0.51684  1.0000
  H   H118      1.0  0.92782  0.10135  0.50781  1.0000
  H   H119      1.0  0.90518  0.09845  0.56732  1.0000
  H   H120      1.0  0.92766  0.12468  0.54404  1.0000
  N   N8        1.0  0.87041  0.13048  0.35509  1.0000
  C   C173      1.0  0.88545  0.76554  0.35363  1.0000
  C   C174      1.0  0.88739  0.77728  0.43466  1.0000
  C   C175      1.0  0.89719  0.80050  0.43204  1.0000
  C   C176      1.0  0.87925  0.76541  0.52279  1.0000
  H   H121      1.0  0.87289  0.74794  0.51871  1.0000
  H   H122      1.0  0.86615  0.76773  0.54885  1.0000
  H   H123      1.0  0.89245  0.77164  0.57210  1.0000
  C   C177      1.0  0.89831  0.81268  0.51680  1.0000
  H   H124      1.0  0.90529  0.83015  0.50774  1.0000
  H   H125      1.0  0.90821  0.81044  0.56739  1.0000
  H   H126      1.0  0.88197  0.80664  0.54387  1.0000
  N   N9        1.0  0.87629  0.74362  0.35513  1.0000
  C   C178      1.0  0.56933  0.17444  0.34878  1.0000
  C   C179      1.0  0.57795  0.17166  0.43163  1.0000
  C   C180      1.0  0.59913  0.17394  0.43249  1.0000
  C   C181      1.0  0.60983  0.17243  0.51770  1.0000
  H   H127      1.0  0.60067  0.17036  0.57947  1.0000
  H   H128      1.0  0.62552  0.18727  0.52637  1.0000
  H   H129      1.0  0.61253  0.15861  0.51313  1.0000
  C   C182      1.0  0.56486  0.16637  0.51701  1.0000
  H   H130      1.0  0.54846  0.16368  0.50801  1.0000
  H   H131      1.0  0.57311  0.17967  0.56537  1.0000
  H   H132      1.0  0.56302  0.15143  0.54639  1.0000
  N   N10       1.0  0.55048  0.17453  0.34900  1.0000
  C   C183      1.0  0.83235  0.39860  0.34879  1.0000
  C   C184      1.0  0.83512  0.41000  0.43164  1.0000
  C   C185      1.0  0.83285  0.42891  0.43251  1.0000
  C   C186      1.0  0.83436  0.44111  0.51772  1.0000
  H   H133      1.0  0.83643  0.43402  0.57948  1.0000
  H   H134      1.0  0.81951  0.44196  0.52640  1.0000
  H   H135      1.0  0.84818  0.45763  0.51314  1.0000
  C   C187      1.0  0.84042  0.40221  0.51703  1.0000
  H   H136      1.0  0.84311  0.38850  0.50802  1.0000
  H   H137      1.0  0.82712  0.39715  0.56539  1.0000
  H   H138      1.0  0.85537  0.41531  0.54639  1.0000
  N   N11       1.0  0.83225  0.37966  0.34902  1.0000
  C   C188      1.0  0.60817  0.43745  0.34877  1.0000
  C   C189      1.0  0.59678  0.42883  0.43161  1.0000
  C   C190      1.0  0.57786  0.40765  0.43249  1.0000
  C   C191      1.0  0.56566  0.39696  0.51770  1.0000
  H   H139      1.0  0.57275  0.40611  0.57946  1.0000
  H   H140      1.0  0.56482  0.38127  0.52637  1.0000
  H   H141      1.0  0.54914  0.39426  0.51313  1.0000
  C   C192      1.0  0.60457  0.44192  0.51700  1.0000
  H   H142      1.0  0.61828  0.45832  0.50799  1.0000
  H   H143      1.0  0.60963  0.43367  0.56536  1.0000
  H   H144      1.0  0.59146  0.44376  0.54637  1.0000
  N   N12       1.0  0.62712  0.45630  0.34898  1.0000
