data_image0
_chemical_formula_structural       C2H2C2H2C2H2C2H2C2H2C2H2C4HNO2C4HNO2C4HNO2C4HNO2C4HNO2C4HNO2C4HNO2C4HNO2C4HNO2C4HNO2C4HNO2C4HNO2C6H3C6H3C6H3C6H3C6H3C6H3C6H3C6H3C6H3C6H3C6H3C6H3C4HNO2C4HNO2C4HNO2C4HNO2C4HNO2C4HNO2C2H2C2H2C2H2C2H2C2H2C2H2C2H2C2H2C2H2C2H2C2H2C2H2
_chemical_formula_sum              "C180 H90 N18 O36"
_cell_length_a       37.6139
_cell_length_b       37.614
_cell_length_c       14.8391
_cell_angle_alpha    90
_cell_angle_beta     90
_cell_angle_gamma    120

_space_group_name_H-M_alt    "P 1"
_space_group_IT_number       1

loop_
  _space_group_symop_operation_xyz
  'x, y, z'

loop_
  _atom_site_type_symbol
  _atom_site_label
  _atom_site_symmetry_multiplicity
  _atom_site_fract_x
  _atom_site_fract_y
  _atom_site_fract_z
  _atom_site_occupancy
  C   C1        1.0  0.16915  0.37433  0.30270  1.0000
  C   C2        1.0  0.19008  0.41752  0.30064  1.0000
  H   H1        1.0  0.14638  0.35873  0.25631  1.0000
  H   H2        1.0  0.18188  0.43160  0.25254  1.0000
  C   C3        1.0  0.63053  0.78857  0.30288  1.0000
  C   C4        1.0  0.58734  0.76627  0.30071  1.0000
  H   H3        1.0  0.64615  0.78130  0.25677  1.0000
  H   H4        1.0  0.57332  0.74386  0.25283  1.0000
  C   C5        1.0  0.21618  0.83590  0.30323  1.0000
  C   C6        1.0  0.23847  0.81500  0.30114  1.0000
  H   H5        1.0  0.22345  0.85878  0.25707  1.0000
  H   H6        1.0  0.26086  0.82334  0.25323  1.0000
  C   C7        1.0  0.84158  0.62489  0.30315  1.0000
  C   C8        1.0  0.82068  0.58170  0.30098  1.0000
  H   H7        1.0  0.86449  0.64051  0.25707  1.0000
  H   H8        1.0  0.82909  0.56768  0.25314  1.0000
  C   C9        1.0  0.37998  0.21041  0.30276  1.0000
  C   C10       1.0  0.42317  0.23268  0.30070  1.0000
  H   H9        1.0  0.36438  0.21755  0.25629  1.0000
  H   H10       1.0  0.43724  0.25493  0.25251  1.0000
  C   C11       1.0  0.79433  0.16348  0.30287  1.0000
  C   C12       1.0  0.77206  0.18440  0.30086  1.0000
  H   H11       1.0  0.78715  0.14071  0.25645  1.0000
  H   H12       1.0  0.74975  0.17616  0.25281  1.0000
  C   C13       1.0  0.22568  0.17740  0.35955  1.0000
  C   C14       1.0  0.19361  0.16706  0.29683  1.0000
  C   C15       1.0  0.17116  0.18817  0.29346  1.0000
  C   C16       1.0  0.18030  0.22058  0.35535  1.0000
  H   H13       1.0  0.18690  0.14429  0.25075  1.0000
  N   N1        1.0  0.14072  0.17816  0.22650  1.0000
  O   O1        1.0  0.15567  0.18414  0.14853  1.0000
  O   O2        1.0  0.11244  0.14140  0.23270  1.0000
  C   C17       1.0  0.82746  0.04229  0.35931  1.0000
  C   C18       1.0  0.83781  0.02056  0.29662  1.0000
  C   C19       1.0  0.81670  0.97699  0.29326  1.0000
  C   C20       1.0  0.78425  0.95373  0.35507  1.0000
  H   H14       1.0  0.86062  0.03661  0.25063  1.0000
  N   N2        1.0  0.82675  0.95656  0.22640  1.0000
  O   O3        1.0  0.82082  0.96553  0.14838  1.0000
  O   O4        1.0  0.86350  0.96503  0.23274  1.0000
  C   C21       1.0  0.96254  0.77921  0.35971  1.0000
  C   C22       1.0  0.98429  0.81129  0.29703  1.0000
  C   C23       1.0  0.02785  0.83375  0.29367  1.0000
  C   C24       1.0  0.05111  0.82458  0.35554  1.0000
  H   H15       1.0  0.96823  0.81802  0.25096  1.0000
  N   N3        1.0  0.04828  0.86420  0.22677  1.0000
  O   O5        1.0  0.03932  0.84928  0.14878  1.0000
  O   O6        1.0  0.03981  0.89248  0.23303  1.0000
  C   C25       1.0  0.78481  0.82187  0.35949  1.0000
  C   C26       1.0  0.81688  0.83220  0.29678  1.0000
  C   C27       1.0  0.83933  0.81108  0.29342  1.0000
  C   C28       1.0  0.83013  0.77863  0.35523  1.0000
  H   H16       1.0  0.82364  0.85501  0.25078  1.0000
  N   N4        1.0  0.86979  0.82112  0.22655  1.0000
  O   O7        1.0  0.85490  0.81519  0.14853  1.0000
  O   O8        1.0  0.89808  0.85786  0.23286  1.0000
  C   C29       1.0  0.18298  0.95698  0.35988  1.0000
  C   C30       1.0  0.17269  0.97872  0.29710  1.0000
  C   C31       1.0  0.19383  0.02229  0.29369  1.0000
  C   C32       1.0  0.22623  0.04555  0.35561  1.0000
  H   H17       1.0  0.14992  0.96267  0.25098  1.0000
  N   N5        1.0  0.18386  0.04272  0.22667  1.0000
  O   O9        1.0  0.18986  0.03373  0.14872  1.0000
  O   O10       1.0  0.14711  0.03427  0.23277  1.0000
  C   C33       1.0  0.04789  0.22004  0.35942  1.0000
  C   C34       1.0  0.02615  0.18799  0.29667  1.0000
  C   C35       1.0  0.98259  0.16554  0.29330  1.0000
  C   C36       1.0  0.95933  0.17470  0.35519  1.0000
  H   H18       1.0  0.04221  0.18125  0.25063  1.0000
  N   N6        1.0  0.96216  0.13511  0.22636  1.0000
  O   O11       1.0  0.97113  0.15005  0.14839  1.0000
  O   O12       1.0  0.97062  0.10682  0.23257  1.0000
  C   C37       1.0  0.22764  0.65050  0.30887  1.0000
  C   C38       1.0  0.23579  0.63555  0.22862  1.0000
  C   C39       1.0  0.23653  0.59841  0.22649  1.0000
  C   C40       1.0  0.22739  0.57414  0.30582  1.0000
  H   H19       1.0  0.24665  0.65444  0.17348  1.0000
  N   N7        1.0  0.24879  0.58628  0.14723  1.0000
  O   O13       1.0  0.28430  0.61269  0.12212  1.0000
  O   O14       1.0  0.22427  0.57997  0.08367  1.0000
  C   C41       1.0  0.35438  0.57107  0.30784  1.0000
  C   C42       1.0  0.36916  0.59405  0.22749  1.0000
  C   C43       1.0  0.40637  0.63185  0.22504  1.0000
  C   C44       1.0  0.43071  0.64705  0.30425  1.0000
  H   H20       1.0  0.35024  0.58589  0.17238  1.0000
  N   N8        1.0  0.41846  0.65617  0.14568  1.0000
  O   O15       1.0  0.39206  0.66531  0.12062  1.0000
  O   O16       1.0  0.42466  0.63787  0.08216  1.0000
  C   C45       1.0  0.43361  0.77702  0.30730  1.0000
  C   C46       1.0  0.41031  0.76875  0.22733  1.0000
  C   C47       1.0  0.37249  0.76813  0.22555  1.0000
  C   C48       1.0  0.35765  0.77750  0.30503  1.0000
  H   H21       1.0  0.41815  0.75774  0.17215  1.0000
  N   N9        1.0  0.34790  0.75577  0.14659  1.0000
  O   O17       1.0  0.33864  0.72018  0.12173  1.0000
  O   O18       1.0  0.36599  0.78014  0.08274  1.0000
  C   C49       1.0  0.78275  0.34867  0.30782  1.0000
  C   C50       1.0  0.77459  0.36354  0.22752  1.0000
  C   C51       1.0  0.77409  0.40079  0.22509  1.0000
  C   C52       1.0  0.78325  0.42508  0.30435  1.0000
  H   H22       1.0  0.76382  0.34464  0.17238  1.0000
  N   N10       1.0  0.76188  0.41294  0.14578  1.0000
  O   O19       1.0  0.72634  0.38659  0.12070  1.0000
  O   O20       1.0  0.78638  0.41912  0.08224  1.0000
  C   C53       1.0  0.65620  0.42800  0.30749  1.0000
  C   C54       1.0  0.64120  0.40470  0.22749  1.0000
  C   C55       1.0  0.60401  0.36687  0.22566  1.0000
  C   C56       1.0  0.57977  0.35201  0.30509  1.0000
  H   H23       1.0  0.66007  0.41256  0.17234  1.0000
  N   N11       1.0  0.59181  0.34229  0.14667  1.0000
  O   O21       1.0  0.61818  0.33307  0.12184  1.0000
  O   O22       1.0  0.58553  0.36038  0.08282  1.0000
  C   C57       1.0  0.57679  0.22202  0.30876  1.0000
  C   C58       1.0  0.59982  0.23008  0.22849  1.0000
  C   C59       1.0  0.63762  0.23068  0.22621  1.0000
  C   C60       1.0  0.65273  0.22164  0.30566  1.0000
  H   H24       1.0  0.59167  0.24076  0.17321  1.0000
  N   N12       1.0  0.66199  0.24282  0.14692  1.0000
  O   O23       1.0  0.67114  0.27833  0.12165  1.0000
  O   O24       1.0  0.64371  0.21826  0.08348  1.0000
  C   C61       1.0  0.09198  0.24237  0.36118  1.0000
  C   C62       1.0  0.11457  0.22149  0.35915  1.0000
  C   C63       1.0  0.15805  0.24255  0.35707  1.0000
  C   C64       1.0  0.17892  0.28604  0.35859  1.0000
  C   C65       1.0  0.15786  0.30843  0.36341  1.0000
  C   C66       1.0  0.11434  0.28585  0.36411  1.0000
  H   H25       1.0  0.21029  0.30182  0.35414  1.0000
  H   H26       1.0  0.09855  0.30148  0.36599  1.0000
  H   H27       1.0  0.09890  0.19008  0.36132  1.0000
  C   C67       1.0  0.76247  0.84363  0.36121  1.0000
  C   C68       1.0  0.78334  0.88710  0.35909  1.0000
  C   C69       1.0  0.76228  0.90952  0.35683  1.0000
  C   C70       1.0  0.71879  0.88689  0.35826  1.0000
  C   C71       1.0  0.69639  0.84343  0.36320  1.0000
  C   C72       1.0  0.71899  0.82252  0.36411  1.0000
  H   H28       1.0  0.70302  0.90247  0.35353  1.0000
  H   H29       1.0  0.70337  0.79109  0.36608  1.0000
  H   H30       1.0  0.81476  0.90285  0.36131  1.0000
  C   C73       1.0  0.16122  0.91289  0.36159  1.0000
  C   C74       1.0  0.11775  0.89030  0.35944  1.0000
  C   C75       1.0  0.09532  0.84682  0.35727  1.0000
  C   C76       1.0  0.11795  0.82595  0.35874  1.0000
  C   C77       1.0  0.16140  0.84700  0.36364  1.0000
  C   C78       1.0  0.18232  0.89052  0.36451  1.0000
  H   H31       1.0  0.10236  0.79459  0.35408  1.0000
  H   H32       1.0  0.21375  0.90632  0.36648  1.0000
  H   H33       1.0  0.10200  0.90597  0.36170  1.0000
  C   C79       1.0  0.91845  0.75685  0.36140  1.0000
  C   C80       1.0  0.89585  0.77772  0.35923  1.0000
  C   C81       1.0  0.85237  0.75666  0.35698  1.0000
  C   C82       1.0  0.83151  0.71317  0.35839  1.0000
  C   C83       1.0  0.85256  0.69076  0.36337  1.0000
  C   C84       1.0  0.89609  0.71338  0.36430  1.0000
  H   H34       1.0  0.80016  0.69740  0.35368  1.0000
  H   H35       1.0  0.91190  0.69776  0.36632  1.0000
  H   H36       1.0  0.91151  0.80914  0.36153  1.0000
  C   C85       1.0  0.24802  0.15565  0.36131  1.0000
  C   C86       1.0  0.22715  0.11218  0.35930  1.0000
  C   C87       1.0  0.24821  0.08976  0.35731  1.0000
  C   C88       1.0  0.29170  0.11238  0.35886  1.0000
  C   C89       1.0  0.31409  0.15584  0.36357  1.0000
  C   C90       1.0  0.29150  0.17677  0.36421  1.0000
  H   H37       1.0  0.30748  0.09680  0.35446  1.0000
  H   H38       1.0  0.30713  0.20820  0.36605  1.0000
  H   H39       1.0  0.19574  0.09644  0.36154  1.0000
  C   C91       1.0  0.84922  0.08639  0.36107  1.0000
  C   C92       1.0  0.89269  0.10898  0.35900  1.0000
  C   C93       1.0  0.91512  0.15246  0.35692  1.0000
  C   C94       1.0  0.89249  0.17333  0.35847  1.0000
  C   C95       1.0  0.84903  0.15227  0.36332  1.0000
  C   C96       1.0  0.82811  0.10875  0.36403  1.0000
  H   H40       1.0  0.90807  0.20470  0.35401  1.0000
  H   H41       1.0  0.79668  0.09295  0.36595  1.0000
  H   H42       1.0  0.90844  0.09331  0.36120  1.0000
  C   C97       1.0  0.31127  0.54826  0.32116  1.0000
  C   C98       1.0  0.28896  0.56881  0.30710  1.0000
  C   C99       1.0  0.24604  0.54973  0.31867  1.0000
  C   C100      1.0  0.22483  0.50792  0.34411  1.0000
  C   C101      1.0  0.24554  0.48516  0.35363  1.0000
  C   C102      1.0  0.28914  0.50652  0.34708  1.0000
  H   H43       1.0  0.19353  0.49330  0.34998  1.0000
  H   H44       1.0  0.30468  0.49071  0.35215  1.0000
  H   H45       1.0  0.30501  0.59972  0.29363  1.0000
  C   C103      1.0  0.45652  0.75679  0.31991  1.0000
  C   C104      1.0  0.43605  0.71395  0.30540  1.0000
  C   C105      1.0  0.45513  0.69012  0.31716  1.0000
  C   C106      1.0  0.49687  0.71071  0.34308  1.0000
  C   C107      1.0  0.51961  0.75417  0.35290  1.0000
  C   C108      1.0  0.49821  0.77637  0.34626  1.0000
  H   H46       1.0  0.51148  0.69402  0.34912  1.0000
  H   H47       1.0  0.51396  0.80770  0.35192  1.0000
  H   H48       1.0  0.40516  0.69907  0.29185  1.0000
  C   C109      1.0  0.24792  0.69363  0.32163  1.0000
  C   C110      1.0  0.29077  0.71592  0.30734  1.0000
  C   C111      1.0  0.31461  0.75887  0.31836  1.0000
  C   C112      1.0  0.29404  0.78011  0.34379  1.0000
  C   C113      1.0  0.25059  0.75941  0.35370  1.0000
  C   C114      1.0  0.22835  0.71579  0.34760  1.0000
  H   H49       1.0  0.31073  0.81142  0.34936  1.0000
  H   H50       1.0  0.19701  0.70026  0.35282  1.0000
  H   H51       1.0  0.30562  0.69986  0.29389  1.0000
  C   C115      1.0  0.69933  0.45090  0.32020  1.0000
  C   C116      1.0  0.72169  0.43042  0.30575  1.0000
  C   C117      1.0  0.76460  0.44949  0.31746  1.0000
  C   C118      1.0  0.78576  0.49123  0.34347  1.0000
  C   C119      1.0  0.76503  0.51397  0.35318  1.0000
  C   C120      1.0  0.72142  0.49256  0.34675  1.0000
  H   H52       1.0  0.81706  0.50587  0.34919  1.0000
  H   H53       1.0  0.70586  0.50835  0.35204  1.0000
  H   H54       1.0  0.70568  0.39954  0.29204  1.0000
  C   C121      1.0  0.55396  0.24230  0.32181  1.0000
  C   C122      1.0  0.57448  0.28512  0.30726  1.0000
  C   C123      1.0  0.55537  0.30896  0.31840  1.0000
  C   C124      1.0  0.51359  0.28841  0.34404  1.0000
  C   C125      1.0  0.49084  0.24495  0.35384  1.0000
  C   C126      1.0  0.51222  0.22271  0.34777  1.0000
  H   H55       1.0  0.49893  0.30508  0.34939  1.0000
  H   H56       1.0  0.49640  0.19137  0.35297  1.0000
  H   H57       1.0  0.60538  0.29998  0.29383  1.0000
  C   C127      1.0  0.76248  0.30557  0.32115  1.0000
  C   C128      1.0  0.71963  0.28323  0.30685  1.0000
  C   C129      1.0  0.69580  0.24032  0.31864  1.0000
  C   C130      1.0  0.71641  0.21914  0.34431  1.0000
  C   C131      1.0  0.75988  0.23987  0.35379  1.0000
  C   C132      1.0  0.78210  0.28347  0.34723  1.0000
  H   H58       1.0  0.69973  0.18784  0.35008  1.0000
  H   H59       1.0  0.81345  0.29903  0.35235  1.0000
  H   H60       1.0  0.70475  0.29925  0.29328  1.0000
  C   C133      1.0  0.22284  0.44119  0.36046  1.0000
  C   C134      1.0  0.23361  0.41962  0.42255  1.0000
  C   C135      1.0  0.21250  0.37602  0.42611  1.0000
  C   C136      1.0  0.17985  0.35263  0.36480  1.0000
  H   H61       1.0  0.25691  0.43584  0.46742  1.0000
  N   N13       1.0  0.22287  0.35560  0.49226  1.0000
  O   O25       1.0  0.25957  0.36404  0.48475  1.0000
  O   O26       1.0  0.21739  0.36468  0.57054  1.0000
  C   C137      1.0  0.56359  0.77547  0.36002  1.0000
  C   C138      1.0  0.58510  0.80803  0.42166  1.0000
  C   C139      1.0  0.62870  0.83060  0.42525  1.0000
  C   C140      1.0  0.65218  0.82120  0.36451  1.0000
  H   H62       1.0  0.56885  0.81525  0.46611  1.0000
  N   N14       1.0  0.64904  0.86169  0.49086  1.0000
  O   O27       1.0  0.64054  0.88986  0.48238  1.0000
  O   O28       1.0  0.63995  0.84747  0.56942  1.0000
  C   C141      1.0  0.22929  0.78210  0.36061  1.0000
  C   C142      1.0  0.19679  0.77115  0.42236  1.0000
  C   C143      1.0  0.17424  0.79220  0.42590  1.0000
  C   C144      1.0  0.18362  0.82502  0.36498  1.0000
  H   H63       1.0  0.18961  0.74775  0.46698  1.0000
  N   N15       1.0  0.14323  0.78156  0.49164  1.0000
  O   O29       1.0  0.11502  0.74488  0.48338  1.0000
  O   O30       1.0  0.15751  0.78677  0.57013  1.0000
  C   C145      1.0  0.78770  0.55795  0.36025  1.0000
  C   C146      1.0  0.77665  0.57948  0.42182  1.0000
  C   C147      1.0  0.79768  0.62309  0.42538  1.0000
  C   C148      1.0  0.83059  0.64655  0.36469  1.0000
  H   H64       1.0  0.75316  0.56324  0.46623  1.0000
  N   N16       1.0  0.78690  0.64343  0.49091  1.0000
  O   O31       1.0  0.75022  0.63493  0.48232  1.0000
  O   O32       1.0  0.79198  0.63434  0.56950  1.0000
  C   C149      1.0  0.44685  0.22366  0.36064  1.0000
  C   C150      1.0  0.42529  0.19137  0.42285  1.0000
  C   C151      1.0  0.38169  0.16887  0.42638  1.0000
  C   C152      1.0  0.35829  0.17806  0.36496  1.0000
  H   H65       1.0  0.44150  0.18434  0.46781  1.0000
  N   N17       1.0  0.36127  0.13812  0.49261  1.0000
  O   O33       1.0  0.36972  0.10987  0.48525  1.0000
  O   O34       1.0  0.37033  0.15272  0.57085  1.0000
  C   C153      1.0  0.78116  0.21718  0.36064  1.0000
  C   C154      1.0  0.81357  0.22801  0.42256  1.0000
  C   C155      1.0  0.83610  0.20693  0.42601  1.0000
  C   C156      1.0  0.82681  0.17425  0.36479  1.0000
  H   H66       1.0  0.82070  0.25135  0.46733  1.0000
  N   N18       1.0  0.86698  0.21739  0.49198  1.0000
  O   O35       1.0  0.89521  0.25409  0.48427  1.0000
  O   O36       1.0  0.85253  0.21197  0.57035  1.0000
  C   C157      1.0  0.21261  0.23104  0.41766  1.0000
  C   C158      1.0  0.23491  0.21011  0.41947  1.0000
  H   H67       1.0  0.21988  0.25382  0.46409  1.0000
  H   H68       1.0  0.25750  0.21842  0.46686  1.0000
  C   C159      1.0  0.77376  0.97559  0.41730  1.0000
  C   C160      1.0  0.79472  0.01882  0.41915  1.0000
  H   H69       1.0  0.75098  0.96008  0.46373  1.0000
  H   H70       1.0  0.78641  0.03309  0.46654  1.0000
  C   C161      1.0  0.02924  0.79224  0.41780  1.0000
  C   C162      1.0  0.98601  0.76995  0.41960  1.0000
  H   H71       1.0  0.04475  0.78496  0.46421  1.0000
  H   H72       1.0  0.97173  0.74735  0.46696  1.0000
  C   C163      1.0  0.79779  0.76816  0.41747  1.0000
  C   C164      1.0  0.77553  0.78913  0.41933  1.0000
  H   H73       1.0  0.79051  0.74537  0.46390  1.0000
  H   H74       1.0  0.75294  0.78082  0.46671  1.0000
  C   C165      1.0  0.23664  0.02368  0.41799  1.0000
  C   C166      1.0  0.21568  0.98045  0.41982  1.0000
  H   H75       1.0  0.25941  0.03919  0.46444  1.0000
  H   H76       1.0  0.22396  0.96617  0.46725  1.0000
  C   C167      1.0  0.98120  0.20702  0.41749  1.0000
  C   C168      1.0  0.02442  0.22929  0.41933  1.0000
  H   H77       1.0  0.96568  0.21427  0.46396  1.0000
  H   H78       1.0  0.03870  0.25185  0.46676  1.0000
  C   C169      1.0  0.21343  0.58612  0.38251  1.0000
  C   C170      1.0  0.21379  0.62390  0.38423  1.0000
  H   H79       1.0  0.20954  0.57111  0.44252  1.0000
  H   H80       1.0  0.21039  0.63463  0.44520  1.0000
  C   C171      1.0  0.41889  0.62117  0.38110  1.0000
  C   C172      1.0  0.38100  0.58384  0.38315  1.0000
  H   H81       1.0  0.43380  0.63245  0.44112  1.0000
  H   H82       1.0  0.37033  0.56986  0.44429  1.0000
  C   C173      1.0  0.38378  0.79161  0.38138  1.0000
  C   C174      1.0  0.42117  0.79117  0.38267  1.0000
  H   H83       1.0  0.37285  0.79566  0.44146  1.0000
  H   H84       1.0  0.43549  0.79471  0.44345  1.0000
  C   C175      1.0  0.79724  0.41321  0.38122  1.0000
  C   C176      1.0  0.79662  0.37529  0.38315  1.0000
  H   H85       1.0  0.80088  0.42811  0.44128  1.0000
  H   H86       1.0  0.79992  0.36460  0.44427  1.0000
  C   C177      1.0  0.59174  0.37814  0.38143  1.0000
  C   C178      1.0  0.62956  0.41554  0.38279  1.0000
  H   H87       1.0  0.57673  0.36720  0.44150  1.0000
  H   H88       1.0  0.64030  0.42985  0.44360  1.0000
  C   C179      1.0  0.62692  0.20775  0.38259  1.0000
  C   C180      1.0  0.58959  0.20832  0.38432  1.0000
  H   H89       1.0  0.63820  0.20423  0.44271  1.0000
  H   H90       1.0  0.57560  0.20511  0.44541  1.0000
