data_image0
_chemical_formula_structural       C17H12C17H12C2H2C2H2C2H2C2H2C2H2C2H2C13H9C13H9C4NC2NC2H2C4NC2NC2H2C4NC2NC2H2
_chemical_formula_sum              "C96 H60 N6"
_cell_length_a       37.471
_cell_length_b       37.4458
_cell_length_c       14.889
_cell_angle_alpha    90
_cell_angle_beta     90
_cell_angle_gamma    120.036

_space_group_name_H-M_alt    "P 1"
_space_group_IT_number       1

loop_
  _space_group_symop_operation_xyz
  'x, y, z'

loop_
  _atom_site_type_symbol
  _atom_site_label
  _atom_site_symmetry_multiplicity
  _atom_site_fract_x
  _atom_site_fract_y
  _atom_site_fract_z
  _atom_site_occupancy
  C   C1        1.0  0.47181  0.89149  0.35503  1.0000
  C   C2        1.0  0.44781  0.84811  0.35787  1.0000
  C   C3        1.0  0.38557  0.75775  0.30852  1.0000
  C   C4        1.0  0.36025  0.71493  0.31359  1.0000
  C   C5        1.0  0.31669  0.69575  0.31048  1.0000
  C   C6        1.0  0.29130  0.65232  0.30888  1.0000
  C   C7        1.0  0.31031  0.62782  0.30810  1.0000
  C   C8        1.0  0.35369  0.64586  0.31064  1.0000
  C   C9        1.0  0.37817  0.68941  0.31287  1.0000
  C   C10       1.0  0.37141  0.62099  0.30203  1.0000
  C   C11       1.0  0.41900  0.59811  0.34934  1.0000
  C   C12       1.0  0.39687  0.55580  0.32553  1.0000
  C   C13       1.0  0.41648  0.53206  0.32187  1.0000
  C   C14       1.0  0.24874  0.63465  0.29978  1.0000
  C   C15       1.0  0.17819  0.58629  0.34591  1.0000
  C   C16       1.0  0.15340  0.54373  0.36521  1.0000
  C   C17       1.0  0.11008  0.52409  0.36257  1.0000
  H   H1        1.0  0.50304  0.90514  0.36339  1.0000
  H   H2        1.0  0.46221  0.83145  0.36941  1.0000
  H   H3        1.0  0.40966  0.70280  0.31145  1.0000
  H   H4        1.0  0.30320  0.71372  0.30715  1.0000
  H   H5        1.0  0.29228  0.59637  0.30332  1.0000
  H   H6        1.0  0.39922  0.50138  0.30637  1.0000
  H   H7        1.0  0.36593  0.54154  0.31256  1.0000
  H   H8        1.0  0.09332  0.49328  0.37713  1.0000
  H   H9        1.0  0.16670  0.52653  0.38218  1.0000
  H   H10       1.0  0.36179  0.60121  0.25093  1.0000
  H   H11       1.0  0.40965  0.76847  0.26714  1.0000
  H   H12       1.0  0.23872  0.64485  0.24958  1.0000
  C   C18       1.0  0.53120  0.11673  0.31745  1.0000
  C   C19       1.0  0.55476  0.16016  0.32003  1.0000
  C   C20       1.0  0.61927  0.25109  0.29412  1.0000
  C   C21       1.0  0.64367  0.29374  0.30352  1.0000
  C   C22       1.0  0.68720  0.31337  0.30616  1.0000
  C   C23       1.0  0.71225  0.35687  0.30891  1.0000
  C   C24       1.0  0.69244  0.38070  0.30821  1.0000
  C   C25       1.0  0.64894  0.36223  0.30625  1.0000
  C   C26       1.0  0.62511  0.31862  0.30261  1.0000
  C   C27       1.0  0.63102  0.38717  0.30062  1.0000
  C   C28       1.0  0.57858  0.40476  0.33627  1.0000
  C   C29       1.0  0.60090  0.44722  0.35798  1.0000
  C   C30       1.0  0.58154  0.47120  0.35746  1.0000
  C   C31       1.0  0.75517  0.37483  0.30430  1.0000
  C   C32       1.0  0.82521  0.42691  0.34085  1.0000
  C   C33       1.0  0.84981  0.46901  0.31760  1.0000
  C   C34       1.0  0.89313  0.48813  0.31569  1.0000
  H   H13       1.0  0.50024  0.10304  0.30512  1.0000
  H   H14       1.0  0.54011  0.17664  0.30946  1.0000
  H   H15       1.0  0.59368  0.30468  0.29727  1.0000
  H   H16       1.0  0.70094  0.29559  0.30369  1.0000
  H   H17       1.0  0.71007  0.41224  0.30684  1.0000
  H   H18       1.0  0.59858  0.50176  0.37412  1.0000
  H   H19       1.0  0.63124  0.46086  0.37640  1.0000
  H   H20       1.0  0.90992  0.51886  0.30035  1.0000
  H   H21       1.0  0.83638  0.48631  0.30276  1.0000
  H   H22       1.0  0.64551  0.41252  0.26304  1.0000
  H   H23       1.0  0.59906  0.24083  0.24383  1.0000
  H   H24       1.0  0.76613  0.36068  0.26594  1.0000
  C   C35       1.0  0.47720  0.50277  0.26652  1.0000
  C   C36       1.0  0.49709  0.47931  0.26453  1.0000
  H   H25       1.0  0.49610  0.46427  0.20639  1.0000
  H   H26       1.0  0.46250  0.50403  0.20972  1.0000
  C   C37       1.0  0.53730  0.55530  0.06617  1.0000
  C   C38       1.0  0.55721  0.53186  0.06417  1.0000
  H   H27       1.0  0.53716  0.56994  0.12398  1.0000
  H   H28       1.0  0.57145  0.52951  0.12056  1.0000
  C   C39       1.0  0.47820  0.98261  0.26544  1.0000
  C   C40       1.0  0.50171  0.02599  0.26428  1.0000
  H   H29       1.0  0.50217  0.04116  0.20677  1.0000
  H   H30       1.0  0.46223  0.96763  0.20884  1.0000
  C   C41       1.0  0.53598  0.98199  0.06405  1.0000
  C   C42       1.0  0.55923  0.02540  0.06303  1.0000
  H   H31       1.0  0.53408  0.96626  0.12161  1.0000
  H   H32       1.0  0.57416  0.04108  0.11985  1.0000
  C   C43       1.0  0.02421  0.52770  0.26598  1.0000
  C   C44       1.0  0.98085  0.50782  0.26530  1.0000
  H   H33       1.0  0.96648  0.50872  0.20763  1.0000
  H   H34       1.0  0.03985  0.54232  0.20881  1.0000
  C   C45       1.0  0.01953  0.46862  0.06546  1.0000
  C   C46       1.0  0.97616  0.44871  0.06483  1.0000
  H   H35       1.0  0.03468  0.46893  0.12279  1.0000
  H   H36       1.0  0.95993  0.43462  0.12172  1.0000
  C   C47       1.0  0.45325  0.91594  0.34146  1.0000
  C   C48       1.0  0.40447  0.82790  0.34762  1.0000
  C   C49       1.0  0.38595  0.85243  0.33432  1.0000
  C   C50       1.0  0.41000  0.89577  0.33046  1.0000
  C   C51       1.0  0.37976  0.78522  0.35523  1.0000
  C   C52       1.0  0.40022  0.62214  0.35793  1.0000
  C   C53       1.0  0.46140  0.61565  0.36972  1.0000
  C   C54       1.0  0.45875  0.54958  0.34341  1.0000
  C   C55       1.0  0.48094  0.59188  0.36654  1.0000
  C   C56       1.0  0.22101  0.60515  0.35446  1.0000
  C   C57       1.0  0.15792  0.60847  0.32362  1.0000
  C   C58       1.0  0.08989  0.54634  0.34102  1.0000
  C   C59       1.0  0.11454  0.58876  0.32050  1.0000
  H   H37       1.0  0.39550  0.91255  0.32206  1.0000
  H   H38       1.0  0.35463  0.83893  0.32778  1.0000
  H   H39       1.0  0.17454  0.63951  0.31156  1.0000
  H   H40       1.0  0.47856  0.64606  0.38771  1.0000
  H   H41       1.0  0.51167  0.60581  0.38169  1.0000
  H   H42       1.0  0.10105  0.60604  0.30618  1.0000
  H   H43       1.0  0.40971  0.64231  0.40840  1.0000
  H   H44       1.0  0.35563  0.77477  0.39634  1.0000
  H   H45       1.0  0.23167  0.59518  0.40405  1.0000
  C   C60       1.0  0.54935  0.09233  0.33649  1.0000
  C   C61       1.0  0.59743  0.18065  0.34022  1.0000
  C   C62       1.0  0.61562  0.15611  0.35768  1.0000
  C   C63       1.0  0.59204  0.11275  0.35563  1.0000
  C   C64       1.0  0.62120  0.22349  0.34890  1.0000
  C   C65       1.0  0.59623  0.37981  0.34302  1.0000
  C   C66       1.0  0.53642  0.38712  0.31369  1.0000
  C   C67       1.0  0.53925  0.45353  0.33566  1.0000
  C   C68       1.0  0.51717  0.41121  0.31258  1.0000
  C   C69       1.0  0.78261  0.40930  0.34776  1.0000
  C   C70       1.0  0.84526  0.40452  0.36240  1.0000
  C   C71       1.0  0.91331  0.46598  0.33846  1.0000
  C   C72       1.0  0.88860  0.42376  0.36100  1.0000
  H   H46       1.0  0.60632  0.09613  0.36922  1.0000
  H   H47       1.0  0.64630  0.16963  0.37320  1.0000
  H   H48       1.0  0.82850  0.37419  0.38106  1.0000
  H   H49       1.0  0.51915  0.35636  0.29888  1.0000
  H   H50       1.0  0.48639  0.39715  0.29790  1.0000
  H   H51       1.0  0.90205  0.40664  0.37736  1.0000
  H   H52       1.0  0.58144  0.35464  0.38088  1.0000
  H   H53       1.0  0.64168  0.23424  0.39877  1.0000
  H   H54       1.0  0.77231  0.42393  0.38630  1.0000
  C   C73       1.0  0.51904  0.47732  0.33983  1.0000
  C   C74       1.0  0.51929  0.49861  0.41888  1.0000
  C   C75       1.0  0.49913  0.52232  0.42092  1.0000
  C   C76       1.0  0.47835  0.52518  0.34398  1.0000
  N   N1        1.0  0.49943  0.54104  0.49962  1.0000
  C   C77       1.0  0.51799  0.53860  0.57569  1.0000
  C   C78       1.0  0.53802  0.51504  0.57366  1.0000
  N   N2        1.0  0.53763  0.49609  0.49575  1.0000
  C   C79       1.0  0.51758  0.55863  0.65540  1.0000
  C   C80       1.0  0.55754  0.51163  0.65137  1.0000
  H   H55       1.0  0.50315  0.57567  0.65730  1.0000
  H   H56       1.0  0.57203  0.49464  0.65036  1.0000
  C   C81       1.0  0.52513  0.04835  0.33981  1.0000
  C   C82       1.0  0.52331  0.02586  0.41807  1.0000
  C   C83       1.0  0.49965  0.98196  0.41918  1.0000
  C   C84       1.0  0.47728  0.95987  0.34210  1.0000
  N   N3        1.0  0.49809  0.96215  0.49711  1.0000
  C   C85       1.0  0.51789  0.98192  0.57346  1.0000
  C   C86       1.0  0.54130  0.02558  0.57247  1.0000
  N   N4        1.0  0.54287  0.04547  0.49518  1.0000
  C   C87       1.0  0.51525  0.96019  0.65271  1.0000
  C   C88       1.0  0.56192  0.04726  0.65065  1.0000
  H   H57       1.0  0.49831  0.92869  0.65398  1.0000
  H   H58       1.0  0.57877  0.07878  0.65039  1.0000
  C   C89       1.0  0.95734  0.48606  0.34128  1.0000
  C   C90       1.0  0.97885  0.48591  0.41960  1.0000
  C   C91       1.0  0.02273  0.50604  0.42029  1.0000
  C   C92       1.0  0.04591  0.52669  0.34274  1.0000
  N   N5        1.0  0.04165  0.50590  0.49831  1.0000
  C   C93       1.0  0.02112  0.48750  0.57497  1.0000
  C   C94       1.0  0.97752  0.46750  0.57433  1.0000
  N   N6        1.0  0.95847  0.46774  0.49707  1.0000
  C   C95       1.0  0.04208  0.48812  0.65399  1.0000
  C   C96       1.0  0.95510  0.44818  0.65273  1.0000
  H   H59       1.0  0.07356  0.50256  0.65489  1.0000
  H   H60       1.0  0.92361  0.43371  0.65273  1.0000
