data_image0
_chemical_formula_structural       C4H2NCHC4H2NCHC3H2C3H2C9NH3C5NH3CNHCHC6H3NC5H3NC5H3C4H2C5NH3C5NH3CNHCHC6H3NC5H3NC5H3C4H2C5NH3C5NH3C5NH3C6H3C6H3NC5H3NC5H3NC5H3C5NH3C5NH3C5NH3C6H3C6H3NC5H3NC5H3NC5H3
_chemical_formula_sum              "C168 H96 N24"
_cell_length_a       44.2282
_cell_length_b       44.2282
_cell_length_c       14.8673
_cell_angle_alpha    90
_cell_angle_beta     90
_cell_angle_gamma    120

_space_group_name_H-M_alt    "P 1"
_space_group_IT_number       1

loop_
  _space_group_symop_operation_xyz
  'x, y, z'

loop_
  _atom_site_type_symbol
  _atom_site_label
  _atom_site_symmetry_multiplicity
  _atom_site_fract_x
  _atom_site_fract_y
  _atom_site_fract_z
  _atom_site_occupancy
  C   C1        1.0  0.09938  0.30081  0.34134  1.0000
  C   C2        1.0  0.08091  0.29157  0.25923  1.0000
  C   C3        1.0  0.04414  0.27318  0.25862  1.0000
  C   C4        1.0  0.02534  0.26378  0.34072  1.0000
  H   H1        1.0  0.09409  0.29815  0.19933  1.0000
  H   H2        1.0  0.03149  0.26685  0.19805  1.0000
  N   N1        1.0  0.04442  0.27333  0.41820  1.0000
  C   C5        1.0  0.07985  0.29104  0.42174  1.0000
  H   H3        1.0  0.09191  0.29708  0.48308  1.0000
  C   C6        1.0  0.09938  0.80081  0.34134  1.0000
  C   C7        1.0  0.08091  0.79157  0.25923  1.0000
  C   C8        1.0  0.04414  0.77318  0.25862  1.0000
  C   C9        1.0  0.02534  0.76378  0.34072  1.0000
  H   H4        1.0  0.09409  0.79815  0.19933  1.0000
  H   H5        1.0  0.03149  0.76685  0.19805  1.0000
  N   N2        1.0  0.04442  0.77333  0.41820  1.0000
  C   C10       1.0  0.07985  0.79105  0.42174  1.0000
  H   H6        1.0  0.09191  0.79708  0.48308  1.0000
  C   C11       1.0  0.13633  0.31928  0.34284  1.0000
  C   C12       1.0  0.15499  0.35618  0.34274  1.0000
  C   C13       1.0  0.15497  0.30103  0.34276  1.0000
  H   H7        1.0  0.14159  0.27427  0.34220  1.0000
  H   H8        1.0  0.14161  0.36956  0.34220  1.0000
  C   C14       1.0  0.13633  0.81928  0.34284  1.0000
  C   C15       1.0  0.15499  0.85618  0.34274  1.0000
  C   C16       1.0  0.15498  0.80103  0.34276  1.0000
  H   H9        1.0  0.14159  0.77427  0.34220  1.0000
  H   H10       1.0  0.14161  0.86956  0.34220  1.0000
  C   C17       1.0  0.19188  0.37482  0.34284  1.0000
  C   C18       1.0  0.19187  0.31927  0.34284  1.0000
  C   C19       1.0  0.19188  0.87482  0.34284  1.0000
  C   C20       1.0  0.19187  0.81927  0.34284  1.0000
  C   C21       1.0  0.21034  0.30079  0.34134  1.0000
  C   C22       1.0  0.21958  0.29157  0.25923  1.0000
  C   C23       1.0  0.23797  0.27318  0.25862  1.0000
  C   C24       1.0  0.24737  0.26378  0.34072  1.0000
  C   C25       1.0  0.29328  0.21790  0.26347  1.0000
  N   N3        1.0  0.27556  0.23561  0.26705  1.0000
  H   H11       1.0  0.29930  0.21188  0.20211  1.0000
  H   H12       1.0  0.21299  0.29816  0.19933  1.0000
  H   H13       1.0  0.24430  0.26687  0.19805  1.0000
  C   C26       1.0  0.21036  0.41177  0.34134  1.0000
  C   C27       1.0  0.21959  0.43024  0.25923  1.0000
  C   C28       1.0  0.23797  0.46701  0.25862  1.0000
  C   C29       1.0  0.24737  0.48581  0.34072  1.0000
  C   C30       1.0  0.29324  0.07761  0.26348  1.0000
  N   N4        1.0  0.27554  0.04218  0.26705  1.0000
  H   H14       1.0  0.29927  0.08966  0.20211  1.0000
  H   H15       1.0  0.21300  0.41706  0.19933  1.0000
  H   H16       1.0  0.24429  0.47966  0.19806  1.0000
  C   C31       1.0  0.43354  0.21788  0.26347  1.0000
  N   N5        1.0  0.46897  0.23560  0.26705  1.0000
  H   H17       1.0  0.42150  0.21186  0.20211  1.0000
  C   C32       1.0  0.21012  0.35617  0.34275  1.0000
  H   H18       1.0  0.23688  0.36954  0.34221  1.0000
  C   C33       1.0  0.37705  0.18964  0.34229  1.0000
  C   C34       1.0  0.35840  0.15275  0.34238  1.0000
  C   C35       1.0  0.32150  0.13410  0.34229  1.0000
  C   C36       1.0  0.30326  0.15276  0.34237  1.0000
  C   C37       1.0  0.32152  0.18965  0.34229  1.0000
  C   C38       1.0  0.35841  0.20789  0.34236  1.0000
  H   H19       1.0  0.27650  0.13938  0.34295  1.0000
  H   H20       1.0  0.37179  0.23465  0.34295  1.0000
  H   H21       1.0  0.37177  0.13936  0.34295  1.0000
  N   N6        1.0  0.23782  0.27331  0.41820  1.0000
  C   C39       1.0  0.22010  0.29102  0.42174  1.0000
  C   C40       1.0  0.26602  0.24514  0.34455  1.0000
  C   C41       1.0  0.27543  0.23574  0.42663  1.0000
  C   C42       1.0  0.29382  0.21736  0.42597  1.0000
  C   C43       1.0  0.30305  0.20813  0.34384  1.0000
  H   H22       1.0  0.26910  0.24206  0.48721  1.0000
  H   H23       1.0  0.30041  0.21076  0.48587  1.0000
  H   H24       1.0  0.21407  0.29705  0.48308  1.0000
  N   N7        1.0  0.23784  0.46673  0.41820  1.0000
  C   C44       1.0  0.22013  0.43130  0.42174  1.0000
  C   C45       1.0  0.26601  0.02311  0.34455  1.0000
  C   C46       1.0  0.27541  0.04192  0.42663  1.0000
  C   C47       1.0  0.29379  0.07870  0.42597  1.0000
  C   C48       1.0  0.30302  0.09715  0.34384  1.0000
  H   H25       1.0  0.26909  0.02928  0.48721  1.0000
  H   H26       1.0  0.30039  0.09188  0.48587  1.0000
  H   H27       1.0  0.21411  0.41924  0.48308  1.0000
  C   C49       1.0  0.48804  0.24513  0.34455  1.0000
  C   C50       1.0  0.46923  0.23573  0.42663  1.0000
  C   C51       1.0  0.43246  0.21734  0.42597  1.0000
  C   C52       1.0  0.41400  0.20811  0.34384  1.0000
  H   H28       1.0  0.48187  0.24205  0.48721  1.0000
  H   H29       1.0  0.41927  0.21075  0.48586  1.0000
  C   C53       1.0  0.21034  0.80079  0.34134  1.0000
  C   C54       1.0  0.21958  0.79156  0.25923  1.0000
  C   C55       1.0  0.23797  0.77318  0.25862  1.0000
  C   C56       1.0  0.24737  0.76378  0.34072  1.0000
  C   C57       1.0  0.29328  0.71791  0.26347  1.0000
  N   N8        1.0  0.27556  0.73561  0.26705  1.0000
  H   H30       1.0  0.29930  0.71188  0.20211  1.0000
  H   H31       1.0  0.21299  0.79816  0.19933  1.0000
  H   H32       1.0  0.24430  0.76687  0.19805  1.0000
  C   C58       1.0  0.21036  0.91177  0.34134  1.0000
  C   C59       1.0  0.21959  0.93024  0.25923  1.0000
  C   C60       1.0  0.23797  0.96701  0.25862  1.0000
  C   C61       1.0  0.24737  0.98581  0.34072  1.0000
  C   C62       1.0  0.29324  0.57761  0.26348  1.0000
  N   N9        1.0  0.27554  0.54218  0.26705  1.0000
  H   H33       1.0  0.29926  0.58966  0.20211  1.0000
  H   H34       1.0  0.21300  0.91706  0.19933  1.0000
  H   H35       1.0  0.24429  0.97966  0.19806  1.0000
  C   C63       1.0  0.43354  0.71788  0.26347  1.0000
  N   N10       1.0  0.46897  0.73560  0.26705  1.0000
  H   H36       1.0  0.42150  0.71186  0.20211  1.0000
  C   C64       1.0  0.21012  0.85617  0.34275  1.0000
  H   H37       1.0  0.23688  0.86954  0.34221  1.0000
  C   C65       1.0  0.37705  0.68964  0.34229  1.0000
  C   C66       1.0  0.35840  0.65275  0.34238  1.0000
  C   C67       1.0  0.32150  0.63410  0.34229  1.0000
  C   C68       1.0  0.30326  0.65276  0.34237  1.0000
  C   C69       1.0  0.32152  0.68965  0.34229  1.0000
  C   C70       1.0  0.35841  0.70789  0.34236  1.0000
  H   H38       1.0  0.27650  0.63938  0.34295  1.0000
  H   H39       1.0  0.37179  0.73465  0.34295  1.0000
  H   H40       1.0  0.37177  0.63936  0.34295  1.0000
  N   N11       1.0  0.23782  0.77332  0.41820  1.0000
  C   C71       1.0  0.22010  0.79102  0.42174  1.0000
  C   C72       1.0  0.26602  0.74514  0.34455  1.0000
  C   C73       1.0  0.27543  0.73574  0.42663  1.0000
  C   C74       1.0  0.29382  0.71736  0.42597  1.0000
  C   C75       1.0  0.30305  0.70813  0.34384  1.0000
  H   H41       1.0  0.26910  0.74206  0.48721  1.0000
  H   H42       1.0  0.30041  0.71076  0.48587  1.0000
  H   H43       1.0  0.21407  0.79705  0.48308  1.0000
  N   N12       1.0  0.23784  0.96673  0.41820  1.0000
  C   C76       1.0  0.22013  0.93130  0.42174  1.0000
  C   C77       1.0  0.26601  0.52311  0.34455  1.0000
  C   C78       1.0  0.27541  0.54192  0.42663  1.0000
  C   C79       1.0  0.29379  0.57869  0.42597  1.0000
  C   C80       1.0  0.30302  0.59715  0.34384  1.0000
  H   H44       1.0  0.26909  0.52928  0.48721  1.0000
  H   H45       1.0  0.30039  0.59188  0.48587  1.0000
  H   H46       1.0  0.21411  0.91924  0.48308  1.0000
  C   C81       1.0  0.48804  0.74513  0.34455  1.0000
  C   C82       1.0  0.46923  0.73573  0.42663  1.0000
  C   C83       1.0  0.43246  0.71734  0.42597  1.0000
  C   C84       1.0  0.41400  0.70811  0.34384  1.0000
  H   H47       1.0  0.48187  0.74205  0.48721  1.0000
  H   H48       1.0  0.41927  0.71075  0.48586  1.0000
  C   C85       1.0  0.71034  0.30079  0.34134  1.0000
  C   C86       1.0  0.71958  0.29157  0.25923  1.0000
  C   C87       1.0  0.73797  0.27318  0.25862  1.0000
  C   C88       1.0  0.74736  0.26378  0.34072  1.0000
  C   C89       1.0  0.79328  0.21790  0.26347  1.0000
  N   N13       1.0  0.77556  0.23561  0.26705  1.0000
  H   H49       1.0  0.79930  0.21188  0.20211  1.0000
  H   H50       1.0  0.71299  0.29816  0.19933  1.0000
  H   H51       1.0  0.74430  0.26687  0.19805  1.0000
  C   C90       1.0  0.71036  0.41177  0.34134  1.0000
  C   C91       1.0  0.71959  0.43024  0.25923  1.0000
  C   C92       1.0  0.73797  0.46701  0.25862  1.0000
  C   C93       1.0  0.74737  0.48581  0.34072  1.0000
  C   C94       1.0  0.79324  0.07761  0.26348  1.0000
  N   N14       1.0  0.77554  0.04218  0.26705  1.0000
  H   H52       1.0  0.79927  0.08966  0.20211  1.0000
  H   H53       1.0  0.71300  0.41706  0.19933  1.0000
  H   H54       1.0  0.74429  0.47966  0.19806  1.0000
  C   C95       1.0  0.59938  0.30081  0.34134  1.0000
  C   C96       1.0  0.58091  0.29157  0.25923  1.0000
  C   C97       1.0  0.54414  0.27318  0.25862  1.0000
  C   C98       1.0  0.52534  0.26378  0.34072  1.0000
  C   C99       1.0  0.93354  0.21788  0.26347  1.0000
  N   N15       1.0  0.96897  0.23560  0.26705  1.0000
  H   H55       1.0  0.92150  0.21186  0.20211  1.0000
  H   H56       1.0  0.59409  0.29815  0.19933  1.0000
  H   H57       1.0  0.53149  0.26685  0.19805  1.0000
  C   C100      1.0  0.63633  0.31928  0.34284  1.0000
  C   C101      1.0  0.65499  0.35618  0.34274  1.0000
  C   C102      1.0  0.69188  0.37482  0.34284  1.0000
  C   C103      1.0  0.71012  0.35617  0.34275  1.0000
  C   C104      1.0  0.69187  0.31927  0.34284  1.0000
  C   C105      1.0  0.65497  0.30103  0.34276  1.0000
  H   H58       1.0  0.73688  0.36954  0.34221  1.0000
  H   H59       1.0  0.64159  0.27427  0.34220  1.0000
  H   H60       1.0  0.64161  0.36956  0.34220  1.0000
  C   C106      1.0  0.87705  0.18964  0.34229  1.0000
  C   C107      1.0  0.85839  0.15275  0.34238  1.0000
  C   C108      1.0  0.82150  0.13410  0.34229  1.0000
  C   C109      1.0  0.80326  0.15276  0.34237  1.0000
  C   C110      1.0  0.82151  0.18965  0.34229  1.0000
  C   C111      1.0  0.85841  0.20789  0.34236  1.0000
  H   H61       1.0  0.77650  0.13938  0.34295  1.0000
  H   H62       1.0  0.87179  0.23465  0.34295  1.0000
  H   H63       1.0  0.87177  0.13936  0.34295  1.0000
  N   N16       1.0  0.73782  0.27331  0.41820  1.0000
  C   C112      1.0  0.72010  0.29102  0.42174  1.0000
  C   C113      1.0  0.76602  0.24514  0.34455  1.0000
  C   C114      1.0  0.77543  0.23574  0.42663  1.0000
  C   C115      1.0  0.79382  0.21736  0.42597  1.0000
  C   C116      1.0  0.80305  0.20813  0.34384  1.0000
  H   H64       1.0  0.76910  0.24206  0.48721  1.0000
  H   H65       1.0  0.80041  0.21076  0.48587  1.0000
  H   H66       1.0  0.71406  0.29705  0.48308  1.0000
  N   N17       1.0  0.73784  0.46673  0.41820  1.0000
  C   C117      1.0  0.72013  0.43130  0.42174  1.0000
  C   C118      1.0  0.76601  0.02311  0.34455  1.0000
  C   C119      1.0  0.77541  0.04192  0.42663  1.0000
  C   C120      1.0  0.79379  0.07870  0.42597  1.0000
  C   C121      1.0  0.80302  0.09715  0.34384  1.0000
  H   H67       1.0  0.76909  0.02928  0.48721  1.0000
  H   H68       1.0  0.80039  0.09188  0.48587  1.0000
  H   H69       1.0  0.71411  0.41924  0.48308  1.0000
  N   N18       1.0  0.54442  0.27333  0.41820  1.0000
  C   C122      1.0  0.57985  0.29104  0.42174  1.0000
  C   C123      1.0  0.98804  0.24513  0.34455  1.0000
  C   C124      1.0  0.96923  0.23573  0.42663  1.0000
  C   C125      1.0  0.93246  0.21734  0.42597  1.0000
  C   C126      1.0  0.91400  0.20811  0.34384  1.0000
  H   H70       1.0  0.98187  0.24205  0.48721  1.0000
  H   H71       1.0  0.91927  0.21075  0.48586  1.0000
  H   H72       1.0  0.59191  0.29708  0.48308  1.0000
  C   C127      1.0  0.71034  0.80079  0.34134  1.0000
  C   C128      1.0  0.71958  0.79156  0.25923  1.0000
  C   C129      1.0  0.73797  0.77318  0.25862  1.0000
  C   C130      1.0  0.74737  0.76378  0.34072  1.0000
  C   C131      1.0  0.79328  0.71791  0.26347  1.0000
  N   N19       1.0  0.77556  0.73561  0.26705  1.0000
  H   H73       1.0  0.79930  0.71188  0.20211  1.0000
  H   H74       1.0  0.71299  0.79816  0.19933  1.0000
  H   H75       1.0  0.74430  0.76687  0.19805  1.0000
  C   C132      1.0  0.71036  0.91177  0.34134  1.0000
  C   C133      1.0  0.71959  0.93024  0.25923  1.0000
  C   C134      1.0  0.73797  0.96701  0.25862  1.0000
  C   C135      1.0  0.74737  0.98581  0.34072  1.0000
  C   C136      1.0  0.79324  0.57761  0.26348  1.0000
  N   N20       1.0  0.77554  0.54218  0.26705  1.0000
  H   H76       1.0  0.79926  0.58966  0.20211  1.0000
  H   H77       1.0  0.71300  0.91706  0.19933  1.0000
  H   H78       1.0  0.74429  0.97966  0.19806  1.0000
  C   C137      1.0  0.59938  0.80081  0.34134  1.0000
  C   C138      1.0  0.58091  0.79157  0.25923  1.0000
  C   C139      1.0  0.54414  0.77318  0.25862  1.0000
  C   C140      1.0  0.52534  0.76378  0.34072  1.0000
  C   C141      1.0  0.93354  0.71788  0.26347  1.0000
  N   N21       1.0  0.96897  0.73560  0.26705  1.0000
  H   H79       1.0  0.92150  0.71186  0.20211  1.0000
  H   H80       1.0  0.59409  0.79815  0.19933  1.0000
  H   H81       1.0  0.53149  0.76685  0.19805  1.0000
  C   C142      1.0  0.63633  0.81928  0.34284  1.0000
  C   C143      1.0  0.65499  0.85618  0.34274  1.0000
  C   C144      1.0  0.69188  0.87482  0.34284  1.0000
  C   C145      1.0  0.71012  0.85617  0.34275  1.0000
  C   C146      1.0  0.69187  0.81927  0.34284  1.0000
  C   C147      1.0  0.65498  0.80103  0.34276  1.0000
  H   H82       1.0  0.73688  0.86954  0.34221  1.0000
  H   H83       1.0  0.64159  0.77427  0.34220  1.0000
  H   H84       1.0  0.64161  0.86956  0.34220  1.0000
  C   C148      1.0  0.87705  0.68964  0.34229  1.0000
  C   C149      1.0  0.85840  0.65275  0.34238  1.0000
  C   C150      1.0  0.82150  0.63410  0.34229  1.0000
  C   C151      1.0  0.80326  0.65276  0.34237  1.0000
  C   C152      1.0  0.82152  0.68965  0.34229  1.0000
  C   C153      1.0  0.85841  0.70789  0.34236  1.0000
  H   H85       1.0  0.77650  0.63938  0.34295  1.0000
  H   H86       1.0  0.87179  0.73465  0.34295  1.0000
  H   H87       1.0  0.87177  0.63936  0.34295  1.0000
  N   N22       1.0  0.73782  0.77332  0.41820  1.0000
  C   C154      1.0  0.72010  0.79102  0.42174  1.0000
  C   C155      1.0  0.76602  0.74514  0.34455  1.0000
  C   C156      1.0  0.77543  0.73574  0.42663  1.0000
  C   C157      1.0  0.79382  0.71736  0.42597  1.0000
  C   C158      1.0  0.80305  0.70813  0.34384  1.0000
  H   H88       1.0  0.76910  0.74206  0.48721  1.0000
  H   H89       1.0  0.80041  0.71076  0.48587  1.0000
  H   H90       1.0  0.71407  0.79705  0.48308  1.0000
  N   N23       1.0  0.73784  0.96673  0.41820  1.0000
  C   C159      1.0  0.72013  0.93130  0.42174  1.0000
  C   C160      1.0  0.76601  0.52311  0.34455  1.0000
  C   C161      1.0  0.77541  0.54192  0.42663  1.0000
  C   C162      1.0  0.79379  0.57869  0.42597  1.0000
  C   C163      1.0  0.80302  0.59715  0.34384  1.0000
  H   H91       1.0  0.76910  0.52928  0.48721  1.0000
  H   H92       1.0  0.80039  0.59188  0.48587  1.0000
  H   H93       1.0  0.71411  0.91924  0.48308  1.0000
  N   N24       1.0  0.54442  0.77333  0.41820  1.0000
  C   C164      1.0  0.57985  0.79105  0.42174  1.0000
  C   C165      1.0  0.98804  0.74513  0.34455  1.0000
  C   C166      1.0  0.96923  0.73573  0.42663  1.0000
  C   C167      1.0  0.93246  0.71734  0.42597  1.0000
  C   C168      1.0  0.91400  0.70811  0.34384  1.0000
  H   H94       1.0  0.98188  0.74205  0.48721  1.0000
  H   H95       1.0  0.91927  0.71075  0.48586  1.0000
  H   H96       1.0  0.59191  0.79708  0.48308  1.0000
