data_image0
_chemical_formula_structural       C3H2C3OH2C3OH2C3OH2C3HOHC3HOHC3HOHC21H13C24H15C24H15C24H15C3HOHC3HOHC3HOHC3OH2C3OH2C3OH2
_chemical_formula_sum              "C132 H84 O12"
_cell_length_a       45.8149
_cell_length_b       45.8148
_cell_length_c       14.9597
_cell_angle_alpha    90
_cell_angle_beta     90
_cell_angle_gamma    120

_space_group_name_H-M_alt    "P 1"
_space_group_IT_number       1

loop_
  _space_group_symop_operation_xyz
  'x, y, z'

loop_
  _atom_site_type_symbol
  _atom_site_label
  _atom_site_symmetry_multiplicity
  _atom_site_fract_x
  _atom_site_fract_y
  _atom_site_fract_z
  _atom_site_occupancy
  C   C1        1.0  0.01133  0.03259  0.33578  1.0000
  C   C2        1.0  0.02992  0.01551  0.33830  1.0000
  C   C3        1.0  0.01160  0.97984  0.34090  1.0000
  H   H1        1.0  0.02410  0.05831  0.33067  1.0000
  H   H2        1.0  0.02458  0.96708  0.34578  1.0000
  C   C4        1.0  0.19209  0.09729  0.25303  1.0000
  C   C5        1.0  0.22760  0.11468  0.24931  1.0000
  C   C6        1.0  0.24696  0.12414  0.32910  1.0000
  O   O1        1.0  0.24222  0.12141  0.16697  1.0000
  H   H3        1.0  0.17894  0.09110  0.19413  1.0000
  H   H4        1.0  0.24816  0.10389  0.15530  1.0000
  C   C7        1.0  0.89529  0.09703  0.24861  1.0000
  C   C8        1.0  0.87802  0.11527  0.24533  1.0000
  C   C9        1.0  0.86706  0.12355  0.32522  1.0000
  O   O2        1.0  0.87280  0.12486  0.16347  1.0000
  H   H5        1.0  0.90336  0.09199  0.18982  1.0000
  H   H6        1.0  0.89053  0.14851  0.15563  1.0000
  C   C10       1.0  0.89409  0.79911  0.25734  1.0000
  C   C11       1.0  0.87588  0.76360  0.25373  1.0000
  C   C12       1.0  0.86729  0.74427  0.33349  1.0000
  O   O3        1.0  0.86670  0.74892  0.17163  1.0000
  H   H7        1.0  0.89943  0.81227  0.19857  1.0000
  H   H8        1.0  0.84306  0.74290  0.16305  1.0000
  C   C13       1.0  0.55961  0.15961  0.25988  1.0000
  C   C14       1.0  0.59037  0.15957  0.25791  1.0000
  C   C15       1.0  0.60091  0.14856  0.33357  1.0000
  H   H9        1.0  0.55419  0.17062  0.20774  1.0000
  O   O4        1.0  0.61153  0.17494  0.18770  1.0000
  H   H10       1.0  0.60283  0.15887  0.13772  1.0000
  C   C16       1.0  0.83164  0.40074  0.26032  1.0000
  C   C17       1.0  0.83168  0.43155  0.25869  1.0000
  C   C18       1.0  0.84266  0.45303  0.33451  1.0000
  H   H11       1.0  0.82064  0.38437  0.20809  1.0000
  O   O5        1.0  0.81637  0.43745  0.18854  1.0000
  H   H12       1.0  0.83251  0.44494  0.13869  1.0000
  C   C19       1.0  0.59061  0.43171  0.26002  1.0000
  C   C20       1.0  0.55981  0.40094  0.25802  1.0000
  C   C21       1.0  0.53824  0.39039  0.33366  1.0000
  H   H13       1.0  0.60705  0.43712  0.20795  1.0000
  O   O6        1.0  0.55404  0.37976  0.18788  1.0000
  H   H14       1.0  0.54663  0.38841  0.13789  1.0000
  C   C22       1.0  0.97565  0.01520  0.33608  1.0000
  C   C23       1.0  0.97592  0.96125  0.34039  1.0000
  C   C24       1.0  0.95852  0.97953  0.33819  1.0000
  C   C25       1.0  0.06607  0.03371  0.33779  1.0000
  C   C26       1.0  0.08464  0.06322  0.38979  1.0000
  C   C27       1.0  0.12013  0.08112  0.38905  1.0000
  C   C28       1.0  0.13853  0.07017  0.33658  1.0000
  C   C29       1.0  0.12005  0.04081  0.28414  1.0000
  C   C30       1.0  0.08457  0.02294  0.28485  1.0000
  C   C31       1.0  0.95750  0.03319  0.33422  1.0000
  C   C32       1.0  0.96749  0.06208  0.38818  1.0000
  C   C33       1.0  0.94959  0.07966  0.38705  1.0000
  C   C34       1.0  0.92092  0.06904  0.33201  1.0000
  C   C35       1.0  0.91103  0.04036  0.27745  1.0000
  C   C36       1.0  0.92890  0.02274  0.27876  1.0000
  C   C37       1.0  0.95806  0.92510  0.34123  1.0000
  C   C38       1.0  0.92917  0.90647  0.39536  1.0000
  C   C39       1.0  0.91151  0.87098  0.39519  1.0000
  C   C40       1.0  0.92204  0.85265  0.34093  1.0000
  C   C41       1.0  0.95082  0.87119  0.28656  1.0000
  C   C42       1.0  0.96850  0.90667  0.28686  1.0000
  H   H15       1.0  0.95798  0.10061  0.42643  1.0000
  H   H16       1.0  0.98772  0.07038  0.43024  1.0000
  H   H17       1.0  0.89036  0.03173  0.23688  1.0000
  H   H18       1.0  0.92102  0.00235  0.23747  1.0000
  H   H19       1.0  0.92083  0.91862  0.43649  1.0000
  H   H20       1.0  0.89046  0.85859  0.43433  1.0000
  H   H21       1.0  0.98884  0.91894  0.24529  1.0000
  H   H22       1.0  0.95941  0.85896  0.24650  1.0000
  H   H23       1.0  0.07233  0.00213  0.24483  1.0000
  H   H24       1.0  0.13232  0.03191  0.24539  1.0000
  H   H25       1.0  0.13244  0.10259  0.42663  1.0000
  H   H26       1.0  0.07248  0.07184  0.42991  1.0000
  H   H27       1.0  0.93273  0.96653  0.33796  1.0000
  C   C43       1.0  0.44540  0.24996  0.34122  1.0000
  C   C44       1.0  0.40990  0.23172  0.33379  1.0000
  C   C45       1.0  0.39168  0.19596  0.32993  1.0000
  C   C46       1.0  0.41026  0.17876  0.33162  1.0000
  C   C47       1.0  0.44573  0.19629  0.33958  1.0000
  C   C48       1.0  0.46280  0.23181  0.34340  1.0000
  C   C49       1.0  0.35553  0.17772  0.32795  1.0000
  C   C50       1.0  0.33713  0.18860  0.27505  1.0000
  C   C51       1.0  0.30163  0.17106  0.27511  1.0000
  C   C52       1.0  0.28303  0.14181  0.32786  1.0000
  C   C53       1.0  0.30136  0.13090  0.38084  1.0000
  C   C54       1.0  0.33683  0.14849  0.38091  1.0000
  C   C55       1.0  0.46415  0.28579  0.34682  1.0000
  C   C56       1.0  0.46268  0.30615  0.27794  1.0000
  C   C57       1.0  0.48601  0.34102  0.27524  1.0000
  C   C58       1.0  0.51118  0.35651  0.34170  1.0000
  C   C59       1.0  0.51135  0.33634  0.41308  1.0000
  C   C60       1.0  0.48825  0.30158  0.41554  1.0000
  C   C61       1.0  0.46472  0.17947  0.34486  1.0000
  C   C62       1.0  0.48807  0.18715  0.41524  1.0000
  C   C63       1.0  0.51106  0.17535  0.41393  1.0000
  C   C64       1.0  0.51137  0.15527  0.34251  1.0000
  C   C65       1.0  0.48722  0.14662  0.27363  1.0000
  C   C66       1.0  0.46400  0.15830  0.27511  1.0000
  H   H28       1.0  0.48542  0.35477  0.22209  1.0000
  H   H29       1.0  0.44629  0.29541  0.22569  1.0000
  H   H30       1.0  0.52975  0.34631  0.46102  1.0000
  H   H31       1.0  0.49034  0.28757  0.46581  1.0000
  H   H32       1.0  0.48971  0.20289  0.46601  1.0000
  H   H33       1.0  0.52896  0.18337  0.46314  1.0000
  H   H34       1.0  0.44817  0.15315  0.22174  1.0000
  H   H35       1.0  0.48724  0.13281  0.21988  1.0000
  H   H36       1.0  0.34887  0.14000  0.42195  1.0000
  H   H37       1.0  0.28899  0.10981  0.41983  1.0000
  H   H38       1.0  0.28945  0.18027  0.23714  1.0000
  H   H39       1.0  0.34944  0.20943  0.23513  1.0000
  H   H40       1.0  0.39714  0.24477  0.33521  1.0000
  H   H41       1.0  0.48862  0.24480  0.34658  1.0000
  H   H42       1.0  0.39782  0.15299  0.32838  1.0000
  C   C67       1.0  0.74133  0.19606  0.34029  1.0000
  C   C68       1.0  0.75957  0.17881  0.33203  1.0000
  C   C69       1.0  0.79532  0.19639  0.32826  1.0000
  C   C70       1.0  0.81255  0.23216  0.33069  1.0000
  C   C71       1.0  0.79502  0.25009  0.33911  1.0000
  C   C72       1.0  0.75950  0.23162  0.34299  1.0000
  C   C73       1.0  0.81355  0.17851  0.32572  1.0000
  C   C74       1.0  0.80311  0.14982  0.27066  1.0000
  C   C75       1.0  0.82070  0.13191  0.26996  1.0000
  C   C76       1.0  0.84942  0.14194  0.32445  1.0000
  C   C77       1.0  0.85984  0.17053  0.37971  1.0000
  C   C78       1.0  0.84229  0.18845  0.38024  1.0000
  C   C79       1.0  0.70550  0.17898  0.34607  1.0000
  C   C80       1.0  0.68508  0.15715  0.27728  1.0000
  C   C81       1.0  0.65022  0.14564  0.27478  1.0000
  C   C82       1.0  0.63477  0.15528  0.34147  1.0000
  C   C83       1.0  0.65500  0.17560  0.41279  1.0000
  C   C84       1.0  0.68976  0.18723  0.41508  1.0000
  C   C85       1.0  0.81183  0.28589  0.34465  1.0000
  C   C86       1.0  0.80412  0.30149  0.41516  1.0000
  C   C87       1.0  0.81591  0.33629  0.41412  1.0000
  C   C88       1.0  0.83591  0.35672  0.34265  1.0000
  C   C89       1.0  0.84459  0.34130  0.27362  1.0000
  C   C90       1.0  0.83295  0.30640  0.27490  1.0000
  H   H43       1.0  0.63641  0.13127  0.22173  1.0000
  H   H44       1.0  0.69578  0.15151  0.22488  1.0000
  H   H45       1.0  0.64507  0.18403  0.46086  1.0000
  H   H46       1.0  0.70381  0.20336  0.46527  1.0000
  H   H47       1.0  0.78839  0.28734  0.46589  1.0000
  H   H48       1.0  0.80781  0.34610  0.46331  1.0000
  H   H49       1.0  0.83815  0.29579  0.22151  1.0000
  H   H50       1.0  0.85840  0.35518  0.21994  1.0000
  H   H51       1.0  0.85042  0.20856  0.42267  1.0000
  H   H52       1.0  0.88055  0.17874  0.42001  1.0000
  H   H53       1.0  0.81192  0.11100  0.23021  1.0000
  H   H54       1.0  0.78262  0.14177  0.22965  1.0000
  H   H55       1.0  0.74655  0.15301  0.33295  1.0000
  H   H56       1.0  0.74650  0.24443  0.34653  1.0000
  H   H57       1.0  0.83832  0.24548  0.32759  1.0000
  C   C91       1.0  0.79518  0.54595  0.34275  1.0000
  C   C92       1.0  0.81243  0.58147  0.33592  1.0000
  C   C93       1.0  0.79485  0.59965  0.33263  1.0000
  C   C94       1.0  0.75907  0.58107  0.33406  1.0000
  C   C95       1.0  0.74115  0.54557  0.34109  1.0000
  C   C96       1.0  0.75962  0.52852  0.34454  1.0000
  C   C97       1.0  0.81271  0.63579  0.33143  1.0000
  C   C98       1.0  0.84168  0.65433  0.27751  1.0000
  C   C99       1.0  0.85950  0.68982  0.27785  1.0000
  C   C100      1.0  0.84909  0.70823  0.33220  1.0000
  C   C101      1.0  0.82026  0.68978  0.38646  1.0000
  C   C102      1.0  0.80244  0.65431  0.38599  1.0000
  C   C103      1.0  0.81226  0.52720  0.34818  1.0000
  C   C104      1.0  0.83408  0.52868  0.27928  1.0000
  C   C105      1.0  0.84561  0.50535  0.27646  1.0000
  C   C106      1.0  0.83591  0.48013  0.34279  1.0000
  C   C107      1.0  0.81554  0.47991  0.41414  1.0000
  C   C108      1.0  0.80390  0.50303  0.41675  1.0000
  C   C109      1.0  0.70534  0.52654  0.34596  1.0000
  C   C110      1.0  0.68959  0.50303  0.41595  1.0000
  C   C111      1.0  0.65480  0.48006  0.41435  1.0000
  C   C112      1.0  0.63450  0.47987  0.34284  1.0000
  C   C113      1.0  0.65008  0.50411  0.27419  1.0000
  C   C114      1.0  0.68498  0.52736  0.27609  1.0000
  H   H58       1.0  0.86005  0.50603  0.22342  1.0000
  H   H59       1.0  0.83986  0.54521  0.22729  1.0000
  H   H60       1.0  0.80700  0.46142  0.46183  1.0000
  H   H61       1.0  0.78770  0.50084  0.46689  1.0000
  H   H62       1.0  0.70363  0.50136  0.46687  1.0000
  H   H63       1.0  0.64484  0.46211  0.46341  1.0000
  H   H64       1.0  0.69572  0.54331  0.22298  1.0000
  H   H65       1.0  0.63630  0.50422  0.22048  1.0000
  H   H66       1.0  0.78212  0.64211  0.42764  1.0000
  H   H67       1.0  0.81177  0.70207  0.42661  1.0000
  H   H68       1.0  0.88059  0.70215  0.23883  1.0000
  H   H69       1.0  0.84998  0.64211  0.23648  1.0000
  H   H70       1.0  0.83823  0.59426  0.33757  1.0000
  H   H71       1.0  0.74681  0.50269  0.34720  1.0000
  H   H72       1.0  0.74574  0.59352  0.33126  1.0000
  C   C115      1.0  0.22942  0.11506  0.41149  1.0000
  C   C116      1.0  0.19388  0.09777  0.41530  1.0000
  C   C117      1.0  0.17459  0.08834  0.33546  1.0000
  H   H73       1.0  0.24255  0.12133  0.47042  1.0000
  O   O7        1.0  0.17868  0.08795  0.49676  1.0000
  H   H74       1.0  0.18263  0.10848  0.52811  1.0000
  C   C118      1.0  0.87433  0.11322  0.40739  1.0000
  C   C119      1.0  0.89161  0.09501  0.41069  1.0000
  C   C120      1.0  0.90272  0.08687  0.33083  1.0000
  H   H75       1.0  0.86636  0.11834  0.46623  1.0000
  O   O8        1.0  0.89686  0.08550  0.49262  1.0000
  H   H76       1.0  0.87936  0.06176  0.50023  1.0000
  C   C121      1.0  0.87714  0.76177  0.41588  1.0000
  C   C122      1.0  0.89535  0.79728  0.41949  1.0000
  C   C123      1.0  0.90395  0.81661  0.33973  1.0000
  H   H77       1.0  0.87176  0.74860  0.47465  1.0000
  O   O9        1.0  0.90448  0.81196  0.50159  1.0000
  H   H78       1.0  0.92809  0.81792  0.51037  1.0000
  C   C124      1.0  0.57874  0.13542  0.40738  1.0000
  C   C125      1.0  0.54776  0.13494  0.40868  1.0000
  C   C126      1.0  0.53833  0.14825  0.33571  1.0000
  O   O10       1.0  0.52897  0.12393  0.48470  1.0000
  H   H79       1.0  0.58587  0.12761  0.46320  1.0000
  H   H80       1.0  0.50906  0.10215  0.46992  1.0000
  C   C127      1.0  0.85573  0.44387  0.40823  1.0000
  C   C128      1.0  0.85621  0.41337  0.40923  1.0000
  C   C129      1.0  0.84292  0.39071  0.33610  1.0000
  O   O11       1.0  0.86720  0.40550  0.48516  1.0000
  H   H81       1.0  0.86355  0.45875  0.46417  1.0000
  H   H82       1.0  0.88899  0.40740  0.47034  1.0000
  C   C130      1.0  0.54723  0.41258  0.40741  1.0000
  C   C131      1.0  0.57772  0.44357  0.40872  1.0000
  C   C132      1.0  0.60049  0.45300  0.33584  1.0000
  O   O12       1.0  0.58549  0.46236  0.48475  1.0000
  H   H83       1.0  0.53229  0.40545  0.46324  1.0000
  H   H84       1.0  0.58368  0.48230  0.46991  1.0000
