data_image0
_chemical_formula_structural       C7H2N2O4C7H2N2O4C7H2N2O4C2HC3HNH2NH2C2HC3HNH2NH2C2HC3HNH2NH2C2HC3HNH2NH2C2HC3HNH2NH2C2HC3HNH2NH2NC18H12NC18H12NC18H12NC18H12NC18H12NC18H12C2HC3HNH2NH2C2HC3HNH2NH2C2HC3HNH2NH2C7H2N2O4C7H2N2O4C7H2N2O4C7H2N2O4C7H2N2O4C7H2N2O4
_chemical_formula_sum              "C216 H144 N42 O36"
_cell_length_a       68.7072
_cell_length_b       68.7072
_cell_length_c       14.8864
_cell_angle_alpha    90
_cell_angle_beta     90
_cell_angle_gamma    120

_space_group_name_H-M_alt    "P 1"
_space_group_IT_number       1

loop_
  _space_group_symop_operation_xyz
  'x, y, z'

loop_
  _atom_site_type_symbol
  _atom_site_label
  _atom_site_symmetry_multiplicity
  _atom_site_fract_x
  _atom_site_fract_y
  _atom_site_fract_z
  _atom_site_occupancy
  C   C1        1.0  0.94525  0.47396  0.34017  1.0000
  C   C2        1.0  0.95796  0.46659  0.28980  1.0000
  C   C3        1.0  0.98179  0.47910  0.29210  1.0000
  C   C4        1.0  0.99363  0.49887  0.34386  1.0000
  C   C5        1.0  0.01771  0.51040  0.34318  1.0000
  C   C6        1.0  0.03044  0.52587  0.27466  1.0000
  C   C7        1.0  0.05424  0.53694  0.27780  1.0000
  H   H1        1.0  0.06306  0.54849  0.22878  1.0000
  H   H2        1.0  0.99062  0.47340  0.25591  1.0000
  N   N1        1.0  0.01903  0.53002  0.20467  1.0000
  N   N2        1.0  0.94673  0.44627  0.24041  1.0000
  O   O1        1.0  0.02339  0.52477  0.12951  1.0000
  O   O2        1.0  0.95149  0.43195  0.26912  1.0000
  O   O3        1.0  0.02414  0.55031  0.20254  1.0000
  O   O4        1.0  0.95148  0.44946  0.15822  1.0000
  C   C8        1.0  0.53558  0.47321  0.34014  1.0000
  C   C9        1.0  0.54295  0.49329  0.28977  1.0000
  C   C10       1.0  0.53044  0.50461  0.29210  1.0000
  C   C11       1.0  0.51066  0.49667  0.34386  1.0000
  C   C12       1.0  0.49913  0.50923  0.34319  1.0000
  C   C13       1.0  0.48364  0.50646  0.27477  1.0000
  C   C14       1.0  0.47257  0.51919  0.27791  1.0000
  H   H3        1.0  0.46100  0.51645  0.22895  1.0000
  H   H4        1.0  0.53613  0.51914  0.25588  1.0000
  N   N3        1.0  0.47946  0.49087  0.20485  1.0000
  N   N4        1.0  0.56326  0.50237  0.24035  1.0000
  O   O5        1.0  0.48468  0.50045  0.12963  1.0000
  O   O6        1.0  0.57759  0.52145  0.26904  1.0000
  O   O7        1.0  0.45916  0.47569  0.20287  1.0000
  O   O8        1.0  0.56006  0.50393  0.15816  1.0000
  C   C15       1.0  0.53633  0.06427  0.34016  1.0000
  C   C16       1.0  0.51625  0.05156  0.28979  1.0000
  C   C17       1.0  0.50493  0.02773  0.29209  1.0000
  C   C18       1.0  0.51287  0.01589  0.34386  1.0000
  C   C19       1.0  0.50030  0.99180  0.34318  1.0000
  C   C20       1.0  0.50306  0.97908  0.27471  1.0000
  C   C21       1.0  0.49033  0.95528  0.27785  1.0000
  H   H5        1.0  0.49306  0.94645  0.22886  1.0000
  H   H6        1.0  0.49040  0.01890  0.25589  1.0000
  N   N5        1.0  0.51862  0.99048  0.20474  1.0000
  N   N6        1.0  0.50717  0.06279  0.24039  1.0000
  O   O9        1.0  0.50903  0.98612  0.12956  1.0000
  O   O10       1.0  0.48809  0.05804  0.26908  1.0000
  O   O11       1.0  0.53380  0.98537  0.20267  1.0000
  O   O12       1.0  0.50561  0.05804  0.15819  1.0000
  C   C22       1.0  0.30742  0.56848  0.25703  1.0000
  C   C23       1.0  0.32710  0.56684  0.24740  1.0000
  H   H7        1.0  0.33621  0.57316  0.18979  1.0000
  C   C24       1.0  0.23064  0.55912  0.36096  1.0000
  C   C25       1.0  0.23727  0.55403  0.27705  1.0000
  C   C26       1.0  0.25650  0.55144  0.27379  1.0000
  H   H8        1.0  0.26052  0.54692  0.21407  1.0000
  N   N7        1.0  0.30388  0.58101  0.19506  1.0000
  H   H9        1.0  0.31455  0.58867  0.14662  1.0000
  H   H10       1.0  0.29287  0.58568  0.20511  1.0000
  N   N8        1.0  0.22720  0.55316  0.19700  1.0000
  H   H11       1.0  0.23282  0.55059  0.14076  1.0000
  H   H12       1.0  0.21686  0.55879  0.19099  1.0000
  C   C27       1.0  0.44114  0.74091  0.25694  1.0000
  C   C28       1.0  0.44279  0.76223  0.24729  1.0000
  H   H13       1.0  0.43646  0.76502  0.18968  1.0000
  C   C29       1.0  0.45044  0.67346  0.36092  1.0000
  C   C30       1.0  0.45556  0.68519  0.27702  1.0000
  C   C31       1.0  0.45820  0.70704  0.27381  1.0000
  H   H14       1.0  0.46272  0.71558  0.21407  1.0000
  N   N9        1.0  0.42864  0.72484  0.19489  1.0000
  H   H15       1.0  0.42099  0.72785  0.14639  1.0000
  H   H16       1.0  0.42397  0.70917  0.20491  1.0000
  N   N10       1.0  0.45645  0.67599  0.19698  1.0000
  H   H17       1.0  0.45883  0.68415  0.14080  1.0000
  H   H18       1.0  0.45051  0.65996  0.19115  1.0000
  C   C32       1.0  0.26869  0.70210  0.25707  1.0000
  C   C33       1.0  0.24738  0.68241  0.24741  1.0000
  H   H19       1.0  0.24460  0.67330  0.18983  1.0000
  C   C34       1.0  0.33609  0.77890  0.36091  1.0000
  C   C35       1.0  0.32437  0.77226  0.27698  1.0000
  C   C36       1.0  0.30255  0.75303  0.27373  1.0000
  H   H20       1.0  0.29401  0.74899  0.21399  1.0000
  N   N11       1.0  0.28478  0.70564  0.19517  1.0000
  H   H21       1.0  0.28179  0.69497  0.14676  1.0000
  H   H22       1.0  0.30045  0.71665  0.20525  1.0000
  N   N12       1.0  0.33358  0.78229  0.19690  1.0000
  H   H23       1.0  0.32540  0.77666  0.14065  1.0000
  H   H24       1.0  0.34956  0.79262  0.19089  1.0000
  C   C37       1.0  0.70418  0.44031  0.25780  1.0000
  C   C38       1.0  0.68438  0.44175  0.24857  1.0000
  H   H25       1.0  0.67530  0.43547  0.19088  1.0000
  C   C39       1.0  0.78096  0.44968  0.36101  1.0000
  C   C40       1.0  0.77433  0.45490  0.27735  1.0000
  C   C41       1.0  0.75516  0.45760  0.27458  1.0000
  H   H26       1.0  0.75112  0.46218  0.21501  1.0000
  N   N13       1.0  0.70788  0.42801  0.19524  1.0000
  H   H27       1.0  0.69724  0.42038  0.14668  1.0000
  H   H28       1.0  0.71896  0.42343  0.20496  1.0000
  N   N14       1.0  0.78435  0.45581  0.19712  1.0000
  H   H29       1.0  0.77856  0.45826  0.14112  1.0000
  H   H30       1.0  0.79435  0.44978  0.19090  1.0000
  C   C42       1.0  0.56928  0.26580  0.25789  1.0000
  C   C43       1.0  0.56788  0.24458  0.24872  1.0000
  H   H31       1.0  0.57415  0.24177  0.19102  1.0000
  C   C44       1.0  0.55987  0.33319  0.36096  1.0000
  C   C45       1.0  0.55467  0.32135  0.27731  1.0000
  C   C46       1.0  0.55201  0.29949  0.27450  1.0000
  H   H32       1.0  0.54744  0.29087  0.21495  1.0000
  N   N15       1.0  0.58161  0.28181  0.19539  1.0000
  H   H33       1.0  0.58927  0.27881  0.14689  1.0000
  H   H34       1.0  0.58619  0.29747  0.20512  1.0000
  N   N16       1.0  0.55380  0.33045  0.19703  1.0000
  H   H35       1.0  0.55116  0.32218  0.14099  1.0000
  H   H36       1.0  0.55954  0.34644  0.19060  1.0000
  C   C47       1.0  0.74375  0.30536  0.25786  1.0000
  C   C48       1.0  0.76498  0.32516  0.24865  1.0000
  H   H37       1.0  0.76778  0.33424  0.19097  1.0000
  C   C49       1.0  0.67635  0.22856  0.36099  1.0000
  C   C50       1.0  0.68820  0.23520  0.27734  1.0000
  C   C51       1.0  0.71008  0.25438  0.27459  1.0000
  H   H38       1.0  0.71869  0.25841  0.21502  1.0000
  N   N17       1.0  0.72775  0.30165  0.19529  1.0000
  H   H39       1.0  0.73075  0.31229  0.14674  1.0000
  H   H40       1.0  0.71209  0.29056  0.20500  1.0000
  N   N18       1.0  0.67910  0.22518  0.19709  1.0000
  H   H41       1.0  0.68734  0.23098  0.14110  1.0000
  H   H42       1.0  0.66306  0.21518  0.19084  1.0000
  N   N19       1.0  0.16260  0.58208  0.34299  1.0000
  C   C52       1.0  0.17544  0.60505  0.31368  1.0000
  C   C53       1.0  0.13863  0.57020  0.34322  1.0000
  C   C54       1.0  0.17502  0.57148  0.37159  1.0000
  C   C55       1.0  0.19370  0.58316  0.42942  1.0000
  C   C56       1.0  0.21172  0.57890  0.42648  1.0000
  C   C57       1.0  0.21094  0.56141  0.37290  1.0000
  C   C58       1.0  0.19023  0.54713  0.32920  1.0000
  C   C59       1.0  0.17311  0.55273  0.32460  1.0000
  C   C60       1.0  0.17315  0.62218  0.35610  1.0000
  C   C61       1.0  0.19006  0.64496  0.34873  1.0000
  C   C62       1.0  0.21107  0.65155  0.30696  1.0000
  C   C63       1.0  0.21235  0.63422  0.25967  1.0000
  C   C64       1.0  0.19457  0.61182  0.25888  1.0000
  C   C65       1.0  0.12656  0.56946  0.42109  1.0000
  C   C66       1.0  0.10284  0.55761  0.42161  1.0000
  C   C67       1.0  0.09030  0.54535  0.34546  1.0000
  C   C68       1.0  0.10260  0.54641  0.26730  1.0000
  C   C69       1.0  0.12632  0.55873  0.26597  1.0000
  H   H43       1.0  0.18714  0.65652  0.37937  1.0000
  H   H44       1.0  0.15961  0.61808  0.39649  1.0000
  H   H45       1.0  0.19731  0.59994  0.22948  1.0000
  H   H46       1.0  0.22697  0.63716  0.23003  1.0000
  H   H47       1.0  0.19616  0.59739  0.46137  1.0000
  H   H48       1.0  0.22623  0.59007  0.45850  1.0000
  H   H49       1.0  0.13506  0.57777  0.47778  1.0000
  H   H50       1.0  0.09473  0.55784  0.47891  1.0000
  H   H51       1.0  0.09434  0.53790  0.21053  1.0000
  H   H52       1.0  0.13464  0.55902  0.20860  1.0000
  H   H53       1.0  0.16002  0.54401  0.28135  1.0000
  H   H54       1.0  0.18832  0.53373  0.29227  1.0000
  N   N20       1.0  0.42743  0.58240  0.34312  1.0000
  C   C70       1.0  0.40446  0.57226  0.31378  1.0000
  C   C71       1.0  0.43932  0.57033  0.34331  1.0000
  C   C72       1.0  0.43806  0.60546  0.37145  1.0000
  C   C73       1.0  0.42635  0.61247  0.42901  1.0000
  C   C74       1.0  0.43067  0.63477  0.42650  1.0000
  C   C75       1.0  0.44814  0.65146  0.37283  1.0000
  C   C76       1.0  0.46238  0.64502  0.32894  1.0000
  C   C77       1.0  0.45680  0.62229  0.32446  1.0000
  C   C78       1.0  0.38734  0.55287  0.35630  1.0000
  C   C79       1.0  0.36456  0.54701  0.34901  1.0000
  C   C80       1.0  0.35796  0.56140  0.30702  1.0000
  C   C81       1.0  0.37529  0.57998  0.25962  1.0000
  C   C82       1.0  0.39769  0.58461  0.25886  1.0000
  C   C83       1.0  0.44005  0.55898  0.42114  1.0000
  C   C84       1.0  0.45191  0.54712  0.42164  1.0000
  C   C85       1.0  0.46419  0.54686  0.34552  1.0000
  C   C86       1.0  0.46314  0.55812  0.26739  1.0000
  C   C87       1.0  0.45081  0.56951  0.26607  1.0000
  H   H55       1.0  0.35300  0.53252  0.37957  1.0000
  H   H56       1.0  0.39144  0.54344  0.39675  1.0000
  H   H57       1.0  0.40957  0.59921  0.22937  1.0000
  H   H58       1.0  0.37235  0.59166  0.22985  1.0000
  H   H59       1.0  0.41220  0.60071  0.46151  1.0000
  H   H60       1.0  0.41952  0.63812  0.45872  1.0000
  H   H61       1.0  0.43173  0.55916  0.47781  1.0000
  H   H62       1.0  0.45167  0.53876  0.47891  1.0000
  H   H63       1.0  0.47166  0.55838  0.21062  1.0000
  H   H64       1.0  0.45053  0.57755  0.20872  1.0000
  H   H65       1.0  0.46549  0.61792  0.28107  1.0000
  H   H66       1.0  0.47577  0.65648  0.29191  1.0000
  N   N21       1.0  0.42713  0.84692  0.34318  1.0000
  C   C88       1.0  0.43728  0.83410  0.31389  1.0000
  C   C89       1.0  0.43920  0.87089  0.34335  1.0000
  C   C90       1.0  0.40407  0.83448  0.37146  1.0000
  C   C91       1.0  0.39707  0.81578  0.42906  1.0000
  C   C92       1.0  0.37478  0.79778  0.42636  1.0000
  C   C93       1.0  0.35808  0.79859  0.37280  1.0000
  C   C94       1.0  0.36453  0.81929  0.32898  1.0000
  C   C95       1.0  0.38726  0.83642  0.32444  1.0000
  C   C96       1.0  0.45667  0.83639  0.35646  1.0000
  C   C97       1.0  0.46254  0.81948  0.34912  1.0000
  C   C98       1.0  0.44818  0.79850  0.30704  1.0000
  C   C99       1.0  0.42960  0.79725  0.25956  1.0000
  C   C100      1.0  0.42495  0.81501  0.25882  1.0000
  C   C101      1.0  0.45051  0.88296  0.42123  1.0000
  C   C102      1.0  0.46239  0.90669  0.42170  1.0000
  C   C103      1.0  0.46267  0.91922  0.34552  1.0000
  C   C104      1.0  0.45144  0.90691  0.26736  1.0000
  C   C105      1.0  0.44005  0.88319  0.26607  1.0000
  H   H67       1.0  0.47703  0.82241  0.37973  1.0000
  H   H68       1.0  0.46609  0.84991  0.39697  1.0000
  H   H69       1.0  0.41035  0.81229  0.22930  1.0000
  H   H70       1.0  0.41794  0.78264  0.22971  1.0000
  H   H71       1.0  0.40883  0.81339  0.46159  1.0000
  H   H72       1.0  0.37141  0.78331  0.45877  1.0000
  H   H73       1.0  0.45032  0.87447  0.47794  1.0000
  H   H74       1.0  0.47071  0.91480  0.47901  1.0000
  H   H75       1.0  0.45119  0.91517  0.21055  1.0000
  H   H76       1.0  0.43203  0.87486  0.20869  1.0000
  H   H77       1.0  0.39164  0.84949  0.28107  1.0000
  H   H78       1.0  0.35307  0.82122  0.29192  1.0000
  N   N22       1.0  0.84871  0.42614  0.34431  1.0000
  C   C106      1.0  0.83593  0.40309  0.31610  1.0000
  C   C107      1.0  0.87267  0.43811  0.34305  1.0000
  C   C108      1.0  0.83622  0.43676  0.37161  1.0000
  C   C109      1.0  0.81753  0.42522  0.42937  1.0000
  C   C110      1.0  0.79964  0.42967  0.42638  1.0000
  C   C111      1.0  0.80056  0.44718  0.37250  1.0000
  C   C112      1.0  0.82126  0.46124  0.32825  1.0000
  C   C113      1.0  0.83826  0.45544  0.32378  1.0000
  C   C114      1.0  0.83849  0.38626  0.35958  1.0000
  C   C115      1.0  0.82185  0.36337  0.35236  1.0000
  C   C116      1.0  0.80088  0.35640  0.30951  1.0000
  C   C117      1.0  0.79934  0.37351  0.26160  1.0000
  C   C118      1.0  0.81686  0.39602  0.26065  1.0000
  C   C119      1.0  0.88508  0.44445  0.42384  1.0000
  C   C120      1.0  0.90880  0.45616  0.42273  1.0000
  C   C121      1.0  0.92101  0.46198  0.34088  1.0000
  C   C122      1.0  0.90835  0.45579  0.26016  1.0000
  C   C123      1.0  0.88462  0.44395  0.26117  1.0000
  H   H79       1.0  0.82496  0.35201  0.38363  1.0000
  H   H80       1.0  0.85204  0.39069  0.40044  1.0000
  H   H81       1.0  0.81399  0.40776  0.23075  1.0000
  H   H82       1.0  0.78470  0.37031  0.23136  1.0000
  H   H83       1.0  0.81508  0.41112  0.46239  1.0000
  H   H84       1.0  0.78516  0.41867  0.45902  1.0000
  H   H85       1.0  0.87683  0.44037  0.48409  1.0000
  H   H86       1.0  0.91715  0.46012  0.48282  1.0000
  H   H87       1.0  0.91634  0.46012  0.19937  1.0000
  H   H88       1.0  0.87604  0.43976  0.20167  1.0000
  H   H89       1.0  0.85137  0.46396  0.28031  1.0000
  H   H90       1.0  0.82327  0.47460  0.29085  1.0000
  N   N23       1.0  0.58341  0.42449  0.34425  1.0000
  C   C124      1.0  0.60645  0.43477  0.31602  1.0000
  C   C125      1.0  0.57143  0.43648  0.34300  1.0000
  C   C126      1.0  0.57280  0.40138  0.37163  1.0000
  C   C127      1.0  0.58435  0.39422  0.42927  1.0000
  C   C128      1.0  0.57989  0.37188  0.42627  1.0000
  C   C129      1.0  0.56237  0.35529  0.37247  1.0000
  C   C130      1.0  0.54832  0.36195  0.32824  1.0000
  C   C131      1.0  0.55410  0.38474  0.32386  1.0000
  C   C132      1.0  0.62328  0.45417  0.35945  1.0000
  C   C133      1.0  0.64616  0.46040  0.35227  1.0000
  C   C134      1.0  0.65314  0.44641  0.30940  1.0000
  C   C135      1.0  0.63603  0.42776  0.26147  1.0000
  C   C136      1.0  0.61352  0.42277  0.26054  1.0000
  C   C137      1.0  0.56509  0.44255  0.42380  1.0000
  C   C138      1.0  0.55339  0.45458  0.42269  1.0000
  C   C139      1.0  0.54755  0.46094  0.34085  1.0000
  C   C140      1.0  0.55374  0.45447  0.26013  1.0000
  C   C141      1.0  0.56558  0.44259  0.26112  1.0000
  H   H91       1.0  0.65753  0.47487  0.38358  1.0000
  H   H92       1.0  0.61885  0.46326  0.40044  1.0000
  H   H93       1.0  0.60178  0.40816  0.23065  1.0000
  H   H94       1.0  0.63923  0.41632  0.23122  1.0000
  H   H95       1.0  0.59846  0.40588  0.46225  1.0000
  H   H96       1.0  0.59090  0.36840  0.45886  1.0000
  H   H97       1.0  0.56918  0.43839  0.48405  1.0000
  H   H98       1.0  0.54943  0.45896  0.48278  1.0000
  H   H99       1.0  0.54939  0.45811  0.19934  1.0000
  H   H100      1.0  0.56976  0.43818  0.20163  1.0000
  H   H101      1.0  0.54556  0.38932  0.28048  1.0000
  H   H102      1.0  0.53492  0.35059  0.29102  1.0000
  N   N24       1.0  0.58506  0.16081  0.34433  1.0000
  C   C142      1.0  0.57481  0.17360  0.31607  1.0000
  C   C143      1.0  0.57306  0.13685  0.34306  1.0000
  C   C144      1.0  0.60818  0.17329  0.37166  1.0000
  C   C145      1.0  0.61533  0.19197  0.42953  1.0000
  C   C146      1.0  0.63766  0.20986  0.42638  1.0000
  C   C147      1.0  0.65425  0.20896  0.37247  1.0000
  C   C148      1.0  0.64759  0.18827  0.32807  1.0000
  C   C149      1.0  0.62481  0.17124  0.32384  1.0000
  C   C150      1.0  0.55539  0.17102  0.35941  1.0000
  C   C151      1.0  0.54916  0.18767  0.35223  1.0000
  C   C152      1.0  0.56318  0.20866  0.30948  1.0000
  C   C153      1.0  0.58184  0.21020  0.26165  1.0000
  C   C154      1.0  0.58683  0.19268  0.26069  1.0000
  C   C155      1.0  0.56699  0.12443  0.42384  1.0000
  C   C156      1.0  0.55496  0.10071  0.42273  1.0000
  C   C157      1.0  0.54859  0.08851  0.34088  1.0000
  C   C158      1.0  0.55507  0.10117  0.26016  1.0000
  C   C159      1.0  0.56695  0.12490  0.26117  1.0000
  H   H103      1.0  0.53469  0.18457  0.38346  1.0000
  H   H104      1.0  0.54628  0.15749  0.40033  1.0000
  H   H105      1.0  0.60145  0.19555  0.23086  1.0000
  H   H106      1.0  0.59330  0.22485  0.23148  1.0000
  H   H107      1.0  0.60363  0.19439  0.46235  1.0000
  H   H108      1.0  0.64113  0.22434  0.45902  1.0000
  H   H109      1.0  0.57115  0.13268  0.48410  1.0000
  H   H110      1.0  0.55058  0.09237  0.48281  1.0000
  H   H111      1.0  0.55142  0.09318  0.19937  1.0000
  H   H112      1.0  0.57136  0.13348  0.20167  1.0000
  H   H113      1.0  0.62021  0.15814  0.28030  1.0000
  H   H114      1.0  0.65895  0.18624  0.29086  1.0000
  C   C160      1.0  0.98112  0.50639  0.39487  1.0000
  C   C161      1.0  0.95728  0.49379  0.39200  1.0000
  H   H115      1.0  0.94841  0.49949  0.42793  1.0000
  C   C162      1.0  0.06605  0.53286  0.34653  1.0000
  C   C163      1.0  0.05311  0.51669  0.41394  1.0000
  C   C164      1.0  0.02929  0.50615  0.41182  1.0000
  H   H116      1.0  0.02006  0.49460  0.46034  1.0000
  N   N25       1.0  0.99123  0.52534  0.44604  1.0000
  H   H117      1.0  0.98245  0.53031  0.48041  1.0000
  H   H118      1.0  0.00747  0.53464  0.44962  1.0000
  N   N26       1.0  0.06254  0.51012  0.47910  1.0000
  H   H119      1.0  0.05330  0.49855  0.52254  1.0000
  H   H120      1.0  0.07842  0.51490  0.47885  1.0000
  C   C165      1.0  0.50315  0.47665  0.39488  1.0000
  C   C166      1.0  0.51574  0.46540  0.39199  1.0000
  H   H121      1.0  0.51006  0.45084  0.42794  1.0000
  C   C167      1.0  0.47668  0.53510  0.34658  1.0000
  C   C168      1.0  0.49287  0.53836  0.41390  1.0000
  C   C169      1.0  0.50342  0.52509  0.41174  1.0000
  H   H122      1.0  0.51499  0.52742  0.46020  1.0000
  N   N27       1.0  0.48420  0.46781  0.44606  1.0000
  H   H123      1.0  0.47924  0.45407  0.48044  1.0000
  H   H124      1.0  0.47491  0.47475  0.44968  1.0000
  N   N28       1.0  0.49947  0.55438  0.47897  1.0000
  H   H125      1.0  0.51093  0.55663  0.52280  1.0000
  H   H126      1.0  0.49456  0.56538  0.47928  1.0000
  C   C170      1.0  0.53289  0.02840  0.39488  1.0000
  C   C171      1.0  0.54414  0.05224  0.39200  1.0000
  H   H127      1.0  0.55870  0.06111  0.42795  1.0000
  C   C172      1.0  0.47442  0.94347  0.34656  1.0000
  C   C173      1.0  0.47118  0.95641  0.41393  1.0000
  C   C174      1.0  0.48446  0.98023  0.41180  1.0000
  H   H128      1.0  0.48214  0.98947  0.46029  1.0000
  N   N29       1.0  0.54173  0.01829  0.44606  1.0000
  H   H129      1.0  0.55547  0.02706  0.48044  1.0000
  H   H130      1.0  0.53478  0.00205  0.44964  1.0000
  N   N30       1.0  0.45518  0.94699  0.47906  1.0000
  H   H131      1.0  0.45284  0.95622  0.52247  1.0000
  H   H132      1.0  0.44407  0.93110  0.47880  1.0000
  C   C175      1.0  0.33546  0.55843  0.31537  1.0000
  C   C176      1.0  0.32152  0.54925  0.39279  1.0000
  C   C177      1.0  0.30030  0.54801  0.39704  1.0000
  C   C178      1.0  0.29310  0.55819  0.33259  1.0000
  C   C179      1.0  0.27192  0.55758  0.34584  1.0000
  C   C180      1.0  0.26586  0.56361  0.42823  1.0000
  C   C181      1.0  0.24508  0.56318  0.43536  1.0000
  H   H133      1.0  0.24102  0.56690  0.49663  1.0000
  H   H134      1.0  0.29034  0.54024  0.45152  1.0000
  N   N31       1.0  0.28093  0.57104  0.50203  1.0000
  N   N32       1.0  0.32894  0.54248  0.46926  1.0000
  O   O13       1.0  0.27239  0.55892  0.57029  1.0000
  O   O14       1.0  0.33093  0.55422  0.53717  1.0000
  O   O15       1.0  0.28719  0.59106  0.52245  1.0000
  O   O16       1.0  0.31607  0.52211  0.48825  1.0000
  C   C182      1.0  0.45114  0.77897  0.31537  1.0000
  C   C183      1.0  0.46032  0.77421  0.39281  1.0000
  C   C184      1.0  0.46159  0.75425  0.39701  1.0000
  C   C185      1.0  0.45142  0.73687  0.33254  1.0000
  C   C186      1.0  0.45201  0.71629  0.34581  1.0000
  C   C187      1.0  0.44595  0.70419  0.42817  1.0000
  C   C188      1.0  0.44638  0.68385  0.43530  1.0000
  H   H135      1.0  0.44264  0.67605  0.49655  1.0000
  H   H136      1.0  0.46932  0.75204  0.45157  1.0000
  N   N33       1.0  0.43850  0.71183  0.50191  1.0000
  N   N34       1.0  0.46704  0.78837  0.46936  1.0000
  O   O17       1.0  0.45060  0.71539  0.57025  1.0000
  O   O18       1.0  0.45527  0.77858  0.53717  1.0000
  O   O19       1.0  0.41846  0.69805  0.52221  1.0000
  O   O20       1.0  0.48740  0.79589  0.48851  1.0000
  C   C189      1.0  0.23060  0.67405  0.31535  1.0000
  C   C190      1.0  0.23533  0.68800  0.39271  1.0000
  C   C191      1.0  0.25530  0.70923  0.39696  1.0000
  C   C192      1.0  0.27270  0.71643  0.33257  1.0000
  C   C193      1.0  0.29326  0.73762  0.34582  1.0000
  C   C194      1.0  0.30534  0.74370  0.42824  1.0000
  C   C195      1.0  0.32568  0.76448  0.43534  1.0000
  H   H137      1.0  0.33346  0.76855  0.49663  1.0000
  H   H138      1.0  0.25748  0.71920  0.45139  1.0000
  N   N35       1.0  0.29768  0.72865  0.50209  1.0000
  N   N36       1.0  0.22112  0.68058  0.46913  1.0000
  O   O21       1.0  0.29409  0.73720  0.57028  1.0000
  O   O22       1.0  0.23087  0.67861  0.53711  1.0000
  O   O23       1.0  0.31145  0.72240  0.52263  1.0000
  O   O24       1.0  0.21361  0.69345  0.48801  1.0000
  C   C196      1.0  0.67580  0.44976  0.31725  1.0000
  C   C197      1.0  0.68972  0.45894  0.39469  1.0000
  C   C198      1.0  0.71109  0.46050  0.39846  1.0000
  C   C199      1.0  0.71845  0.45057  0.33352  1.0000
  C   C200      1.0  0.73970  0.45130  0.34660  1.0000
  C   C201      1.0  0.74578  0.44518  0.42874  1.0000
  C   C202      1.0  0.76656  0.44564  0.43558  1.0000
  H   H139      1.0  0.77063  0.44187  0.49673  1.0000
  H   H140      1.0  0.72101  0.46822  0.45310  1.0000
  N   N37       1.0  0.73069  0.43760  0.50251  1.0000
  N   N38       1.0  0.68215  0.46538  0.47166  1.0000
  O   O25       1.0  0.73920  0.44961  0.57108  1.0000
  O   O26       1.0  0.68034  0.45356  0.53908  1.0000
  O   O27       1.0  0.72447  0.41754  0.52232  1.0000
  O   O28       1.0  0.69480  0.48575  0.49124  1.0000
  C   C203      1.0  0.55984  0.22797  0.31734  1.0000
  C   C204      1.0  0.55062  0.23270  0.39471  1.0000
  C   C205      1.0  0.54908  0.25251  0.39848  1.0000
  C   C206      1.0  0.55901  0.26981  0.33356  1.0000
  C   C207      1.0  0.55827  0.29032  0.34660  1.0000
  C   C208      1.0  0.56434  0.30250  0.42877  1.0000
  C   C209      1.0  0.56388  0.32283  0.43557  1.0000
  H   H141      1.0  0.56763  0.33066  0.49674  1.0000
  H   H142      1.0  0.54130  0.25468  0.45301  1.0000
  N   N39       1.0  0.57189  0.29499  0.50262  1.0000
  N   N40       1.0  0.54413  0.21866  0.47160  1.0000
  O   O29       1.0  0.55985  0.29147  0.57108  1.0000
  O   O30       1.0  0.55591  0.22864  0.53914  1.0000
  O   O31       1.0  0.59193  0.30882  0.52257  1.0000
  O   O32       1.0  0.52375  0.21094  0.49098  1.0000
  C   C210      1.0  0.78157  0.33374  0.31735  1.0000
  C   C211      1.0  0.77683  0.31981  0.39476  1.0000
  C   C212      1.0  0.75703  0.29844  0.39850  1.0000
  C   C213      1.0  0.73973  0.29107  0.33357  1.0000
  C   C214      1.0  0.71922  0.26982  0.34662  1.0000
  C   C215      1.0  0.70703  0.26375  0.42875  1.0000
  C   C216      1.0  0.68670  0.24296  0.43557  1.0000
  H   H143      1.0  0.67886  0.23888  0.49672  1.0000
  H   H144      1.0  0.75484  0.28852  0.45312  1.0000
  N   N41       1.0  0.71452  0.27882  0.50254  1.0000
  N   N42       1.0  0.79085  0.32738  0.47172  1.0000
  O   O33       1.0  0.71803  0.27032  0.57109  1.0000
  O   O34       1.0  0.78083  0.32917  0.53917  1.0000
  O   O35       1.0  0.70069  0.28504  0.52235  1.0000
  O   O36       1.0  0.79858  0.31473  0.49126  1.0000
