data_image0
_chemical_formula_structural       C10H5C6H3N2C10H5C6H3N2C10H5C6H3N2C10H5C6H3N2C7H3NO2CHC7H3NO2CHC7H3NO2CHC2HC3HC2H4CHC2HC3HC2H4CHC2HC3HC2H4CHC8H7NC8H7NC8H7NC8H7NC2HC3HC2H4CHC2HC3HC2H4CHC2HC3HC2H4CHC7H3NO2CHC7H3NO2CHC7H3NO2CH
_chemical_formula_sum              "C192 H126 N18 O12"
_cell_length_a       68.2256
_cell_length_b       68.2106
_cell_length_c       14.9829
_cell_angle_alpha    90
_cell_angle_beta     90
_cell_angle_gamma    120.006

_space_group_name_H-M_alt    "P 1"
_space_group_IT_number       1

loop_
  _space_group_symop_operation_xyz
  'x, y, z'

loop_
  _atom_site_type_symbol
  _atom_site_label
  _atom_site_symmetry_multiplicity
  _atom_site_fract_x
  _atom_site_fract_y
  _atom_site_fract_z
  _atom_site_occupancy
  C   C1        1.0  0.97030  0.02174  0.33772  1.0000
  C   C2        1.0  0.04281  0.02166  0.34422  1.0000
  C   C3        1.0  0.97682  0.03988  0.27708  1.0000
  C   C4        1.0  0.96474  0.05157  0.27161  1.0000
  C   C5        1.0  0.94567  0.04544  0.32657  1.0000
  C   C6        1.0  0.96523  0.91368  0.27683  1.0000
  C   C7        1.0  0.97714  0.93747  0.28126  1.0000
  C   C8        1.0  0.05477  0.01510  0.28552  1.0000
  C   C9        1.0  0.07856  0.02719  0.28188  1.0000
  C   C10       1.0  0.09121  0.04638  0.33666  1.0000
  H   H1        1.0  0.97009  0.06466  0.22732  1.0000
  H   H2        1.0  0.99083  0.94617  0.24027  1.0000
  H   H3        1.0  0.97098  0.90587  0.23465  1.0000
  H   H4        1.0  0.04624  0.00166  0.24317  1.0000
  H   H5        1.0  0.08651  0.02182  0.23878  1.0000
  C   C11       1.0  0.01861  0.00962  0.34575  1.0000
  C   C12       1.0  0.00623  0.98567  0.34556  1.0000
  C   C13       1.0  0.98229  0.97336  0.34337  1.0000
  C   C14       1.0  0.97070  0.98571  0.34208  1.0000
  C   C15       1.0  0.98239  0.00966  0.34224  1.0000
  C   C16       1.0  0.00633  0.02128  0.34420  1.0000
  H   H6        1.0  0.95341  0.97709  0.33701  1.0000
  H   H7        1.0  0.01502  0.03861  0.34337  1.0000
  H   H8        1.0  0.99026  0.04455  0.23500  1.0000
  N   N1        1.0  0.11374  0.05866  0.33620  1.0000
  N   N2        1.0  0.93351  0.05580  0.32553  1.0000
  C   C17       1.0  0.45521  0.26296  0.30136  1.0000
  C   C18       1.0  0.45278  0.19000  0.33576  1.0000
  C   C19       1.0  0.47529  0.27366  0.24962  1.0000
  C   C20       1.0  0.48958  0.29729  0.25128  1.0000
  C   C21       1.0  0.48384  0.31101  0.30242  1.0000
  C   C22       1.0  0.34426  0.16054  0.26903  1.0000
  C   C23       1.0  0.36807  0.17186  0.26657  1.0000
  C   C24       1.0  0.44941  0.17275  0.27476  1.0000
  C   C25       1.0  0.46307  0.16266  0.27818  1.0000
  C   C26       1.0  0.47990  0.16908  0.34432  1.0000
  H   H9        1.0  0.50446  0.30437  0.21633  1.0000
  H   H10       1.0  0.37573  0.16570  0.22552  1.0000
  H   H11       1.0  0.33530  0.14637  0.23061  1.0000
  H   H12       1.0  0.43783  0.16827  0.22429  1.0000
  H   H13       1.0  0.46097  0.15092  0.23098  1.0000
  C   C27       1.0  0.44096  0.20215  0.32604  1.0000
  C   C28       1.0  0.41709  0.19095  0.32365  1.0000
  C   C29       1.0  0.40538  0.20313  0.31576  1.0000
  C   C30       1.0  0.41826  0.22702  0.30770  1.0000
  C   C31       1.0  0.44221  0.23880  0.30799  1.0000
  C   C32       1.0  0.45317  0.22599  0.31835  1.0000
  H   H14       1.0  0.41002  0.23597  0.29920  1.0000
  H   H15       1.0  0.47049  0.23418  0.32077  1.0000
  H   H16       1.0  0.48013  0.26427  0.21208  1.0000
  N   N3        1.0  0.49415  0.16116  0.34073  1.0000
  N   N4        1.0  0.49928  0.33266  0.31176  1.0000
  C   C33       1.0  0.72900  0.19250  0.30209  1.0000
  C   C34       1.0  0.80189  0.26309  0.33647  1.0000
  C   C35       1.0  0.71832  0.20184  0.25002  1.0000
  C   C36       1.0  0.69469  0.19250  0.25146  1.0000
  C   C37       1.0  0.68097  0.17311  0.30292  1.0000
  C   C38       1.0  0.83141  0.18410  0.26937  1.0000
  C   C39       1.0  0.82006  0.19656  0.26721  1.0000
  C   C40       1.0  0.81917  0.27696  0.27555  1.0000
  C   C41       1.0  0.82928  0.30071  0.27888  1.0000
  C   C42       1.0  0.82282  0.31114  0.34480  1.0000
  H   H17       1.0  0.68764  0.20030  0.21631  1.0000
  H   H18       1.0  0.82613  0.21036  0.22604  1.0000
  H   H19       1.0  0.84551  0.18930  0.23054  1.0000
  H   H20       1.0  0.82368  0.26984  0.22522  1.0000
  H   H21       1.0  0.84103  0.31033  0.23169  1.0000
  C   C43       1.0  0.78976  0.23911  0.32692  1.0000
  C   C44       1.0  0.80098  0.22645  0.32466  1.0000
  C   C45       1.0  0.78882  0.20256  0.31702  1.0000
  C   C46       1.0  0.76495  0.19152  0.30900  1.0000
  C   C47       1.0  0.75314  0.20367  0.30894  1.0000
  C   C48       1.0  0.76593  0.22746  0.31916  1.0000
  H   H22       1.0  0.75602  0.17432  0.30054  1.0000
  H   H23       1.0  0.75773  0.23658  0.32137  1.0000
  H   H24       1.0  0.72772  0.21604  0.21231  1.0000
  N   N5        1.0  0.83075  0.33331  0.34109  1.0000
  N   N6        1.0  0.65932  0.16691  0.31215  1.0000
  C   C49       1.0  0.79954  0.53690  0.30171  1.0000
  C   C50       1.0  0.72889  0.53907  0.33612  1.0000
  C   C51       1.0  0.79021  0.51685  0.24975  1.0000
  C   C52       1.0  0.79957  0.50259  0.25123  1.0000
  C   C53       1.0  0.81899  0.50829  0.30257  1.0000
  C   C54       1.0  0.80748  0.64760  0.26910  1.0000
  C   C55       1.0  0.79518  0.62378  0.26662  1.0000
  C   C56       1.0  0.71503  0.54250  0.27523  1.0000
  C   C57       1.0  0.69129  0.52885  0.27854  1.0000
  C   C58       1.0  0.68086  0.51198  0.34450  1.0000
  H   H25       1.0  0.79177  0.48772  0.21619  1.0000
  H   H26       1.0  0.78140  0.61601  0.22542  1.0000
  H   H27       1.0  0.80219  0.65646  0.23046  1.0000
  H   H28       1.0  0.72214  0.55410  0.22480  1.0000
  H   H29       1.0  0.68167  0.53098  0.23134  1.0000
  C   C59       1.0  0.75287  0.55094  0.32659  1.0000
  C   C60       1.0  0.76548  0.57483  0.32419  1.0000
  C   C61       1.0  0.78936  0.58661  0.31643  1.0000
  C   C62       1.0  0.80045  0.57381  0.30850  1.0000
  C   C63       1.0  0.78834  0.54984  0.30861  1.0000
  C   C64       1.0  0.76456  0.53881  0.31891  1.0000
  H   H30       1.0  0.81764  0.58211  0.30005  1.0000
  H   H31       1.0  0.75547  0.52148  0.32121  1.0000
  H   H32       1.0  0.77600  0.51203  0.21209  1.0000
  N   N7        1.0  0.65869  0.49775  0.34086  1.0000
  N   N8        1.0  0.82519  0.49285  0.31194  1.0000
  C   C65       1.0  0.15157  0.07545  0.28740  1.0000
  C   C66       1.0  0.16583  0.08381  0.21203  1.0000
  C   C67       1.0  0.18962  0.09757  0.21976  1.0000
  C   C68       1.0  0.19990  0.10275  0.30590  1.0000
  C   C69       1.0  0.22405  0.11638  0.32040  1.0000
  C   C70       1.0  0.24022  0.11589  0.26252  1.0000
  C   C71       1.0  0.26358  0.12903  0.27906  1.0000
  H   H33       1.0  0.23527  0.10529  0.20877  1.0000
  H   H34       1.0  0.27446  0.12812  0.23443  1.0000
  H   H35       1.0  0.15883  0.08023  0.14944  1.0000
  N   N9        1.0  0.20263  0.10732  0.14161  1.0000
  O   O1        1.0  0.20069  0.09253  0.08650  1.0000
  O   O2        1.0  0.19734  0.12044  0.10353  1.0000
  C   C72       1.0  0.12833  0.06160  0.27555  1.0000
  H   H36       1.0  0.12279  0.05412  0.21663  1.0000
  C   C73       1.0  0.91709  0.07726  0.27894  1.0000
  C   C74       1.0  0.90853  0.08316  0.20424  1.0000
  C   C75       1.0  0.89461  0.09299  0.21316  1.0000
  C   C76       1.0  0.88951  0.09790  0.29981  1.0000
  C   C77       1.0  0.87580  0.10827  0.31559  1.0000
  C   C78       1.0  0.87610  0.12498  0.25848  1.0000
  C   C79       1.0  0.86292  0.13508  0.27625  1.0000
  H   H37       1.0  0.88658  0.13073  0.20444  1.0000
  H   H38       1.0  0.86368  0.14690  0.23214  1.0000
  H   H39       1.0  0.91204  0.07986  0.14134  1.0000
  N   N10       1.0  0.88464  0.09625  0.13571  1.0000
  O   O3        1.0  0.89925  0.10923  0.08039  1.0000
  O   O4        1.0  0.87155  0.07784  0.09749  1.0000
  C   C80       1.0  0.93106  0.06805  0.26621  1.0000
  H   H40       1.0  0.93895  0.07058  0.20794  1.0000
  C   C81       1.0  0.91849  0.84049  0.28251  1.0000
  C   C82       1.0  0.91113  0.82580  0.20822  1.0000
  C   C83       1.0  0.89939  0.80194  0.21766  1.0000
  C   C84       1.0  0.89406  0.79207  0.30456  1.0000
  C   C85       1.0  0.88289  0.76793  0.32073  1.0000
  C   C86       1.0  0.86586  0.75175  0.26403  1.0000
  C   C87       1.0  0.85553  0.72841  0.28116  1.0000
  H   H41       1.0  0.86011  0.75671  0.21062  1.0000
  H   H42       1.0  0.84351  0.71750  0.23732  1.0000
  H   H43       1.0  0.91496  0.83249  0.14513  1.0000
  N   N11       1.0  0.89488  0.78837  0.14029  1.0000
  O   O5        1.0  0.88254  0.79122  0.08560  1.0000
  O   O6        1.0  0.91274  0.79211  0.10129  1.0000
  C   C88       1.0  0.93114  0.86381  0.26925  1.0000
  H   H44       1.0  0.93785  0.86951  0.20926  1.0000
  C   C89       1.0  0.54569  0.14406  0.30005  1.0000
  C   C90       1.0  0.52686  0.14728  0.30866  1.0000
  H   H45       1.0  0.51948  0.14910  0.25215  1.0000
  C   C91       1.0  0.62076  0.14554  0.32983  1.0000
  C   C92       1.0  0.60316  0.13592  0.26630  1.0000
  C   C93       1.0  0.58223  0.13493  0.28229  1.0000
  H   H46       1.0  0.60582  0.13024  0.20675  1.0000
  C   C94       1.0  0.56462  0.12700  0.21137  1.0000
  C   C95       1.0  0.55359  0.14212  0.20930  1.0000
  H   H47       1.0  0.55167  0.10953  0.22610  1.0000
  H   H48       1.0  0.57162  0.12725  0.14542  1.0000
  H   H49       1.0  0.53950  0.13472  0.16193  1.0000
  H   H50       1.0  0.56588  0.15907  0.18562  1.0000
  C   C96       1.0  0.64147  0.14725  0.31352  1.0000
  H   H51       1.0  0.64236  0.13326  0.30485  1.0000
  C   C97       1.0  0.84793  0.40199  0.30015  1.0000
  C   C98       1.0  0.84465  0.37992  0.30886  1.0000
  H   H52       1.0  0.84279  0.37069  0.25239  1.0000
  C   C99       1.0  0.84655  0.47565  0.32970  1.0000
  C   C100      1.0  0.85612  0.46762  0.26614  1.0000
  C   C101      1.0  0.85710  0.44768  0.28221  1.0000
  H   H53       1.0  0.86177  0.47595  0.20653  1.0000
  C   C102      1.0  0.86499  0.43797  0.21128  1.0000
  C   C103      1.0  0.84986  0.41181  0.20936  1.0000
  H   H54       1.0  0.88245  0.44248  0.22592  1.0000
  H   H55       1.0  0.86473  0.44470  0.14531  1.0000
  H   H56       1.0  0.85724  0.40510  0.16202  1.0000
  H   H57       1.0  0.83291  0.40715  0.18572  1.0000
  C   C104      1.0  0.84484  0.49465  0.31332  1.0000
  H   H58       1.0  0.85882  0.50953  0.30458  1.0000
  C   C105      1.0  0.59003  0.44634  0.30007  1.0000
  C   C106      1.0  0.61209  0.46516  0.30872  1.0000
  H   H59       1.0  0.62128  0.47256  0.25222  1.0000
  C   C107      1.0  0.51646  0.37122  0.32969  1.0000
  C   C108      1.0  0.52445  0.38882  0.26617  1.0000
  C   C109      1.0  0.54437  0.40977  0.28224  1.0000
  H   H60       1.0  0.51608  0.38617  0.20667  1.0000
  C   C110      1.0  0.55404  0.42740  0.21138  1.0000
  C   C111      1.0  0.58019  0.43846  0.20930  1.0000
  H   H61       1.0  0.54951  0.44034  0.22619  1.0000
  H   H62       1.0  0.54729  0.42042  0.14541  1.0000
  H   H63       1.0  0.58687  0.45256  0.16201  1.0000
  H   H64       1.0  0.58486  0.42618  0.18552  1.0000
  C   C112      1.0  0.49747  0.35051  0.31334  1.0000
  H   H65       1.0  0.48258  0.34961  0.30483  1.0000
  C   C113      1.0  0.97020  0.94917  0.33965  1.0000
  C   C114      1.0  0.93934  0.02762  0.38813  1.0000
  C   C115      1.0  0.95135  0.01584  0.39321  1.0000
  C   C116      1.0  0.95093  0.93616  0.39373  1.0000
  C   C117      1.0  0.93908  0.91234  0.38972  1.0000
  C   C118      1.0  0.94588  0.90080  0.33041  1.0000
  C   C119      1.0  0.07941  0.05271  0.39661  1.0000
  C   C120      1.0  0.05559  0.04065  0.39993  1.0000
  H   H66       1.0  0.92575  0.02294  0.42945  1.0000
  H   H67       1.0  0.94628  0.00307  0.43900  1.0000
  H   H68       1.0  0.94556  0.94391  0.43799  1.0000
  H   H69       1.0  0.92532  0.90345  0.43022  1.0000
  H   H70       1.0  0.08811  0.06639  0.43774  1.0000
  H   H71       1.0  0.04765  0.04577  0.44435  1.0000
  H   H72       1.0  0.01486  0.97697  0.34870  1.0000
  N   N12       1.0  0.93423  0.87826  0.33073  1.0000
  C   C121      1.0  0.38121  0.19166  0.31774  1.0000
  C   C122      1.0  0.46356  0.30064  0.35237  1.0000
  C   C123      1.0  0.44944  0.27694  0.35160  1.0000
  C   C124      1.0  0.36964  0.19967  0.37167  1.0000
  C   C125      1.0  0.34584  0.18826  0.37468  1.0000
  C   C126      1.0  0.33283  0.16843  0.32372  1.0000
  C   C127      1.0  0.48306  0.18604  0.40625  1.0000
  C   C128      1.0  0.46967  0.19634  0.40205  1.0000
  H   H73       1.0  0.45959  0.31015  0.39331  1.0000
  H   H74       1.0  0.43553  0.26994  0.39229  1.0000
  H   H75       1.0  0.37846  0.21376  0.41057  1.0000
  H   H76       1.0  0.33815  0.19471  0.41388  1.0000
  H   H77       1.0  0.49573  0.19165  0.45265  1.0000
  H   H78       1.0  0.47273  0.20893  0.44666  1.0000
  H   H79       1.0  0.40812  0.17373  0.33163  1.0000
  N   N13       1.0  0.31031  0.15700  0.32147  1.0000
  C   C129      1.0  0.80034  0.18990  0.31888  1.0000
  C   C130      1.0  0.69131  0.16321  0.35307  1.0000
  C   C131      1.0  0.71499  0.17274  0.35234  1.0000
  C   C132      1.0  0.79244  0.17037  0.37302  1.0000
  C   C133      1.0  0.80388  0.15801  0.37572  1.0000
  C   C134      1.0  0.82361  0.16481  0.32414  1.0000
  C   C135      1.0  0.80582  0.29735  0.40663  1.0000
  C   C136      1.0  0.79553  0.27365  0.40258  1.0000
  H   H80       1.0  0.68178  0.14976  0.39416  1.0000
  H   H81       1.0  0.72198  0.16589  0.39338  1.0000
  H   H82       1.0  0.77841  0.16511  0.41225  1.0000
  H   H83       1.0  0.79752  0.14389  0.41505  1.0000
  H   H84       1.0  0.80019  0.30444  0.45287  1.0000
  H   H85       1.0  0.78291  0.26415  0.44709  1.0000
  H   H86       1.0  0.81819  0.23472  0.33274  1.0000
  N   N14       1.0  0.83505  0.15373  0.32130  1.0000
  C   C137      1.0  0.80195  0.61079  0.31819  1.0000
  C   C138      1.0  0.82888  0.52856  0.35259  1.0000
  C   C139      1.0  0.81930  0.54268  0.35197  1.0000
  C   C140      1.0  0.82145  0.62250  0.37240  1.0000
  C   C141      1.0  0.83366  0.64631  0.37540  1.0000
  C   C142      1.0  0.82671  0.65917  0.32415  1.0000
  C   C143      1.0  0.69464  0.50877  0.40638  1.0000
  C   C144      1.0  0.71833  0.52215  0.40224  1.0000
  H   H87       1.0  0.84230  0.53248  0.39383  1.0000
  H   H88       1.0  0.82615  0.55653  0.39297  1.0000
  H   H89       1.0  0.82679  0.61377  0.41151  1.0000
  H   H90       1.0  0.84775  0.65412  0.41482  1.0000
  H   H91       1.0  0.68754  0.49605  0.45261  1.0000
  H   H92       1.0  0.72783  0.51903  0.44677  1.0000
  H   H93       1.0  0.75718  0.58374  0.33224  1.0000
  N   N15       1.0  0.83760  0.68168  0.32194  1.0000
  C   C145      1.0  0.18543  0.09559  0.38223  1.0000
  C   C146      1.0  0.16174  0.08188  0.37246  1.0000
  H   H94       1.0  0.15179  0.07646  0.42840  1.0000
  C   C147      1.0  0.27188  0.14287  0.35582  1.0000
  C   C148      1.0  0.25580  0.14233  0.41691  1.0000
  C   C149      1.0  0.23226  0.12909  0.40081  1.0000
  H   H95       1.0  0.26123  0.15160  0.47460  1.0000
  C   C150      1.0  0.21577  0.12755  0.46951  1.0000
  C   C151      1.0  0.19532  0.10310  0.47311  1.0000
  H   H96       1.0  0.20992  0.13932  0.45178  1.0000
  H   H97       1.0  0.22346  0.13215  0.53583  1.0000
  H   H98       1.0  0.18290  0.10272  0.52030  1.0000
  H   H99       1.0  0.20087  0.09157  0.49774  1.0000
  C   C152      1.0  0.29497  0.15632  0.37347  1.0000
  H   H100      1.0  0.29977  0.16574  0.42849  1.0000
  C   C153      1.0  0.89691  0.09060  0.37545  1.0000
  C   C154      1.0  0.91076  0.08081  0.36450  1.0000
  H   H101      1.0  0.91635  0.07629  0.41996  1.0000
  C   C155      1.0  0.84923  0.12939  0.35353  1.0000
  C   C156      1.0  0.84996  0.11381  0.41382  1.0000
  C   C157      1.0  0.86325  0.10362  0.39646  1.0000
  H   H102      1.0  0.84081  0.10986  0.47183  1.0000
  C   C158      1.0  0.86502  0.08863  0.46433  1.0000
  C   C159      1.0  0.88952  0.09277  0.46684  1.0000
  H   H103      1.0  0.85330  0.07101  0.44634  1.0000
  H   H104      1.0  0.86050  0.09157  0.53105  1.0000
  H   H105      1.0  0.89006  0.08070  0.51338  1.0000
  H   H106      1.0  0.90101  0.10984  0.49174  1.0000
  C   C160      1.0  0.83571  0.13889  0.37227  1.0000
  H   H107      1.0  0.82623  0.13402  0.42711  1.0000
  C   C161      1.0  0.90235  0.80687  0.37982  1.0000
  C   C162      1.0  0.91411  0.83061  0.36828  1.0000
  H   H108      1.0  0.92004  0.84082  0.42339  1.0000
  C   C163      1.0  0.86137  0.72014  0.35726  1.0000
  C   C164      1.0  0.87721  0.73626  0.41744  1.0000
  C   C165      1.0  0.88760  0.75977  0.40084  1.0000
  H   H109      1.0  0.88128  0.73086  0.47469  1.0000
  C   C166      1.0  0.90296  0.77628  0.46866  1.0000
  C   C167      1.0  0.89970  0.79719  0.47125  1.0000
  H   H110      1.0  0.92046  0.78159  0.45076  1.0000
  H   H111      1.0  0.89974  0.76878  0.53537  1.0000
  H   H112      1.0  0.91187  0.80952  0.51835  1.0000
  H   H113      1.0  0.88269  0.79211  0.49551  1.0000
  C   C168      1.0  0.85177  0.69707  0.37513  1.0000
  H   H114      1.0  0.85605  0.69230  0.43109  1.0000
  C   C169      1.0  0.51836  0.14845  0.39331  1.0000
  C   C170      1.0  0.52842  0.14482  0.46913  1.0000
  C   C171      1.0  0.54752  0.14191  0.46261  1.0000
  C   C172      1.0  0.55735  0.14308  0.37743  1.0000
  C   C173      1.0  0.57817  0.14275  0.36472  1.0000
  C   C174      1.0  0.59641  0.15318  0.42588  1.0000
  C   C175      1.0  0.61721  0.15433  0.40949  1.0000
  H   H115      1.0  0.59535  0.16130  0.48128  1.0000
  H   H116      1.0  0.62994  0.16215  0.45546  1.0000
  H   H117      1.0  0.52206  0.14461  0.53130  1.0000
  N   N16       1.0  0.55579  0.13662  0.54041  1.0000
  O   O7        1.0  0.56164  0.15162  0.59958  1.0000
  O   O8        1.0  0.54132  0.11795  0.57317  1.0000
  C   C176      1.0  0.50122  0.15370  0.40472  1.0000
  H   H118      1.0  0.49550  0.15346  0.46618  1.0000
  C   C177      1.0  0.84349  0.37027  0.39355  1.0000
  C   C178      1.0  0.84720  0.38401  0.46930  1.0000
  C   C179      1.0  0.85016  0.40603  0.46269  1.0000
  C   C180      1.0  0.84898  0.41468  0.37750  1.0000
  C   C181      1.0  0.84932  0.43584  0.36472  1.0000
  C   C182      1.0  0.83890  0.44366  0.42586  1.0000
  C   C183      1.0  0.83778  0.46333  0.40943  1.0000
  H   H119      1.0  0.83086  0.43454  0.48145  1.0000
  H   H120      1.0  0.83001  0.46828  0.45549  1.0000
  H   H121      1.0  0.84742  0.37786  0.53148  1.0000
  N   N17       1.0  0.85552  0.41963  0.54041  1.0000
  O   O9        1.0  0.84056  0.41054  0.59972  1.0000
  O   O10       1.0  0.87419  0.42380  0.57303  1.0000
  C   C184      1.0  0.83816  0.34785  0.40505  1.0000
  H   H122      1.0  0.83842  0.34239  0.46652  1.0000
  C   C185      1.0  0.62176  0.47364  0.39339  1.0000
  C   C186      1.0  0.60806  0.46357  0.46919  1.0000
  C   C187      1.0  0.58606  0.44448  0.46263  1.0000
  C   C188      1.0  0.57739  0.43466  0.37744  1.0000
  C   C189      1.0  0.55624  0.41383  0.36465  1.0000
  C   C190      1.0  0.54847  0.39557  0.42572  1.0000
  C   C191      1.0  0.52880  0.37477  0.40933  1.0000
  H   H123      1.0  0.55762  0.39664  0.48120  1.0000
  H   H124      1.0  0.52389  0.36204  0.45532  1.0000
  H   H125      1.0  0.61422  0.46993  0.53137  1.0000
  N   N18       1.0  0.57249  0.43620  0.54042  1.0000
  O   O11       1.0  0.58162  0.43033  0.59958  1.0000
  O   O12       1.0  0.56830  0.45067  0.57321  1.0000
  C   C192      1.0  0.64415  0.49078  0.40479  1.0000
  H   H126      1.0  0.64961  0.49656  0.46621  1.0000
