data_image0
_chemical_formula_structural       C16H16C7H3COH3CHC6H3COH3CHC3NC3NC5NC5NC36H26N4C2H2C3HCOH3CHC2H2C4HCOH3CH
_chemical_formula_sum              "C100 H70 O4 N8"
_cell_length_a       38.4235
_cell_length_b       38.4217
_cell_length_c       14.897
_cell_angle_alpha    90
_cell_angle_beta     90
_cell_angle_gamma    89.9404

_space_group_name_H-M_alt    "P 1"
_space_group_IT_number       1

loop_
  _space_group_symop_operation_xyz
  'x, y, z'

loop_
  _atom_site_type_symbol
  _atom_site_label
  _atom_site_symmetry_multiplicity
  _atom_site_fract_x
  _atom_site_fract_y
  _atom_site_fract_z
  _atom_site_occupancy
  C   C1        1.0  0.15370  0.00389  0.28366  1.0000
  C   C2        1.0  0.19034  0.00361  0.28305  1.0000
  C   C3        1.0  0.30233  0.02453  0.30853  1.0000
  C   C4        1.0  0.26569  0.02417  0.30947  1.0000
  C   C5        1.0  0.00414  0.15037  0.28330  1.0000
  C   C6        1.0  0.00426  0.18701  0.28234  1.0000
  C   C7        1.0  0.98373  0.26230  0.31548  1.0000
  C   C8        1.0  0.98324  0.29894  0.31510  1.0000
  C   C9        1.0  0.82306  0.00170  0.28271  1.0000
  C   C10       1.0  0.85969  0.00092  0.28358  1.0000
  C   C11       1.0  0.74750  0.98256  0.31621  1.0000
  C   C12       1.0  0.71086  0.98266  0.31602  1.0000
  C   C13       1.0  0.00688  0.85648  0.28364  1.0000
  C   C14       1.0  0.00632  0.81984  0.28283  1.0000
  C   C15       1.0  0.02520  0.70736  0.30691  1.0000
  C   C16       1.0  0.02552  0.74401  0.30816  1.0000
  H   H1        1.0  0.04311  0.69463  0.26823  1.0000
  H   H2        1.0  0.04385  0.75661  0.27046  1.0000
  H   H3        1.0  0.00823  0.80743  0.22229  1.0000
  H   H4        1.0  0.00961  0.86961  0.22429  1.0000
  H   H5        1.0  0.87277  0.99615  0.22500  1.0000
  H   H6        1.0  0.81055  0.99786  0.22292  1.0000
  H   H7        1.0  0.99970  0.13720  0.22472  1.0000
  H   H8        1.0  0.00029  0.19944  0.22247  1.0000
  H   H9        1.0  0.96376  0.31144  0.28120  1.0000
  H   H10       1.0  0.96408  0.24935  0.28339  1.0000
  H   H11       1.0  0.25276  0.04238  0.27203  1.0000
  H   H12       1.0  0.31473  0.04278  0.27029  1.0000
  H   H13       1.0  0.20278  0.00582  0.22263  1.0000
  H   H14       1.0  0.14059  0.00677  0.22431  1.0000
  H   H15       1.0  0.76014  0.96265  0.28428  1.0000
  H   H16       1.0  0.69806  0.96333  0.28239  1.0000
  C   C17       1.0  0.00372  0.59532  0.31628  1.0000
  C   C18       1.0  0.99292  0.57379  0.24450  1.0000
  C   C19       1.0  0.98935  0.53726  0.25396  1.0000
  C   C20       1.0  0.99770  0.52165  0.33811  1.0000
  C   C21       1.0  0.99524  0.48502  0.35296  1.0000
  C   C22       1.0  0.02111  0.46330  0.31508  1.0000
  C   C23       1.0  0.01850  0.42684  0.32012  1.0000
  H   H17       1.0  0.04166  0.47389  0.28094  1.0000
  H   H18       1.0  0.03712  0.41202  0.28928  1.0000
  H   H19       1.0  0.98711  0.58500  0.18384  1.0000
  C   C24       1.0  0.97668  0.51750  0.17419  1.0000
  O   O1        1.0  0.00259  0.51874  0.10520  1.0000
  H   H20       1.0  0.97094  0.49033  0.18973  1.0000
  H   H21       1.0  0.95248  0.52931  0.15014  1.0000
  H   H22       1.0  0.99335  0.50630  0.05264  1.0000
  C   C25       1.0  0.00785  0.63083  0.30221  1.0000
  H   H23       1.0  0.01610  0.63869  0.24223  1.0000
  C   C26       1.0  0.41475  0.00491  0.31818  1.0000
  C   C27       1.0  0.43637  0.99433  0.24632  1.0000
  C   C28       1.0  0.47291  0.99087  0.25586  1.0000
  C   C29       1.0  0.48843  0.99917  0.34014  1.0000
  C   C30       1.0  0.54689  0.02228  0.31733  1.0000
  C   C31       1.0  0.58334  0.01941  0.32238  1.0000
  H   H24       1.0  0.53640  0.04286  0.28302  1.0000
  H   H25       1.0  0.59825  0.03791  0.29140  1.0000
  H   H26       1.0  0.42520  0.98853  0.18561  1.0000
  C   C32       1.0  0.49275  0.97835  0.17604  1.0000
  O   O2        1.0  0.49141  0.00434  0.10724  1.0000
  H   H27       1.0  0.51994  0.97266  0.19158  1.0000
  H   H28       1.0  0.48106  0.95414  0.15178  1.0000
  H   H29       1.0  0.50391  0.99519  0.05463  1.0000
  C   C33       1.0  0.37921  0.00877  0.30416  1.0000
  H   H30       1.0  0.37129  0.01739  0.24457  1.0000
  C   C34       1.0  0.06933  0.91173  0.36610  1.0000
  C   C35       1.0  0.09534  0.93652  0.36593  1.0000
  C   C36       1.0  0.07976  0.96941  0.36635  1.0000
  N   N1        1.0  0.04498  0.96330  0.36651  1.0000
  C   C37       1.0  0.03722  0.92886  0.36611  1.0000
  C   C38       1.0  0.00419  0.91207  0.36603  1.0000
  C   C39       1.0  0.97162  0.92961  0.36610  1.0000
  N   N2        1.0  0.96570  0.96432  0.36573  1.0000
  C   C40       1.0  0.93132  0.97188  0.36560  1.0000
  C   C41       1.0  0.91405  0.93990  0.36626  1.0000
  C   C42       1.0  0.93886  0.91388  0.36614  1.0000
  C   C43       1.0  0.91535  0.00527  0.36528  1.0000
  C   C44       1.0  0.93374  0.03744  0.36538  1.0000
  N   N3        1.0  0.96852  0.04355  0.36577  1.0000
  C   C45       1.0  0.97629  0.07800  0.36525  1.0000
  C   C46       1.0  0.94417  0.09512  0.36498  1.0000
  C   C47       1.0  0.91818  0.07034  0.36447  1.0000
  C   C48       1.0  0.00931  0.09482  0.36528  1.0000
  C   C49       1.0  0.04188  0.07727  0.36572  1.0000
  N   N4        1.0  0.04777  0.04256  0.36622  1.0000
  C   C50       1.0  0.08215  0.03498  0.36587  1.0000
  C   C51       1.0  0.09944  0.06695  0.36534  1.0000
  C   C52       1.0  0.07466  0.09298  0.36480  1.0000
  C   C53       1.0  0.09810  0.00160  0.36603  1.0000
  C   C54       1.0  0.13523  0.00044  0.36510  1.0000
  C   C55       1.0  0.20969  0.99978  0.36350  1.0000
  C   C56       1.0  0.19082  0.99606  0.44472  1.0000
  C   C57       1.0  0.15417  0.99649  0.44569  1.0000
  C   C58       1.0  0.24701  0.00002  0.36276  1.0000
  C   C59       1.0  0.26659  0.97640  0.41565  1.0000
  C   C60       1.0  0.30327  0.97675  0.41478  1.0000
  C   C61       1.0  0.32169  0.00052  0.36050  1.0000
  C   C62       1.0  0.00988  0.13199  0.36407  1.0000
  C   C63       1.0  0.01049  0.20639  0.36166  1.0000
  C   C64       1.0  0.01653  0.18769  0.44216  1.0000
  C   C65       1.0  0.01606  0.15104  0.44355  1.0000
  C   C66       1.0  0.01027  0.24364  0.36071  1.0000
  C   C67       1.0  0.00928  0.31821  0.36019  1.0000
  C   C68       1.0  0.03619  0.29979  0.40372  1.0000
  C   C69       1.0  0.03649  0.26311  0.40481  1.0000
  C   C70       1.0  0.87820  0.00648  0.36421  1.0000
  C   C71       1.0  0.85928  0.01315  0.44367  1.0000
  C   C72       1.0  0.82264  0.01429  0.44237  1.0000
  C   C73       1.0  0.80381  0.00843  0.36200  1.0000
  C   C74       1.0  0.76656  0.00885  0.36115  1.0000
  C   C75       1.0  0.69200  0.00905  0.36101  1.0000
  C   C76       1.0  0.71082  0.03573  0.40423  1.0000
  C   C77       1.0  0.74750  0.03544  0.40511  1.0000
  C   C78       1.0  0.00361  0.87492  0.36517  1.0000
  C   C79       1.0  0.99964  0.85595  0.44569  1.0000
  C   C80       1.0  0.00234  0.80046  0.36318  1.0000
  C   C81       1.0  0.99894  0.81930  0.44453  1.0000
  C   C82       1.0  0.00191  0.76313  0.36214  1.0000
  C   C83       1.0  0.97808  0.74395  0.41531  1.0000
  C   C84       1.0  0.97777  0.70727  0.41420  1.0000
  C   C85       1.0  0.00101  0.68844  0.35927  1.0000
  H   H31       1.0  0.96003  0.69437  0.45311  1.0000
  H   H32       1.0  0.96020  0.75655  0.45448  1.0000
  H   H33       1.0  0.99665  0.80649  0.50439  1.0000
  H   H34       1.0  0.99734  0.86870  0.50572  1.0000
  H   H35       1.0  0.07365  0.88551  0.36595  1.0000
  H   H36       1.0  0.12133  0.93096  0.36547  1.0000
  H   H37       1.0  0.02774  0.98140  0.36667  1.0000
  H   H38       1.0  0.98576  0.02546  0.36621  1.0000
  H   H39       1.0  0.93346  0.88786  0.36635  1.0000
  H   H40       1.0  0.88782  0.93573  0.36675  1.0000
  H   H41       1.0  0.87205  0.01712  0.50307  1.0000
  H   H42       1.0  0.80979  0.01862  0.50146  1.0000
  H   H43       1.0  0.89220  0.07595  0.36365  1.0000
  H   H44       1.0  0.93982  0.12134  0.36484  1.0000
  H   H45       1.0  0.12568  0.07109  0.36491  1.0000
  H   H46       1.0  0.08009  0.11898  0.36374  1.0000
  H   H47       1.0  0.02015  0.13836  0.50303  1.0000
  H   H48       1.0  0.02054  0.20063  0.50125  1.0000
  H   H49       1.0  0.05653  0.25071  0.43684  1.0000
  H   H50       1.0  0.05563  0.31300  0.43594  1.0000
  H   H51       1.0  0.14140  0.99421  0.50568  1.0000
  H   H52       1.0  0.20362  0.99393  0.50465  1.0000
  H   H53       1.0  0.31649  0.95913  0.45343  1.0000
  H   H54       1.0  0.25431  0.95818  0.45438  1.0000
  H   H55       1.0  0.76020  0.05531  0.43695  1.0000
  H   H56       1.0  0.69790  0.05541  0.43639  1.0000
  N   N5        1.0  0.35643  0.99956  0.36291  1.0000
  N   N6        1.0  0.99952  0.65372  0.36162  1.0000
  N   N7        1.0  0.65727  0.01050  0.36219  1.0000
  N   N8        1.0  0.01025  0.35294  0.36105  1.0000
  C   C86       1.0  0.00877  0.54309  0.40982  1.0000
  C   C87       1.0  0.01154  0.57939  0.39932  1.0000
  H   H57       1.0  0.01508  0.53239  0.47060  1.0000
  H   H58       1.0  0.02003  0.59399  0.45242  1.0000
  C   C88       1.0  0.98998  0.41096  0.36373  1.0000
  C   C89       1.0  0.96455  0.43285  0.40314  1.0000
  C   C90       1.0  0.96640  0.46967  0.39827  1.0000
  H   H59       1.0  0.94392  0.42152  0.43518  1.0000
  C   C91       1.0  0.93836  0.49176  0.43871  1.0000
  O   O3        1.0  0.90920  0.47395  0.47735  1.0000
  H   H60       1.0  0.92853  0.51000  0.38822  1.0000
  H   H61       1.0  0.94994  0.50699  0.49287  1.0000
  H   H62       1.0  0.89546  0.46370  0.42820  1.0000
  C   C92       1.0  0.98504  0.37504  0.36384  1.0000
  H   H63       1.0  0.96076  0.36614  0.36781  1.0000
  C   C93       1.0  0.46689  0.01011  0.41185  1.0000
  C   C94       1.0  0.43059  0.01273  0.40131  1.0000
  H   H64       1.0  0.47753  0.01634  0.47275  1.0000
  H   H65       1.0  0.41590  0.02105  0.45445  1.0000
  C   C95       1.0  0.52504  0.99657  0.35526  1.0000
  C   C96       1.0  0.59908  0.99081  0.36609  1.0000
  C   C97       1.0  0.57706  0.96558  0.40569  1.0000
  C   C98       1.0  0.54025  0.96767  0.40077  1.0000
  H   H66       1.0  0.58828  0.94489  0.43784  1.0000
  C   C99       1.0  0.51804  0.93979  0.44132  1.0000
  O   O4        1.0  0.53572  0.91052  0.48002  1.0000
  H   H67       1.0  0.49975  0.93005  0.39090  1.0000
  H   H68       1.0  0.50288  0.95149  0.49549  1.0000
  H   H69       1.0  0.54590  0.89669  0.43088  1.0000
  C   C100      1.0  0.63496  0.98555  0.36609  1.0000
  H   H70       1.0  0.64369  0.96120  0.37075  1.0000
