data_image0
_chemical_formula_structural       C4HCH3CNHCHC2HC2HCHC14H10C17H12C4HCNHCH3C4HCNHCH3CNHC10H7C13H9CNC4H2CH3CNC4H2CH3C4HCH3
_chemical_formula_sum              "C96 H72 N6"
_cell_length_a       44.803
_cell_length_b       44.7776
_cell_length_c       14.8536
_cell_angle_alpha    90
_cell_angle_beta     90
_cell_angle_gamma    120.03

_space_group_name_H-M_alt    "P 1"
_space_group_IT_number       1

loop_
  _space_group_symop_operation_xyz
  'x, y, z'

loop_
  _atom_site_type_symbol
  _atom_site_label
  _atom_site_symmetry_multiplicity
  _atom_site_fract_x
  _atom_site_fract_y
  _atom_site_fract_z
  _atom_site_occupancy
  C   C1        1.0  0.09880  0.54561  0.32903  1.0000
  C   C2        1.0  0.02527  0.51171  0.32927  1.0000
  C   C3        1.0  0.04447  0.54195  0.27588  1.0000
  C   C4        1.0  0.08099  0.55831  0.27729  1.0000
  H   H1        1.0  0.09501  0.57988  0.23877  1.0000
  C   C5        1.0  0.02787  0.55776  0.22227  1.0000
  H   H2        1.0  0.01341  0.54083  0.16649  1.0000
  H   H3        1.0  0.04653  0.58270  0.19364  1.0000
  H   H4        1.0  0.01037  0.56184  0.26486  1.0000
  C   C6        1.0  0.07811  0.51522  0.37879  1.0000
  N   N1        1.0  0.04331  0.50009  0.37703  1.0000
  H   H5        1.0  0.08883  0.50465  0.41928  1.0000
  C   C7        1.0  0.15354  0.54409  0.33399  1.0000
  H   H6        1.0  0.14024  0.51774  0.33045  1.0000
  C   C8        1.0  0.13578  0.56286  0.33224  1.0000
  C   C9        1.0  0.15599  0.59934  0.33580  1.0000
  H   H7        1.0  0.14442  0.61407  0.33731  1.0000
  C   C10       1.0  0.20974  0.59735  0.34243  1.0000
  C   C11       1.0  0.18977  0.56096  0.33937  1.0000
  H   H8        1.0  0.20147  0.54632  0.34071  1.0000
  C   C12       1.0  0.19224  0.61629  0.34105  1.0000
  H   H9        1.0  0.20571  0.64264  0.34549  1.0000
  C   C13       1.0  0.45303  0.85618  0.34169  1.0000
  C   C14       1.0  0.43333  0.81992  0.34654  1.0000
  C   C15       1.0  0.38121  0.74429  0.29984  1.0000
  C   C16       1.0  0.36083  0.70849  0.30650  1.0000
  C   C17       1.0  0.32435  0.69169  0.30553  1.0000
  C   C18       1.0  0.30381  0.65528  0.30626  1.0000
  C   C19       1.0  0.32056  0.63557  0.30599  1.0000
  C   C20       1.0  0.35695  0.65144  0.30683  1.0000
  C   C21       1.0  0.37666  0.68793  0.30622  1.0000
  C   C22       1.0  0.37242  0.63113  0.30029  1.0000
  C   C23       1.0  0.41496  0.61541  0.34283  1.0000
  C   C24       1.0  0.39596  0.57894  0.34376  1.0000
  C   C25       1.0  0.41279  0.55953  0.33848  1.0000
  C   C26       1.0  0.26804  0.63976  0.29935  1.0000
  H   H10       1.0  0.47922  0.86760  0.34813  1.0000
  H   H11       1.0  0.44581  0.80625  0.35571  1.0000
  H   H12       1.0  0.40302  0.69975  0.30346  1.0000
  H   H13       1.0  0.31253  0.70623  0.30228  1.0000
  H   H14       1.0  0.30601  0.60919  0.30311  1.0000
  H   H15       1.0  0.39805  0.53324  0.34171  1.0000
  H   H16       1.0  0.36967  0.56615  0.34985  1.0000
  H   H17       1.0  0.36273  0.61223  0.25492  1.0000
  H   H18       1.0  0.40050  0.75345  0.25564  1.0000
  H   H19       1.0  0.25889  0.64921  0.25319  1.0000
  C   C27       1.0  0.56239  0.15404  0.38809  1.0000
  C   C28       1.0  0.58294  0.19026  0.39063  1.0000
  C   C29       1.0  0.63085  0.26597  0.30317  1.0000
  C   C30       1.0  0.65234  0.30172  0.30914  1.0000
  C   C31       1.0  0.68875  0.31744  0.30879  1.0000
  C   C32       1.0  0.71043  0.35373  0.30960  1.0000
  C   C33       1.0  0.69473  0.37444  0.30901  1.0000
  C   C34       1.0  0.65845  0.35982  0.30941  1.0000
  C   C35       1.0  0.63773  0.32338  0.30850  1.0000
  C   C36       1.0  0.64430  0.38141  0.30368  1.0000
  C   C37       1.0  0.60241  0.39824  0.33979  1.0000
  C   C38       1.0  0.61773  0.43025  0.38517  1.0000
  C   C39       1.0  0.60238  0.45107  0.38268  1.0000
  C   C40       1.0  0.74617  0.36790  0.30394  1.0000
  C   C41       1.0  0.80492  0.40974  0.34027  1.0000
  C   C42       1.0  0.82538  0.44124  0.29460  1.0000
  C   C43       1.0  0.86149  0.45618  0.29098  1.0000
  H   H20       1.0  0.54025  0.14251  0.42555  1.0000
  H   H21       1.0  0.57548  0.20399  0.43067  1.0000
  H   H22       1.0  0.61145  0.31236  0.30538  1.0000
  H   H23       1.0  0.69973  0.30213  0.30591  1.0000
  H   H24       1.0  0.71003  0.40075  0.30622  1.0000
  H   H25       1.0  0.61403  0.47399  0.41687  1.0000
  H   H26       1.0  0.63979  0.43834  0.42197  1.0000
  H   H27       1.0  0.87555  0.47941  0.25908  1.0000
  H   H28       1.0  0.81421  0.45380  0.26447  1.0000
  H   H29       1.0  0.65658  0.40233  0.26508  1.0000
  H   H30       1.0  0.61029  0.25728  0.26326  1.0000
  H   H31       1.0  0.75478  0.35566  0.26514  1.0000
  C   C44       1.0  0.46634  0.55591  0.32954  1.0000
  C   C45       1.0  0.50004  0.51617  0.32987  1.0000
  C   C46       1.0  0.46950  0.50481  0.27774  1.0000
  C   C47       1.0  0.45321  0.52503  0.27910  1.0000
  H   H32       1.0  0.43139  0.51724  0.24154  1.0000
  C   C48       1.0  0.54233  0.46815  0.25644  1.0000
  N   N2        1.0  0.52548  0.48619  0.26055  1.0000
  H   H33       1.0  0.54583  0.46015  0.19491  1.0000
  C   C49       1.0  0.45337  0.47200  0.22569  1.0000
  H   H34       1.0  0.47002  0.47405  0.16964  1.0000
  H   H35       1.0  0.42833  0.46560  0.19764  1.0000
  H   H36       1.0  0.44946  0.45070  0.26923  1.0000
  C   C50       1.0  0.45724  0.91355  0.32929  1.0000
  C   C51       1.0  0.49721  0.98691  0.33066  1.0000
  C   C52       1.0  0.50919  0.96773  0.28102  1.0000
  C   C53       1.0  0.48883  0.93122  0.28183  1.0000
  H   H37       1.0  0.49705  0.91714  0.24608  1.0000
  C   C54       1.0  0.54405  0.07719  0.25721  1.0000
  N   N3        1.0  0.52623  0.04226  0.26105  1.0000
  H   H38       1.0  0.55119  0.08876  0.19552  1.0000
  C   C55       1.0  0.54272  0.98454  0.23235  1.0000
  H   H39       1.0  0.56339  0.00156  0.27799  1.0000
  H   H40       1.0  0.54167  0.99961  0.17603  1.0000
  H   H41       1.0  0.54933  0.96592  0.20522  1.0000
  C   C56       1.0  0.93484  0.47007  0.25642  1.0000
  N   N4        1.0  0.96973  0.48681  0.26051  1.0000
  H   H42       1.0  0.92334  0.46715  0.19511  1.0000
  C   C57       1.0  0.43718  0.87658  0.33187  1.0000
  C   C58       1.0  0.39694  0.80266  0.34122  1.0000
  C   C59       1.0  0.38094  0.82283  0.33174  1.0000
  C   C60       1.0  0.40070  0.85906  0.32679  1.0000
  C   C61       1.0  0.37680  0.76696  0.34947  1.0000
  C   C62       1.0  0.39910  0.63526  0.35120  1.0000
  C   C63       1.0  0.45128  0.63176  0.33749  1.0000
  C   C64       1.0  0.44920  0.57574  0.33271  1.0000
  C   C65       1.0  0.46803  0.61229  0.33219  1.0000
  C   C66       1.0  0.24546  0.61333  0.35097  1.0000
  H   H43       1.0  0.38802  0.87257  0.31862  1.0000
  H   H44       1.0  0.35463  0.81128  0.32810  1.0000
  H   H45       1.0  0.46596  0.65813  0.33710  1.0000
  H   H46       1.0  0.49433  0.62527  0.32697  1.0000
  H   H47       1.0  0.40898  0.65426  0.39627  1.0000
  H   H48       1.0  0.35748  0.75798  0.39350  1.0000
  H   H49       1.0  0.25458  0.60373  0.39679  1.0000
  C   C67       1.0  0.57202  0.13380  0.33553  1.0000
  C   C68       1.0  0.61388  0.20733  0.34073  1.0000
  C   C69       1.0  0.62364  0.18741  0.28786  1.0000
  C   C70       1.0  0.60284  0.15122  0.28472  1.0000
  C   C71       1.0  0.63559  0.24266  0.34855  1.0000
  C   C72       1.0  0.61584  0.37637  0.34751  1.0000
  C   C73       1.0  0.57155  0.38767  0.29147  1.0000
  C   C74       1.0  0.57144  0.44069  0.33437  1.0000
  C   C75       1.0  0.55652  0.40877  0.28808  1.0000
  C   C76       1.0  0.76961  0.39630  0.34802  1.0000
  C   C77       1.0  0.82144  0.39368  0.38280  1.0000
  C   C78       1.0  0.87830  0.44048  0.33434  1.0000
  C   C79       1.0  0.85760  0.40893  0.38010  1.0000
  H   H50       1.0  0.61122  0.13757  0.24763  1.0000
  H   H51       1.0  0.64627  0.19903  0.25232  1.0000
  H   H52       1.0  0.80733  0.37112  0.41762  1.0000
  H   H53       1.0  0.55951  0.36432  0.25925  1.0000
  H   H54       1.0  0.53371  0.39988  0.25430  1.0000
  H   H55       1.0  0.86874  0.39674  0.41218  1.0000
  H   H56       1.0  0.60319  0.35586  0.38705  1.0000
  H   H57       1.0  0.65567  0.25060  0.38965  1.0000
  H   H58       1.0  0.76178  0.40892  0.38768  1.0000
  C   C80       1.0  0.49702  0.56589  0.37814  1.0000
  N   N5        1.0  0.51206  0.54614  0.37655  1.0000
  C   C81       1.0  0.51891  0.49830  0.33764  1.0000
  C   C82       1.0  0.53108  0.49205  0.42032  1.0000
  C   C83       1.0  0.54896  0.47339  0.41735  1.0000
  C   C84       1.0  0.55484  0.46088  0.33574  1.0000
  H   H59       1.0  0.55703  0.46788  0.47634  1.0000
  H   H60       1.0  0.50787  0.58746  0.41765  1.0000
  C   C85       1.0  0.52427  0.50277  0.50929  1.0000
  H   H61       1.0  0.49676  0.49347  0.51670  1.0000
  H   H62       1.0  0.53850  0.53082  0.51468  1.0000
  H   H63       1.0  0.53212  0.49259  0.56565  1.0000
  C   C86       1.0  0.44676  0.93430  0.37569  1.0000
  N   N6        1.0  0.46665  0.96912  0.37481  1.0000
  C   C87       1.0  0.51514  0.02360  0.33840  1.0000
  C   C88       1.0  0.52229  0.04186  0.42148  1.0000
  C   C89       1.0  0.54078  0.07842  0.41874  1.0000
  C   C90       1.0  0.55218  0.09693  0.33690  1.0000
  H   H64       1.0  0.54697  0.09191  0.47797  1.0000
  H   H65       1.0  0.42465  0.92360  0.41305  1.0000
  C   C91       1.0  0.51260  0.02406  0.51025  1.0000
  H   H66       1.0  0.52234  0.00613  0.51551  1.0000
  H   H67       1.0  0.48462  0.00982  0.51736  1.0000
  H   H68       1.0  0.52307  0.04198  0.56677  1.0000
  C   C92       1.0  0.98848  0.49275  0.33725  1.0000
  C   C93       1.0  0.97001  0.47984  0.41967  1.0000
  C   C94       1.0  0.93346  0.46201  0.41676  1.0000
  C   C95       1.0  0.91508  0.45692  0.33550  1.0000
  H   H69       1.0  0.91986  0.45342  0.47560  1.0000
  C   C96       1.0  0.98743  0.48577  0.50860  1.0000
  H   H70       1.0  0.00581  0.51319  0.51751  1.0000
  H   H71       1.0  0.00104  0.47131  0.51249  1.0000
  H   H72       1.0  0.96937  0.47754  0.56494  1.0000
