data_image0
_chemical_formula_structural       C3H2C6H4C3H2C3H2OC2ONC12H8C2OC3H2OH2CNC2NC3NC2NCHOCH2OC2HNO2NC18H13C2HOC2HOC4HNO2
_chemical_formula_sum              "C72 H42 O12 N8"
_cell_length_a       32.3263
_cell_length_b       32.3263
_cell_length_c       14.5199
_cell_angle_alpha    90
_cell_angle_beta     90
_cell_angle_gamma    120

_space_group_name_H-M_alt    "P 1"
_space_group_IT_number       1

loop_
  _space_group_symop_operation_xyz
  'x, y, z'

loop_
  _atom_site_type_symbol
  _atom_site_label
  _atom_site_symmetry_multiplicity
  _atom_site_fract_x
  _atom_site_fract_y
  _atom_site_fract_z
  _atom_site_occupancy
  C   C1        1.0  0.15360  0.58092  0.36664  1.0000
  C   C2        1.0  0.12728  0.60224  0.39922  1.0000
  C   C3        1.0  0.07693  0.57715  0.39899  1.0000
  H   H1        1.0  0.14461  0.63685  0.42185  1.0000
  H   H2        1.0  0.05933  0.59412  0.42193  1.0000
  C   C4        1.0  0.30733  0.65779  0.36665  1.0000
  C   C5        1.0  0.28155  0.63004  0.28999  1.0000
  C   C6        1.0  0.23121  0.60472  0.29018  1.0000
  C   C7        1.0  0.20489  0.60657  0.36665  1.0000
  C   C8        1.0  0.23120  0.63473  0.44313  1.0000
  C   C9        1.0  0.28155  0.65977  0.44331  1.0000
  H   H3        1.0  0.29945  0.62828  0.23341  1.0000
  H   H4        1.0  0.21389  0.58558  0.23268  1.0000
  H   H5        1.0  0.29945  0.67944  0.49989  1.0000
  H   H6        1.0  0.21388  0.63656  0.50061  1.0000
  C   C10       1.0  0.05092  0.52958  0.36664  1.0000
  C   C11       1.0  0.07694  0.50803  0.33430  1.0000
  C   C12       1.0  0.12728  0.53328  0.33406  1.0000
  H   H7        1.0  0.05933  0.47346  0.31135  1.0000
  H   H8        1.0  0.14461  0.51600  0.31143  1.0000
  C   C13       1.0  0.46041  0.58094  0.36667  1.0000
  C   C14       1.0  0.43909  0.53331  0.39925  1.0000
  C   C15       1.0  0.46418  0.50806  0.39902  1.0000
  H   H9        1.0  0.40448  0.51602  0.42188  1.0000
  H   H10       1.0  0.44722  0.47349  0.42196  1.0000
  O   O1        1.0  0.51534  0.47163  0.14853  1.0000
  C   C16       1.0  0.46039  0.88773  0.36668  1.0000
  C   C17       1.0  0.50802  0.91405  0.39926  1.0000
  O   O2        1.0  0.50606  0.05136  0.15306  1.0000
  N   N1        1.0  0.35813  0.68320  0.36666  1.0000
  C   C18       1.0  0.38354  0.65780  0.36667  1.0000
  C   C19       1.0  0.38353  0.73400  0.36666  1.0000
  C   C20       1.0  0.41130  0.65979  0.29002  1.0000
  C   C21       1.0  0.43663  0.63477  0.29021  1.0000
  C   C22       1.0  0.43476  0.60659  0.36667  1.0000
  C   C23       1.0  0.40659  0.60474  0.44314  1.0000
  C   C24       1.0  0.38155  0.63004  0.44331  1.0000
  C   C25       1.0  0.41127  0.75978  0.44333  1.0000
  C   C26       1.0  0.43659  0.81012  0.44315  1.0000
  C   C27       1.0  0.43475  0.83644  0.36667  1.0000
  C   C28       1.0  0.40660  0.81012  0.29018  1.0000
  C   C29       1.0  0.38156  0.75978  0.29000  1.0000
  H   H11       1.0  0.45577  0.63659  0.23272  1.0000
  H   H12       1.0  0.41308  0.67947  0.23344  1.0000
  H   H13       1.0  0.36187  0.62825  0.49988  1.0000
  H   H14       1.0  0.40474  0.58556  0.50061  1.0000
  H   H15       1.0  0.41303  0.74188  0.49992  1.0000
  H   H16       1.0  0.45572  0.82744  0.50065  1.0000
  H   H17       1.0  0.40476  0.82744  0.23269  1.0000
  H   H18       1.0  0.36190  0.74188  0.23342  1.0000
  C   C30       1.0  0.51174  0.52960  0.36667  1.0000
  C   C31       1.0  0.50804  0.60226  0.33409  1.0000
  O   O3        1.0  0.50626  0.46317  0.58043  1.0000
  C   C32       1.0  0.51172  0.99041  0.36668  1.0000
  C   C33       1.0  0.46416  0.96439  0.33433  1.0000
  C   C34       1.0  0.43907  0.91405  0.33409  1.0000
  H   H19       1.0  0.44719  0.98199  0.31138  1.0000
  H   H20       1.0  0.40446  0.89672  0.31145  1.0000
  O   O4        1.0  0.51551  0.05200  0.58493  1.0000
  H   H21       1.0  0.52531  0.89672  0.42190  1.0000
  H   H22       1.0  0.52533  0.63687  0.31146  1.0000
  C   C35       1.0  0.55280  0.49368  0.28257  1.0000
  N   N2        1.0  0.54133  0.50734  0.19778  1.0000
  C   C36       1.0  0.53327  0.96440  0.39903  1.0000
  C   C37       1.0  0.54758  0.06739  0.28259  1.0000
  N   N3        1.0  0.53385  0.04227  0.19780  1.0000
  C   C38       1.0  0.53329  0.57717  0.33433  1.0000
  C   C39       1.0  0.53733  0.50402  0.36667  1.0000
  C   C40       1.0  0.54766  0.48855  0.45077  1.0000
  N   N4        1.0  0.53401  0.50001  0.53556  1.0000
  C   C41       1.0  0.53730  0.04157  0.36668  1.0000
  C   C42       1.0  0.55285  0.06739  0.45076  1.0000
  N   N5        1.0  0.54146  0.04228  0.53555  1.0000
  C   C43       1.0  0.57844  0.46870  0.28397  1.0000
  H   H23       1.0  0.59007  0.46283  0.22248  1.0000
  O   O5        1.0  0.57817  0.53509  0.15291  1.0000
  C   C44       1.0  0.57256  0.11802  0.28399  1.0000
  H   H24       1.0  0.57839  0.13552  0.22251  1.0000
  H   H25       1.0  0.56784  0.98200  0.42197  1.0000
  O   O6        1.0  0.56952  0.05199  0.14842  1.0000
  C   C45       1.0  0.97394  0.48848  0.28255  1.0000
  C   C46       1.0  0.92332  0.46284  0.28395  1.0000
  H   H26       1.0  0.90581  0.45117  0.22247  1.0000
  N   N6        1.0  0.99906  0.49989  0.19776  1.0000
  O   O7        1.0  0.98934  0.52586  0.14842  1.0000
  O   O8        1.0  0.98997  0.46303  0.15298  1.0000
  N   N7        1.0  0.69146  0.34986  0.36665  1.0000
  C   C47       1.0  0.66602  0.37531  0.36666  1.0000
  C   C48       1.0  0.66602  0.29898  0.36667  1.0000
  C   C49       1.0  0.74235  0.37531  0.36665  1.0000
  C   C50       1.0  0.76818  0.40649  0.29384  1.0000
  C   C51       1.0  0.81852  0.43201  0.29442  1.0000
  C   C52       1.0  0.84513  0.42669  0.36663  1.0000
  C   C53       1.0  0.81851  0.39475  0.43885  1.0000
  C   C54       1.0  0.76818  0.36996  0.43945  1.0000
  C   C55       1.0  0.63481  0.36994  0.29389  1.0000
  C   C56       1.0  0.60927  0.39473  0.29450  1.0000
  C   C57       1.0  0.61463  0.42670  0.36666  1.0000
  C   C58       1.0  0.64660  0.43206  0.43883  1.0000
  C   C59       1.0  0.67139  0.40651  0.43943  1.0000
  C   C60       1.0  0.63486  0.27315  0.43949  1.0000
  C   C61       1.0  0.60932  0.22282  0.43889  1.0000
  C   C62       1.0  0.61463  0.19620  0.36668  1.0000
  C   C63       1.0  0.64656  0.22281  0.29446  1.0000
  C   C64       1.0  0.67136  0.27314  0.29386  1.0000
  H   H27       1.0  0.58595  0.38839  0.24163  1.0000
  H   H28       1.0  0.63002  0.34730  0.24055  1.0000
  H   H29       1.0  0.69404  0.41130  0.49276  1.0000
  H   H30       1.0  0.65295  0.45539  0.49169  1.0000
  H   H31       1.0  0.75033  0.41126  0.24049  1.0000
  H   H32       1.0  0.83550  0.45534  0.24156  1.0000
  H   H33       1.0  0.63008  0.29101  0.49283  1.0000
  H   H34       1.0  0.58599  0.20583  0.49177  1.0000
  H   H35       1.0  0.65287  0.20582  0.24156  1.0000
  H   H36       1.0  0.69397  0.29100  0.24048  1.0000
  H   H37       1.0  0.75033  0.34732  0.49279  1.0000
  H   H38       1.0  0.83550  0.38842  0.49172  1.0000
  H   H39       1.0  0.56786  0.59413  0.31136  1.0000
  C   C65       1.0  0.58884  0.45250  0.36667  1.0000
  C   C66       1.0  0.57265  0.46290  0.44936  1.0000
  H   H40       1.0  0.57852  0.45127  0.51085  1.0000
  O   O9        1.0  0.56972  0.52600  0.58480  1.0000
  C   C67       1.0  0.58883  0.14462  0.36668  1.0000
  C   C68       1.0  0.57849  0.11802  0.44935  1.0000
  H   H41       1.0  0.59017  0.13552  0.51083  1.0000
  O   O10       1.0  0.57834  0.05137  0.58029  1.0000
  C   C69       1.0  0.99976  0.50400  0.36664  1.0000
  C   C70       1.0  0.89671  0.45248  0.36664  1.0000
  C   C71       1.0  0.92331  0.46872  0.44933  1.0000
  C   C72       1.0  0.97394  0.49371  0.45073  1.0000
  H   H42       1.0  0.90581  0.46289  0.51080  1.0000
  N   N8        1.0  0.99906  0.50741  0.53553  1.0000
  O   O11       1.0  0.98997  0.53519  0.58031  1.0000
  O   O12       1.0  0.98934  0.47173  0.58486  1.0000
