data_image0
_chemical_formula_structural       C2HC4HNH2NH2NC2HC4HNH2NH2NC2HC4HNH2NH2NC6H3C3H3C6H3C3H3C6H2N2O4NC6H2N2O4NC6H2N2O4N
_chemical_formula_sum              "C54 H36 N18 O12"
_cell_length_a       29.5255
_cell_length_b       29.5255
_cell_length_c       15.0108
_cell_angle_alpha    90
_cell_angle_beta     90
_cell_angle_gamma    120

_space_group_name_H-M_alt    "P 1"
_space_group_IT_number       1

loop_
  _space_group_symop_operation_xyz
  'x, y, z'

loop_
  _atom_site_type_symbol
  _atom_site_label
  _atom_site_symmetry_multiplicity
  _atom_site_fract_x
  _atom_site_fract_y
  _atom_site_fract_z
  _atom_site_occupancy
  C   C1        1.0  0.53854  0.47861  0.26278  1.0000
  C   C2        1.0  0.56691  0.45198  0.27271  1.0000
  H   H1        1.0  0.58433  0.44633  0.21810  1.0000
  C   C3        1.0  0.48633  0.51325  0.33642  1.0000
  C   C4        1.0  0.42587  0.56360  0.32553  1.0000
  C   C5        1.0  0.40629  0.51307  0.28784  1.0000
  C   C6        1.0  0.43701  0.48870  0.29397  1.0000
  H   H2        1.0  0.42319  0.45228  0.26674  1.0000
  N   N1        1.0  0.53559  0.49620  0.18032  1.0000
  H   H3        1.0  0.55237  0.49064  0.12895  1.0000
  H   H4        1.0  0.51856  0.51663  0.17034  1.0000
  N   N2        1.0  0.35931  0.48753  0.24538  1.0000
  H   H5        1.0  0.34657  0.45303  0.21941  1.0000
  H   H6        1.0  0.33710  0.50293  0.23886  1.0000
  N   N3        1.0  0.39667  0.58628  0.32263  1.0000
  C   C7        1.0  0.52049  0.05975  0.26278  1.0000
  C   C8        1.0  0.54712  0.11475  0.27271  1.0000
  H   H7        1.0  0.55275  0.13782  0.21811  1.0000
  C   C9        1.0  0.48586  0.97289  0.33640  1.0000
  C   C10       1.0  0.43550  0.86209  0.32551  1.0000
  C   C11       1.0  0.48604  0.89304  0.28783  1.0000
  C   C12       1.0  0.51041  0.94813  0.29397  1.0000
  H   H8        1.0  0.54683  0.97073  0.26675  1.0000
  N   N4        1.0  0.50289  0.03921  0.18032  1.0000
  H   H9        1.0  0.50851  0.06155  0.12893  1.0000
  H   H10       1.0  0.48254  0.00175  0.17030  1.0000
  N   N5        1.0  0.51157  0.87159  0.24538  1.0000
  H   H11       1.0  0.54607  0.89335  0.21942  1.0000
  H   H12       1.0  0.49617  0.83397  0.23887  1.0000
  N   N6        1.0  0.41281  0.81020  0.32262  1.0000
  C   C13       1.0  0.93933  0.46057  0.26280  1.0000
  C   C14       1.0  0.88433  0.43221  0.27274  1.0000
  H   H13       1.0  0.86126  0.41478  0.21814  1.0000
  C   C15       1.0  0.02620  0.51278  0.33641  1.0000
  C   C16       1.0  0.13700  0.57321  0.32544  1.0000
  C   C17       1.0  0.10605  0.59280  0.28780  1.0000
  C   C18       1.0  0.05096  0.56210  0.29396  1.0000
  H   H14       1.0  0.02836  0.57592  0.26675  1.0000
  N   N7        1.0  0.95987  0.46354  0.18032  1.0000
  H   H15       1.0  0.93752  0.44676  0.12896  1.0000
  H   H16       1.0  0.99732  0.48056  0.17034  1.0000
  N   N8        1.0  0.12750  0.63979  0.24533  1.0000
  H   H17       1.0  0.10573  0.65250  0.21931  1.0000
  H   H18       1.0  0.16511  0.66196  0.23869  1.0000
  N   N9        1.0  0.18889  0.60242  0.32257  1.0000
  C   C19       1.0  0.37060  0.64954  0.31642  1.0000
  C   C20       1.0  0.38627  0.70333  0.31638  1.0000
  C   C21       1.0  0.34955  0.72088  0.31642  1.0000
  C   C22       1.0  0.29576  0.68276  0.31634  1.0000
  C   C23       1.0  0.27821  0.62849  0.31638  1.0000
  C   C24       1.0  0.31633  0.61282  0.31633  1.0000
  H   H19       1.0  0.26874  0.69489  0.31664  1.0000
  H   H20       1.0  0.30420  0.57366  0.31664  1.0000
  H   H21       1.0  0.42542  0.73035  0.31670  1.0000
  C   C25       1.0  0.36465  0.77381  0.31748  1.0000
  C   C26       1.0  0.22528  0.59065  0.31742  1.0000
  C   C27       1.0  0.40844  0.63444  0.31748  1.0000
  H   H22       1.0  0.44601  0.66184  0.31359  1.0000
  H   H23       1.0  0.21510  0.55308  0.31349  1.0000
  H   H24       1.0  0.33725  0.78399  0.31359  1.0000
  C   C28       1.0  0.63014  0.35178  0.33545  1.0000
  C   C29       1.0  0.61207  0.29751  0.33526  1.0000
  C   C30       1.0  0.64731  0.27819  0.33546  1.0000
  C   C31       1.0  0.70158  0.31439  0.33527  1.0000
  C   C32       1.0  0.72091  0.36895  0.33554  1.0000
  C   C33       1.0  0.68470  0.38701  0.33524  1.0000
  H   H25       1.0  0.72740  0.30077  0.33179  1.0000
  H   H26       1.0  0.69833  0.42645  0.33175  1.0000
  H   H27       1.0  0.57264  0.27169  0.33171  1.0000
  C   C34       1.0  0.62970  0.22524  0.32642  1.0000
  C   C35       1.0  0.77386  0.40429  0.32647  1.0000
  C   C36       1.0  0.59482  0.36941  0.32638  1.0000
  H   H28       1.0  0.56322  0.34895  0.28856  1.0000
  H   H29       1.0  0.78500  0.43587  0.28860  1.0000
  H   H30       1.0  0.65016  0.21410  0.28858  1.0000
  C   C37       1.0  0.57326  0.43415  0.35650  1.0000
  C   C38       1.0  0.55152  0.44351  0.43327  1.0000
  C   C39       1.0  0.52226  0.46920  0.42381  1.0000
  C   C40       1.0  0.51559  0.48695  0.33995  1.0000
  C   C41       1.0  0.50537  0.56326  0.37532  1.0000
  C   C42       1.0  0.47471  0.58765  0.36973  1.0000
  H   H31       1.0  0.48834  0.62341  0.39913  1.0000
  H   H32       1.0  0.50594  0.47525  0.47955  1.0000
  N   N10       1.0  0.55478  0.58815  0.41803  1.0000
  N   N11       1.0  0.55916  0.42647  0.51717  1.0000
  O   O1        1.0  0.55082  0.59673  0.49885  1.0000
  O   O2        1.0  0.58270  0.46421  0.57001  1.0000
  O   O3        1.0  0.58590  0.63070  0.38092  1.0000
  O   O4        1.0  0.51636  0.39380  0.55179  1.0000
  N   N12       1.0  0.60259  0.41192  0.36360  1.0000
  C   C43       1.0  0.56496  0.13893  0.35650  1.0000
  C   C44       1.0  0.55561  0.10783  0.43326  1.0000
  C   C45       1.0  0.52993  0.05287  0.42380  1.0000
  C   C46       1.0  0.51218  0.02847  0.33993  1.0000
  C   C47       1.0  0.43585  0.94193  0.37530  1.0000
  C   C48       1.0  0.41146  0.88689  0.36969  1.0000
  H   H33       1.0  0.37569  0.86476  0.39910  1.0000
  H   H34       1.0  0.52388  0.03050  0.47953  1.0000
  N   N13       1.0  0.41096  0.96646  0.41800  1.0000
  N   N14       1.0  0.57265  0.13250  0.51717  1.0000
  O   O5        1.0  0.40238  0.95392  0.49881  1.0000
  O   O6        1.0  0.53491  0.11829  0.57001  1.0000
  O   O7        1.0  0.36842  0.95504  0.38088  1.0000
  O   O8        1.0  0.60533  0.12238  0.55178  1.0000
  N   N15       1.0  0.58718  0.19049  0.36362  1.0000
  C   C49       1.0  0.86017  0.42584  0.35654  1.0000
  C   C50       1.0  0.89127  0.44759  0.43330  1.0000
  C   C51       1.0  0.94623  0.47687  0.42383  1.0000
  C   C52       1.0  0.97063  0.48353  0.33995  1.0000
  C   C53       1.0  0.05717  0.49373  0.37530  1.0000
  C   C54       1.0  0.11221  0.52438  0.36967  1.0000
  H   H35       1.0  0.13434  0.51075  0.39907  1.0000
  H   H36       1.0  0.96860  0.49318  0.47956  1.0000
  N   N16       1.0  0.03264  0.44433  0.41801  1.0000
  N   N17       1.0  0.86661  0.43994  0.51722  1.0000
  O   O9        1.0  0.04520  0.44829  0.49882  1.0000
  O   O10       1.0  0.88082  0.41641  0.57003  1.0000
  O   O11       1.0  0.04405  0.41319  0.38090  1.0000
  O   O12       1.0  0.87672  0.48274  0.55185  1.0000
  N   N18       1.0  0.80861  0.39652  0.36368  1.0000
