data_image0
_chemical_formula_structural       C4HC2N2C2HCNC3NC4HC2N2C2HCNC3NOCHO2NC2NH2CH2C3NCNOCHO2NC2NH2CH2C3NCNC11HNC2N2C2NC4HC3NC2NC2NC2NC11HNC2N2C2NC4HC3NC2NC2NC2NC4OHC3OH2CONC2N2C2NC2H4C2H2C2NC2NC2NC2NC4OHC3OH2CONC2N2C2NC2H4C2H2C2NC2NC2NC2NC4HOC4OHC4HOC4OHC4HOC4OHNC2N2C2N2C2N2C2N2C2N2C2NC4H4C4H4C4H4C2NC2NC2NC2NC2NC2NC2NC2NC2NC2NC2NC2NC4HOC4OHC4HOC4OHC4HOC4OHNC2N2C2N2C2N2C2N2C2N2C2NC4H4C4H4C4H4C2NC2NC2NC2NC2NC2NC2NC2NC2NC2NC2NC2N
_chemical_formula_sum              "C288 H72 N96 O24"
_cell_length_a       46.5407
_cell_length_b       46.5407
_cell_length_c       14.8274
_cell_angle_alpha    90
_cell_angle_beta     90
_cell_angle_gamma    120

_space_group_name_H-M_alt    "P 1"
_space_group_IT_number       1

loop_
  _space_group_symop_operation_xyz
  'x, y, z'

loop_
  _atom_site_type_symbol
  _atom_site_label
  _atom_site_symmetry_multiplicity
  _atom_site_fract_x
  _atom_site_fract_y
  _atom_site_fract_z
  _atom_site_occupancy
  C   C1        1.0  0.02675  0.26478  0.34406  1.0000
  C   C2        1.0  0.04608  0.30033  0.34574  1.0000
  C   C3        1.0  0.08119  0.31836  0.34451  1.0000
  C   C4        1.0  0.09843  0.30058  0.34363  1.0000
  H   H1        1.0  0.03499  0.31440  0.34806  1.0000
  C   C5        1.0  0.11748  0.25029  0.25849  1.0000
  C   C6        1.0  0.10959  0.25540  0.17821  1.0000
  N   N1        1.0  0.10263  0.26006  0.10759  1.0000
  N   N2        1.0  0.11607  0.36735  0.26591  1.0000
  C   C7        1.0  0.08114  0.26555  0.34157  1.0000
  C   C8        1.0  0.04602  0.24851  0.34175  1.0000
  H   H2        1.0  0.03488  0.22335  0.33880  1.0000
  C   C9        1.0  0.09985  0.24912  0.33797  1.0000
  N   N3        1.0  0.11475  0.24891  0.41687  1.0000
  C   C10       1.0  0.09994  0.35351  0.34455  1.0000
  C   C11       1.0  0.11618  0.37141  0.42391  1.0000
  C   C12       1.0  0.10722  0.35955  0.50504  1.0000
  N   N4        1.0  0.09941  0.34886  0.57641  1.0000
  C   C13       1.0  0.02675  0.76478  0.34406  1.0000
  C   C14       1.0  0.04608  0.80033  0.34574  1.0000
  C   C15       1.0  0.08119  0.81836  0.34451  1.0000
  C   C16       1.0  0.09843  0.80058  0.34363  1.0000
  H   H3        1.0  0.03499  0.81440  0.34806  1.0000
  C   C17       1.0  0.11748  0.75029  0.25849  1.0000
  C   C18       1.0  0.10958  0.75540  0.17821  1.0000
  N   N5        1.0  0.10263  0.76006  0.10759  1.0000
  N   N6        1.0  0.11607  0.86735  0.26591  1.0000
  C   C19       1.0  0.08114  0.76555  0.34157  1.0000
  C   C20       1.0  0.04603  0.74851  0.34175  1.0000
  H   H4        1.0  0.03489  0.72335  0.33880  1.0000
  C   C21       1.0  0.09984  0.74912  0.33797  1.0000
  N   N7        1.0  0.11474  0.74891  0.41687  1.0000
  C   C22       1.0  0.09994  0.85351  0.34455  1.0000
  C   C23       1.0  0.11618  0.87141  0.42391  1.0000
  C   C24       1.0  0.10722  0.85955  0.50504  1.0000
  N   N8        1.0  0.09940  0.84886  0.57641  1.0000
  O   O1        1.0  0.13232  0.31751  0.34377  1.0000
  C   C25       1.0  0.19612  0.26563  0.34458  1.0000
  H   H5        1.0  0.20013  0.22342  0.34857  1.0000
  O   O2        1.0  0.19692  0.31760  0.34410  1.0000
  O   O3        1.0  0.19679  0.38228  0.34308  1.0000
  N   N9        1.0  0.14726  0.25172  0.26668  1.0000
  C   C26       1.0  0.14435  0.39718  0.25759  1.0000
  C   C27       1.0  0.15733  0.40522  0.17733  1.0000
  N   N10       1.0  0.16893  0.41231  0.10671  1.0000
  H   H6        1.0  0.13889  0.32006  0.40761  1.0000
  H   H7        1.0  0.19439  0.32158  0.40798  1.0000
  C   C28       1.0  0.19604  0.43348  0.34129  1.0000
  H   H8        1.0  0.19284  0.37565  0.40687  1.0000
  H   H9        1.0  0.20013  0.47974  0.33800  1.0000
  C   C29       1.0  0.16095  0.24915  0.34531  1.0000
  C   C30       1.0  0.14307  0.24738  0.42473  1.0000
  C   C31       1.0  0.15497  0.25005  0.50572  1.0000
  N   N11       1.0  0.16567  0.25271  0.57699  1.0000
  C   C32       1.0  0.16091  0.41484  0.33684  1.0000
  N   N12       1.0  0.14598  0.39980  0.41586  1.0000
  O   O4        1.0  0.13232  0.81751  0.34377  1.0000
  C   C33       1.0  0.19612  0.76563  0.34458  1.0000
  H   H10       1.0  0.20013  0.72342  0.34857  1.0000
  O   O5        1.0  0.19692  0.81759  0.34410  1.0000
  O   O6        1.0  0.19679  0.88228  0.34308  1.0000
  N   N13       1.0  0.14726  0.75172  0.26668  1.0000
  C   C34       1.0  0.14435  0.89718  0.25759  1.0000
  C   C35       1.0  0.15733  0.90522  0.17733  1.0000
  N   N14       1.0  0.16893  0.91231  0.10671  1.0000
  H   H11       1.0  0.13889  0.82006  0.40761  1.0000
  H   H12       1.0  0.19439  0.82158  0.40798  1.0000
  C   C36       1.0  0.19604  0.93348  0.34129  1.0000
  H   H13       1.0  0.19284  0.87565  0.40687  1.0000
  H   H14       1.0  0.20014  0.97974  0.33800  1.0000
  C   C37       1.0  0.16095  0.74915  0.34531  1.0000
  C   C38       1.0  0.14307  0.74738  0.42473  1.0000
  C   C39       1.0  0.15497  0.75005  0.50572  1.0000
  N   N15       1.0  0.16567  0.75271  0.57699  1.0000
  C   C40       1.0  0.16091  0.91484  0.33684  1.0000
  N   N16       1.0  0.14598  0.89980  0.41586  1.0000
  C   C41       1.0  0.24971  0.26482  0.34388  1.0000
  C   C42       1.0  0.21417  0.24857  0.34590  1.0000
  C   C43       1.0  0.21388  0.30066  0.34375  1.0000
  C   C44       1.0  0.26773  0.24680  0.34388  1.0000
  C   C45       1.0  0.24968  0.48785  0.34397  1.0000
  C   C46       1.0  0.26589  0.46852  0.34592  1.0000
  C   C47       1.0  0.24879  0.43341  0.34439  1.0000
  C   C48       1.0  0.21376  0.41617  0.34321  1.0000
  C   C49       1.0  0.26774  0.02388  0.34399  1.0000
  C   C50       1.0  0.26859  0.07831  0.34464  1.0000
  C   C51       1.0  0.25152  0.04320  0.34599  1.0000
  H   H15       1.0  0.22636  0.03211  0.34872  1.0000
  N   N17       1.0  0.26277  0.39838  0.26610  1.0000
  C   C52       1.0  0.26419  0.37003  0.25812  1.0000
  C   C53       1.0  0.25933  0.35706  0.17785  1.0000
  N   N18       1.0  0.25487  0.34547  0.10723  1.0000
  N   N19       1.0  0.25475  0.11327  0.26679  1.0000
  C   C54       1.0  0.25334  0.14162  0.25825  1.0000
  C   C55       1.0  0.25853  0.15461  0.17795  1.0000
  N   N20       1.0  0.26326  0.16622  0.10731  1.0000
  C   C56       1.0  0.24890  0.31841  0.34145  1.0000
  C   C57       1.0  0.26596  0.30036  0.34127  1.0000
  C   C58       1.0  0.25149  0.21126  0.34135  1.0000
  C   C59       1.0  0.26856  0.19322  0.34135  1.0000
  H   H16       1.0  0.22634  0.19723  0.33810  1.0000
  C   C60       1.0  0.21413  0.46859  0.34133  1.0000
  C   C61       1.0  0.26518  0.41465  0.34456  1.0000
  C   C62       1.0  0.26533  0.35352  0.33755  1.0000
  N   N21       1.0  0.26541  0.36868  0.41629  1.0000
  C   C63       1.0  0.26691  0.39853  0.42409  1.0000
  C   C64       1.0  0.26420  0.40771  0.50511  1.0000
  N   N22       1.0  0.26150  0.41571  0.57641  1.0000
  C   C65       1.0  0.25212  0.09699  0.34548  1.0000
  C   C66       1.0  0.25213  0.15808  0.33762  1.0000
  N   N23       1.0  0.25191  0.14309  0.41672  1.0000
  C   C67       1.0  0.25038  0.11323  0.42468  1.0000
  C   C68       1.0  0.25305  0.10405  0.50572  1.0000
  N   N24       1.0  0.25570  0.09604  0.57704  1.0000
  C   C69       1.0  0.24971  0.76482  0.34388  1.0000
  C   C70       1.0  0.21417  0.74857  0.34590  1.0000
  C   C71       1.0  0.21388  0.80066  0.34375  1.0000
  C   C72       1.0  0.26773  0.74680  0.34388  1.0000
  C   C73       1.0  0.24968  0.98785  0.34397  1.0000
  C   C74       1.0  0.26588  0.96852  0.34592  1.0000
  C   C75       1.0  0.24879  0.93341  0.34439  1.0000
  C   C76       1.0  0.21376  0.91617  0.34321  1.0000
  C   C77       1.0  0.26774  0.52388  0.34399  1.0000
  C   C78       1.0  0.26859  0.57831  0.34464  1.0000
  C   C79       1.0  0.25152  0.54320  0.34599  1.0000
  H   H17       1.0  0.22636  0.53211  0.34872  1.0000
  N   N25       1.0  0.26277  0.89838  0.26610  1.0000
  C   C80       1.0  0.26419  0.87003  0.25812  1.0000
  C   C81       1.0  0.25933  0.85706  0.17785  1.0000
  N   N26       1.0  0.25487  0.84547  0.10723  1.0000
  N   N27       1.0  0.25475  0.61327  0.26679  1.0000
  C   C82       1.0  0.25334  0.64162  0.25825  1.0000
  C   C83       1.0  0.25853  0.65461  0.17795  1.0000
  N   N28       1.0  0.26326  0.66622  0.10731  1.0000
  C   C84       1.0  0.24890  0.81841  0.34145  1.0000
  C   C85       1.0  0.26596  0.80036  0.34127  1.0000
  C   C86       1.0  0.25149  0.71126  0.34135  1.0000
  C   C87       1.0  0.26856  0.69322  0.34135  1.0000
  H   H18       1.0  0.22634  0.69723  0.33810  1.0000
  C   C88       1.0  0.21413  0.96859  0.34133  1.0000
  C   C89       1.0  0.26518  0.91465  0.34456  1.0000
  C   C90       1.0  0.26533  0.85353  0.33755  1.0000
  N   N29       1.0  0.26541  0.86868  0.41629  1.0000
  C   C91       1.0  0.26691  0.89853  0.42409  1.0000
  C   C92       1.0  0.26420  0.90771  0.50511  1.0000
  N   N30       1.0  0.26151  0.91571  0.57641  1.0000
  C   C93       1.0  0.25212  0.59699  0.34548  1.0000
  C   C94       1.0  0.25213  0.65808  0.33762  1.0000
  N   N31       1.0  0.25191  0.64309  0.41672  1.0000
  C   C95       1.0  0.25038  0.61323  0.42468  1.0000
  C   C96       1.0  0.25305  0.60405  0.50572  1.0000
  N   N32       1.0  0.25570  0.59604  0.57704  1.0000
  C   C97       1.0  0.49072  0.24679  0.34401  1.0000
  C   C98       1.0  0.41903  0.21102  0.34303  1.0000
  C   C99       1.0  0.43627  0.19323  0.34422  1.0000
  C   C100      1.0  0.47138  0.21125  0.34584  1.0000
  O   O7        1.0  0.38515  0.19411  0.34305  1.0000
  H   H19       1.0  0.48246  0.19718  0.34848  1.0000
  C   C101      1.0  0.30358  0.21097  0.34367  1.0000
  C   C102      1.0  0.32133  0.24601  0.34451  1.0000
  C   C103      1.0  0.30327  0.26305  0.34582  1.0000
  O   O8        1.0  0.32054  0.19405  0.34406  1.0000
  H   H20       1.0  0.31731  0.28821  0.34848  1.0000
  H   H21       1.0  0.29104  0.47961  0.34860  1.0000
  C   C104      1.0  0.30362  0.09556  0.34386  1.0000
  O   O9        1.0  0.32057  0.12945  0.34425  1.0000
  N   N33       1.0  0.37012  0.25992  0.26653  1.0000
  C   C105      1.0  0.39986  0.26131  0.25792  1.0000
  C   C106      1.0  0.40770  0.25620  0.17759  1.0000
  N   N34       1.0  0.41461  0.25153  0.10692  1.0000
  N   N35       1.0  0.40125  0.14430  0.26601  1.0000
  C   C107      1.0  0.37288  0.11454  0.25800  1.0000
  C   C108      1.0  0.35986  0.10643  0.17778  1.0000
  N   N36       1.0  0.34823  0.09929  0.10720  1.0000
  C   C109      1.0  0.47146  0.26308  0.34143  1.0000
  C   C110      1.0  0.43635  0.24605  0.34112  1.0000
  H   H22       1.0  0.37855  0.19150  0.40687  1.0000
  H   H23       1.0  0.48260  0.28823  0.33840  1.0000
  H   H24       1.0  0.32305  0.19006  0.40795  1.0000
  H   H25       1.0  0.29111  0.31439  0.33797  1.0000
  C   C111      1.0  0.30328  0.04316  0.34138  1.0000
  C   C112      1.0  0.32136  0.07827  0.34153  1.0000
  H   H26       1.0  0.32452  0.13595  0.40813  1.0000
  H   H27       1.0  0.31729  0.03202  0.33806  1.0000
  C   C113      1.0  0.35649  0.26250  0.34529  1.0000
  C   C114      1.0  0.41771  0.26253  0.33695  1.0000
  N   N37       1.0  0.40278  0.26263  0.41599  1.0000
  C   C115      1.0  0.37450  0.26422  0.42435  1.0000
  C   C116      1.0  0.36264  0.26126  0.50549  1.0000
  N   N38       1.0  0.35197  0.25835  0.57689  1.0000
  C   C117      1.0  0.41749  0.15806  0.34457  1.0000
  C   C118      1.0  0.35650  0.09698  0.33759  1.0000
  N   N39       1.0  0.37157  0.11190  0.41650  1.0000
  C   C119      1.0  0.40143  0.14025  0.42417  1.0000
  C   C120      1.0  0.41068  0.15216  0.50514  1.0000
  N   N40       1.0  0.41875  0.16287  0.57640  1.0000
  C   C121      1.0  0.49072  0.74679  0.34401  1.0000
  C   C122      1.0  0.41903  0.71103  0.34303  1.0000
  C   C123      1.0  0.43627  0.69323  0.34422  1.0000
  C   C124      1.0  0.47138  0.71125  0.34584  1.0000
  O   O10       1.0  0.38515  0.69411  0.34305  1.0000
  H   H28       1.0  0.48246  0.69718  0.34848  1.0000
  C   C125      1.0  0.30358  0.71098  0.34367  1.0000
  C   C126      1.0  0.32133  0.74601  0.34451  1.0000
  C   C127      1.0  0.30327  0.76305  0.34582  1.0000
  O   O11       1.0  0.32054  0.69405  0.34406  1.0000
  H   H29       1.0  0.31731  0.78821  0.34848  1.0000
  H   H30       1.0  0.29104  0.97960  0.34860  1.0000
  C   C128      1.0  0.30362  0.59556  0.34386  1.0000
  O   O12       1.0  0.32057  0.62945  0.34425  1.0000
  N   N41       1.0  0.37012  0.75992  0.26653  1.0000
  C   C129      1.0  0.39986  0.76131  0.25792  1.0000
  C   C130      1.0  0.40770  0.75620  0.17759  1.0000
  N   N42       1.0  0.41461  0.75153  0.10692  1.0000
  N   N43       1.0  0.40125  0.64431  0.26601  1.0000
  C   C131      1.0  0.37288  0.61454  0.25800  1.0000
  C   C132      1.0  0.35986  0.60642  0.17778  1.0000
  N   N44       1.0  0.34824  0.59929  0.10720  1.0000
  C   C133      1.0  0.47146  0.76308  0.34143  1.0000
  C   C134      1.0  0.43635  0.74605  0.34112  1.0000
  H   H31       1.0  0.37855  0.69150  0.40687  1.0000
  H   H32       1.0  0.48260  0.78823  0.33840  1.0000
  H   H33       1.0  0.32306  0.69006  0.40795  1.0000
  H   H34       1.0  0.29111  0.81439  0.33797  1.0000
  C   C135      1.0  0.30328  0.54316  0.34138  1.0000
  C   C136      1.0  0.32136  0.57827  0.34153  1.0000
  H   H35       1.0  0.32452  0.63595  0.40813  1.0000
  H   H36       1.0  0.31729  0.53202  0.33806  1.0000
  C   C137      1.0  0.35649  0.76250  0.34529  1.0000
  C   C138      1.0  0.41771  0.76253  0.33695  1.0000
  N   N45       1.0  0.40279  0.76263  0.41599  1.0000
  C   C139      1.0  0.37450  0.76422  0.42435  1.0000
  C   C140      1.0  0.36264  0.76126  0.50549  1.0000
  N   N46       1.0  0.35197  0.75835  0.57689  1.0000
  C   C141      1.0  0.41750  0.65806  0.34457  1.0000
  C   C142      1.0  0.35650  0.59698  0.33759  1.0000
  N   N47       1.0  0.37157  0.61190  0.41650  1.0000
  C   C143      1.0  0.40143  0.64025  0.42417  1.0000
  C   C144      1.0  0.41068  0.65216  0.50514  1.0000
  N   N48       1.0  0.41875  0.66288  0.57640  1.0000
  C   C145      1.0  0.52675  0.26478  0.34406  1.0000
  C   C146      1.0  0.54608  0.30033  0.34574  1.0000
  C   C147      1.0  0.58119  0.31836  0.34451  1.0000
  C   C148      1.0  0.59844  0.30058  0.34363  1.0000
  H   H37       1.0  0.53499  0.31440  0.34806  1.0000
  O   O13       1.0  0.63232  0.31751  0.34377  1.0000
  C   C149      1.0  0.99072  0.24679  0.34401  1.0000
  C   C150      1.0  0.91904  0.21102  0.34303  1.0000
  C   C151      1.0  0.93627  0.19323  0.34422  1.0000
  C   C152      1.0  0.97138  0.21125  0.34584  1.0000
  O   O14       1.0  0.88515  0.19411  0.34305  1.0000
  H   H38       1.0  0.98247  0.19718  0.34848  1.0000
  C   C153      1.0  0.74971  0.26482  0.34388  1.0000
  C   C154      1.0  0.71417  0.24857  0.34590  1.0000
  C   C155      1.0  0.69612  0.26563  0.34458  1.0000
  C   C156      1.0  0.71388  0.30066  0.34375  1.0000
  H   H39       1.0  0.70013  0.22342  0.34857  1.0000
  O   O15       1.0  0.69693  0.31760  0.34410  1.0000
  C   C157      1.0  0.76773  0.24680  0.34388  1.0000
  C   C158      1.0  0.80358  0.21097  0.34367  1.0000
  C   C159      1.0  0.82133  0.24601  0.34451  1.0000
  C   C160      1.0  0.80327  0.26305  0.34582  1.0000
  O   O16       1.0  0.82054  0.19405  0.34406  1.0000
  H   H40       1.0  0.81731  0.28821  0.34848  1.0000
  C   C161      1.0  0.74968  0.48785  0.34397  1.0000
  C   C162      1.0  0.76589  0.46852  0.34592  1.0000
  C   C163      1.0  0.74879  0.43341  0.34439  1.0000
  C   C164      1.0  0.71376  0.41617  0.34321  1.0000
  H   H41       1.0  0.79104  0.47961  0.34860  1.0000
  O   O17       1.0  0.69679  0.38228  0.34308  1.0000
  C   C165      1.0  0.76774  0.02388  0.34399  1.0000
  C   C166      1.0  0.80362  0.09556  0.34386  1.0000
  C   C167      1.0  0.76859  0.07831  0.34464  1.0000
  C   C168      1.0  0.75152  0.04320  0.34599  1.0000
  O   O18       1.0  0.82057  0.12945  0.34425  1.0000
  H   H42       1.0  0.72636  0.03211  0.34872  1.0000
  N   N49       1.0  0.64726  0.25172  0.26668  1.0000
  C   C169      1.0  0.61748  0.25029  0.25849  1.0000
  C   C170      1.0  0.60959  0.25540  0.17821  1.0000
  N   N50       1.0  0.60263  0.26006  0.10759  1.0000
  N   N51       1.0  0.76277  0.39838  0.26610  1.0000
  C   C171      1.0  0.76419  0.37003  0.25812  1.0000
  C   C172      1.0  0.75933  0.35706  0.17785  1.0000
  N   N52       1.0  0.75487  0.34547  0.10723  1.0000
  N   N53       1.0  0.61607  0.36735  0.26591  1.0000
  C   C173      1.0  0.64435  0.39718  0.25759  1.0000
  C   C174      1.0  0.65733  0.40522  0.17733  1.0000
  N   N54       1.0  0.66893  0.41231  0.10671  1.0000
  N   N55       1.0  0.87012  0.25992  0.26653  1.0000
  C   C175      1.0  0.89986  0.26131  0.25792  1.0000
  C   C176      1.0  0.90770  0.25620  0.17759  1.0000
  N   N56       1.0  0.91461  0.25153  0.10692  1.0000
  N   N57       1.0  0.75475  0.11327  0.26679  1.0000
  C   C177      1.0  0.75334  0.14162  0.25825  1.0000
  C   C178      1.0  0.75853  0.15461  0.17795  1.0000
  N   N58       1.0  0.76326  0.16622  0.10731  1.0000
  N   N59       1.0  0.90125  0.14430  0.26601  1.0000
  C   C179      1.0  0.87288  0.11454  0.25800  1.0000
  C   C180      1.0  0.85986  0.10643  0.17778  1.0000
  N   N60       1.0  0.84824  0.09929  0.10720  1.0000
  C   C181      1.0  0.58114  0.26555  0.34157  1.0000
  C   C182      1.0  0.54602  0.24851  0.34175  1.0000
  C   C183      1.0  0.97146  0.26308  0.34143  1.0000
  C   C184      1.0  0.93635  0.24605  0.34112  1.0000
  H   H43       1.0  0.63889  0.32006  0.40761  1.0000
  H   H44       1.0  0.87855  0.19150  0.40687  1.0000
  H   H45       1.0  0.53488  0.22335  0.33880  1.0000
  H   H46       1.0  0.98260  0.28823  0.33840  1.0000
  C   C185      1.0  0.74890  0.31841  0.34145  1.0000
  C   C186      1.0  0.76596  0.30036  0.34127  1.0000
  C   C187      1.0  0.75149  0.21126  0.34135  1.0000
  C   C188      1.0  0.76856  0.19322  0.34135  1.0000
  H   H47       1.0  0.69439  0.32158  0.40798  1.0000
  H   H48       1.0  0.82306  0.19006  0.40795  1.0000
  H   H49       1.0  0.79111  0.31439  0.33797  1.0000
  H   H50       1.0  0.72634  0.19723  0.33810  1.0000
  C   C189      1.0  0.69604  0.43348  0.34129  1.0000
  C   C190      1.0  0.71413  0.46859  0.34133  1.0000
  C   C191      1.0  0.80328  0.04316  0.34138  1.0000
  C   C192      1.0  0.82136  0.07827  0.34153  1.0000
  H   H51       1.0  0.69284  0.37565  0.40687  1.0000
  H   H52       1.0  0.82452  0.13595  0.40813  1.0000
  H   H53       1.0  0.70013  0.47974  0.33800  1.0000
  H   H54       1.0  0.81729  0.03202  0.33806  1.0000
  C   C193      1.0  0.66095  0.24915  0.34531  1.0000
  C   C194      1.0  0.59984  0.24912  0.33797  1.0000
  N   N61       1.0  0.61475  0.24891  0.41687  1.0000
  C   C195      1.0  0.64307  0.24738  0.42473  1.0000
  C   C196      1.0  0.65497  0.25005  0.50572  1.0000
  N   N62       1.0  0.66567  0.25271  0.57699  1.0000
  C   C197      1.0  0.76518  0.41465  0.34456  1.0000
  C   C198      1.0  0.76533  0.35352  0.33755  1.0000
  N   N63       1.0  0.76541  0.36868  0.41629  1.0000
  C   C199      1.0  0.76691  0.39853  0.42409  1.0000
  C   C200      1.0  0.76420  0.40771  0.50511  1.0000
  N   N64       1.0  0.76151  0.41571  0.57641  1.0000
  C   C201      1.0  0.59994  0.35351  0.34455  1.0000
  C   C202      1.0  0.66091  0.41484  0.33684  1.0000
  N   N65       1.0  0.64598  0.39980  0.41586  1.0000
  C   C203      1.0  0.61618  0.37141  0.42391  1.0000
  C   C204      1.0  0.60722  0.35955  0.50504  1.0000
  N   N66       1.0  0.59941  0.34886  0.57641  1.0000
  C   C205      1.0  0.85649  0.26250  0.34529  1.0000
  C   C206      1.0  0.91771  0.26253  0.33695  1.0000
  N   N67       1.0  0.90278  0.26263  0.41599  1.0000
  C   C207      1.0  0.87450  0.26422  0.42435  1.0000
  C   C208      1.0  0.86264  0.26126  0.50549  1.0000
  N   N68       1.0  0.85197  0.25835  0.57689  1.0000
  C   C209      1.0  0.75212  0.09699  0.34548  1.0000
  C   C210      1.0  0.75213  0.15808  0.33762  1.0000
  N   N69       1.0  0.75191  0.14309  0.41672  1.0000
  C   C211      1.0  0.75038  0.11323  0.42468  1.0000
  C   C212      1.0  0.75305  0.10405  0.50572  1.0000
  N   N70       1.0  0.75570  0.09604  0.57704  1.0000
  C   C213      1.0  0.91749  0.15806  0.34457  1.0000
  C   C214      1.0  0.85650  0.09698  0.33759  1.0000
  N   N71       1.0  0.87157  0.11190  0.41650  1.0000
  C   C215      1.0  0.90143  0.14025  0.42417  1.0000
  C   C216      1.0  0.91068  0.15216  0.50514  1.0000
  N   N72       1.0  0.91875  0.16287  0.57640  1.0000
  C   C217      1.0  0.52675  0.76478  0.34406  1.0000
  C   C218      1.0  0.54608  0.80033  0.34574  1.0000
  C   C219      1.0  0.58119  0.81836  0.34451  1.0000
  C   C220      1.0  0.59844  0.80058  0.34363  1.0000
  H   H55       1.0  0.53499  0.81440  0.34806  1.0000
  O   O19       1.0  0.63232  0.81751  0.34377  1.0000
  C   C221      1.0  0.99072  0.74679  0.34401  1.0000
  C   C222      1.0  0.91904  0.71103  0.34303  1.0000
  C   C223      1.0  0.93627  0.69323  0.34422  1.0000
  C   C224      1.0  0.97138  0.71125  0.34584  1.0000
  O   O20       1.0  0.88515  0.69411  0.34305  1.0000
  H   H56       1.0  0.98246  0.69718  0.34848  1.0000
  C   C225      1.0  0.74971  0.76482  0.34388  1.0000
  C   C226      1.0  0.71417  0.74857  0.34590  1.0000
  C   C227      1.0  0.69612  0.76563  0.34458  1.0000
  C   C228      1.0  0.71388  0.80066  0.34375  1.0000
  H   H57       1.0  0.70013  0.72342  0.34857  1.0000
  O   O21       1.0  0.69693  0.81759  0.34410  1.0000
  C   C229      1.0  0.76773  0.74680  0.34388  1.0000
  C   C230      1.0  0.80358  0.71098  0.34367  1.0000
  C   C231      1.0  0.82133  0.74601  0.34451  1.0000
  C   C232      1.0  0.80327  0.76305  0.34582  1.0000
  O   O22       1.0  0.82054  0.69405  0.34406  1.0000
  H   H58       1.0  0.81731  0.78821  0.34848  1.0000
  C   C233      1.0  0.74968  0.98785  0.34397  1.0000
  C   C234      1.0  0.76589  0.96852  0.34592  1.0000
  C   C235      1.0  0.74879  0.93341  0.34439  1.0000
  C   C236      1.0  0.71376  0.91617  0.34321  1.0000
  H   H59       1.0  0.79104  0.97960  0.34860  1.0000
  O   O23       1.0  0.69679  0.88228  0.34308  1.0000
  C   C237      1.0  0.76774  0.52388  0.34399  1.0000
  C   C238      1.0  0.80362  0.59556  0.34386  1.0000
  C   C239      1.0  0.76859  0.57831  0.34464  1.0000
  C   C240      1.0  0.75152  0.54320  0.34599  1.0000
  O   O24       1.0  0.82057  0.62945  0.34425  1.0000
  H   H60       1.0  0.72636  0.53211  0.34872  1.0000
  N   N73       1.0  0.64726  0.75172  0.26668  1.0000
  C   C241      1.0  0.61748  0.75029  0.25849  1.0000
  C   C242      1.0  0.60959  0.75540  0.17821  1.0000
  N   N74       1.0  0.60263  0.76006  0.10759  1.0000
  N   N75       1.0  0.76277  0.89838  0.26610  1.0000
  C   C243      1.0  0.76419  0.87003  0.25812  1.0000
  C   C244      1.0  0.75933  0.85706  0.17785  1.0000
  N   N76       1.0  0.75487  0.84547  0.10723  1.0000
  N   N77       1.0  0.61607  0.86735  0.26591  1.0000
  C   C245      1.0  0.64435  0.89718  0.25759  1.0000
  C   C246      1.0  0.65733  0.90522  0.17733  1.0000
  N   N78       1.0  0.66893  0.91231  0.10671  1.0000
  N   N79       1.0  0.87012  0.75992  0.26653  1.0000
  C   C247      1.0  0.89986  0.76131  0.25792  1.0000
  C   C248      1.0  0.90770  0.75620  0.17759  1.0000
  N   N80       1.0  0.91461  0.75153  0.10692  1.0000
  N   N81       1.0  0.75475  0.61327  0.26679  1.0000
  C   C249      1.0  0.75334  0.64162  0.25825  1.0000
  C   C250      1.0  0.75853  0.65461  0.17795  1.0000
  N   N82       1.0  0.76326  0.66622  0.10731  1.0000
  N   N83       1.0  0.90126  0.64431  0.26601  1.0000
  C   C251      1.0  0.87288  0.61454  0.25800  1.0000
  C   C252      1.0  0.85986  0.60642  0.17778  1.0000
  N   N84       1.0  0.84824  0.59929  0.10720  1.0000
  C   C253      1.0  0.58114  0.76555  0.34157  1.0000
  C   C254      1.0  0.54602  0.74851  0.34175  1.0000
  C   C255      1.0  0.97146  0.76308  0.34143  1.0000
  C   C256      1.0  0.93635  0.74605  0.34112  1.0000
  H   H61       1.0  0.63888  0.82006  0.40761  1.0000
  H   H62       1.0  0.87855  0.69150  0.40687  1.0000
  H   H63       1.0  0.53489  0.72335  0.33880  1.0000
  H   H64       1.0  0.98260  0.78823  0.33840  1.0000
  C   C257      1.0  0.74890  0.81841  0.34145  1.0000
  C   C258      1.0  0.76596  0.80036  0.34127  1.0000
  C   C259      1.0  0.75149  0.71126  0.34135  1.0000
  C   C260      1.0  0.76856  0.69322  0.34135  1.0000
  H   H65       1.0  0.69439  0.82158  0.40798  1.0000
  H   H66       1.0  0.82306  0.69006  0.40795  1.0000
  H   H67       1.0  0.79111  0.81439  0.33797  1.0000
  H   H68       1.0  0.72634  0.69723  0.33810  1.0000
  C   C261      1.0  0.69604  0.93348  0.34129  1.0000
  C   C262      1.0  0.71413  0.96859  0.34133  1.0000
  C   C263      1.0  0.80328  0.54316  0.34138  1.0000
  C   C264      1.0  0.82136  0.57827  0.34153  1.0000
  H   H69       1.0  0.69284  0.87565  0.40687  1.0000
  H   H70       1.0  0.82452  0.63595  0.40813  1.0000
  H   H71       1.0  0.70013  0.97974  0.33800  1.0000
  H   H72       1.0  0.81729  0.53202  0.33806  1.0000
  C   C265      1.0  0.66095  0.74915  0.34531  1.0000
  C   C266      1.0  0.59984  0.74912  0.33797  1.0000
  N   N85       1.0  0.61475  0.74891  0.41687  1.0000
  C   C267      1.0  0.64307  0.74738  0.42473  1.0000
  C   C268      1.0  0.65497  0.75005  0.50572  1.0000
  N   N86       1.0  0.66567  0.75271  0.57699  1.0000
  C   C269      1.0  0.76518  0.91465  0.34456  1.0000
  C   C270      1.0  0.76533  0.85353  0.33755  1.0000
  N   N87       1.0  0.76541  0.86868  0.41629  1.0000
  C   C271      1.0  0.76691  0.89853  0.42409  1.0000
  C   C272      1.0  0.76420  0.90771  0.50511  1.0000
  N   N88       1.0  0.76151  0.91571  0.57641  1.0000
  C   C273      1.0  0.59994  0.85351  0.34455  1.0000
  C   C274      1.0  0.66092  0.91484  0.33684  1.0000
  N   N89       1.0  0.64598  0.89980  0.41586  1.0000
  C   C275      1.0  0.61618  0.87141  0.42391  1.0000
  C   C276      1.0  0.60722  0.85955  0.50504  1.0000
  N   N90       1.0  0.59941  0.84886  0.57641  1.0000
  C   C277      1.0  0.85649  0.76250  0.34529  1.0000
  C   C278      1.0  0.91771  0.76253  0.33695  1.0000
  N   N91       1.0  0.90279  0.76263  0.41599  1.0000
  C   C279      1.0  0.87449  0.76422  0.42435  1.0000
  C   C280      1.0  0.86264  0.76126  0.50549  1.0000
  N   N92       1.0  0.85197  0.75835  0.57689  1.0000
  C   C281      1.0  0.75212  0.59699  0.34548  1.0000
  C   C282      1.0  0.75213  0.65808  0.33762  1.0000
  N   N93       1.0  0.75191  0.64309  0.41672  1.0000
  C   C283      1.0  0.75038  0.61323  0.42468  1.0000
  C   C284      1.0  0.75305  0.60405  0.50572  1.0000
  N   N94       1.0  0.75570  0.59604  0.57704  1.0000
  C   C285      1.0  0.91749  0.65806  0.34457  1.0000
  C   C286      1.0  0.85650  0.59698  0.33759  1.0000
  N   N95       1.0  0.87157  0.61190  0.41650  1.0000
  C   C287      1.0  0.90143  0.64025  0.42417  1.0000
  C   C288      1.0  0.91068  0.65216  0.50514  1.0000
  N   N96       1.0  0.91875  0.66288  0.57640  1.0000
