data_image0
_chemical_formula_structural       C2HC2HN2C3HCH3CHC3HCH3CHC4OC4OH4N2CN2CHCN2CHC2HC2HN2C3HCH3CHC3HCH3CHC4OC4OH4N2CN2CHCN2CHC2HC2HN2C3HCH3CHC3HCH3CHC4OC4OH4N2CN2CHCN2CHC2HC2HN2C3HCH3CHC3HCH3CHC4OC4OH4N2CN2CHCN2CH
_chemical_formula_sum              "C104 H72 N32 O8"
_cell_length_a       31.433
_cell_length_b       31.433
_cell_length_c       14.9388
_cell_angle_alpha    90
_cell_angle_beta     90
_cell_angle_gamma    90

_space_group_name_H-M_alt    "P 1"
_space_group_IT_number       1

loop_
  _space_group_symop_operation_xyz
  'x, y, z'

loop_
  _atom_site_type_symbol
  _atom_site_label
  _atom_site_symmetry_multiplicity
  _atom_site_fract_x
  _atom_site_fract_y
  _atom_site_fract_z
  _atom_site_occupancy
  C   C1        1.0  0.50383  0.43201  0.30447  1.0000
  C   C2        1.0  0.47157  0.40051  0.30323  1.0000
  H   H1        1.0  0.03431  0.42126  0.30207  1.0000
  C   C3        1.0  0.04773  0.08647  0.30536  1.0000
  C   C4        1.0  0.01723  0.05352  0.30271  1.0000
  H   H2        1.0  0.48683  0.06329  0.29464  1.0000
  N   N1        1.0  0.03852  0.12867  0.30306  1.0000
  N   N2        1.0  0.47824  0.35795  0.30152  1.0000
  C   C5        1.0  0.00178  0.19567  0.29848  1.0000
  C   C6        1.0  0.96333  0.21855  0.29459  1.0000
  C   C7        1.0  0.96327  0.26356  0.29519  1.0000
  H   H3        1.0  0.93518  0.20219  0.29147  1.0000
  C   C8        1.0  0.92143  0.28542  0.29070  1.0000
  H   H4        1.0  0.89457  0.26347  0.28621  1.0000
  H   H5        1.0  0.92037  0.30569  0.23150  1.0000
  H   H6        1.0  0.41688  0.30445  0.35096  1.0000
  C   C9        1.0  0.00190  0.15096  0.29850  1.0000
  H   H7        1.0  0.97357  0.13506  0.29599  1.0000
  C   C10       1.0  0.30840  0.00239  0.31094  1.0000
  C   C11       1.0  0.28552  0.04087  0.30894  1.0000
  C   C12       1.0  0.24051  0.04092  0.30892  1.0000
  H   H8        1.0  0.30188  0.06905  0.30721  1.0000
  C   C13       1.0  0.21864  0.08279  0.30604  1.0000
  H   H9        1.0  0.24059  0.10968  0.30274  1.0000
  H   H10       1.0  0.19961  0.08672  0.36647  1.0000
  H   H11       1.0  0.19837  0.58446  0.24688  1.0000
  C   C14       1.0  0.35311  0.00226  0.31087  1.0000
  H   H12       1.0  0.36902  0.03061  0.30973  1.0000
  C   C15       1.0  0.49485  0.47663  0.30742  1.0000
  C   C16       1.0  0.42855  0.41310  0.30358  1.0000
  C   C17       1.0  0.41759  0.45634  0.30852  1.0000
  C   C18       1.0  0.45053  0.48685  0.31121  1.0000
  O   O1        1.0  0.39689  0.38337  0.30254  1.0000
  C   C19       1.0  0.02742  0.00921  0.30747  1.0000
  C   C20       1.0  0.07204  0.00024  0.31100  1.0000
  C   C21       1.0  0.10354  0.03250  0.31180  1.0000
  C   C22       1.0  0.09094  0.07552  0.31110  1.0000
  O   O2        1.0  0.12066  0.10718  0.31186  1.0000
  H   H13       1.0  0.38707  0.38148  0.24015  1.0000
  H   H14       1.0  0.12273  0.11692  0.37429  1.0000
  H   H15       1.0  0.44073  0.01726  0.31888  1.0000
  H   H16       1.0  0.08279  0.46976  0.31358  1.0000
  N   N3        1.0  0.14610  0.02584  0.31233  1.0000
  N   N4        1.0  0.37538  0.46558  0.30961  1.0000
  C   C23       1.0  0.00324  0.28513  0.29978  1.0000
  N   N5        1.0  0.03873  0.26031  0.30306  1.0000
  N   N6        1.0  0.03831  0.21866  0.30253  1.0000
  C   C24       1.0  0.01038  0.32957  0.30154  1.0000
  H   H17       1.0  0.04087  0.34087  0.30437  1.0000
  C   C25       1.0  0.21894  0.00090  0.31165  1.0000
  N   N7        1.0  0.24377  0.96538  0.31316  1.0000
  N   N8        1.0  0.28541  0.96582  0.31277  1.0000
  C   C26       1.0  0.17451  0.99372  0.31273  1.0000
  H   H18       1.0  0.16320  0.96321  0.31360  1.0000
  C   C27       1.0  0.50383  0.93201  0.30447  1.0000
  C   C28       1.0  0.47157  0.90051  0.30323  1.0000
  H   H19       1.0  0.03431  0.92126  0.30207  1.0000
  C   C29       1.0  0.04773  0.58647  0.30536  1.0000
  C   C30       1.0  0.01723  0.55352  0.30271  1.0000
  H   H20       1.0  0.48683  0.56329  0.29464  1.0000
  N   N9        1.0  0.03852  0.62867  0.30306  1.0000
  N   N10       1.0  0.47824  0.85795  0.30152  1.0000
  C   C31       1.0  0.00178  0.69568  0.29848  1.0000
  C   C32       1.0  0.96333  0.71855  0.29459  1.0000
  C   C33       1.0  0.96327  0.76356  0.29519  1.0000
  H   H21       1.0  0.93518  0.70218  0.29147  1.0000
  C   C34       1.0  0.92143  0.78542  0.29070  1.0000
  H   H22       1.0  0.89457  0.76348  0.28621  1.0000
  H   H23       1.0  0.92037  0.80569  0.23150  1.0000
  H   H24       1.0  0.41688  0.80446  0.35096  1.0000
  C   C35       1.0  0.00190  0.65097  0.29850  1.0000
  H   H25       1.0  0.97357  0.63506  0.29599  1.0000
  C   C36       1.0  0.30840  0.50239  0.31094  1.0000
  C   C37       1.0  0.28552  0.54087  0.30894  1.0000
  C   C38       1.0  0.24051  0.54092  0.30892  1.0000
  H   H26       1.0  0.30188  0.56905  0.30721  1.0000
  C   C39       1.0  0.21864  0.58279  0.30604  1.0000
  H   H27       1.0  0.24059  0.60968  0.30274  1.0000
  H   H28       1.0  0.19961  0.58672  0.36647  1.0000
  H   H29       1.0  0.19837  0.08446  0.24688  1.0000
  C   C40       1.0  0.35311  0.50226  0.31087  1.0000
  H   H30       1.0  0.36902  0.53061  0.30973  1.0000
  C   C41       1.0  0.49485  0.97664  0.30742  1.0000
  C   C42       1.0  0.42855  0.91310  0.30358  1.0000
  C   C43       1.0  0.41759  0.95634  0.30852  1.0000
  C   C44       1.0  0.45053  0.98685  0.31121  1.0000
  O   O3        1.0  0.39689  0.88338  0.30254  1.0000
  C   C45       1.0  0.02742  0.50921  0.30747  1.0000
  C   C46       1.0  0.07204  0.50024  0.31100  1.0000
  C   C47       1.0  0.10354  0.53250  0.31180  1.0000
  C   C48       1.0  0.09094  0.57552  0.31110  1.0000
  O   O4        1.0  0.12066  0.60718  0.31186  1.0000
  H   H31       1.0  0.38707  0.88148  0.24015  1.0000
  H   H32       1.0  0.12273  0.61692  0.37429  1.0000
  H   H33       1.0  0.44073  0.51726  0.31888  1.0000
  H   H34       1.0  0.08279  0.96977  0.31358  1.0000
  N   N11       1.0  0.14610  0.52584  0.31233  1.0000
  N   N12       1.0  0.37538  0.96558  0.30961  1.0000
  C   C49       1.0  0.00324  0.78513  0.29978  1.0000
  N   N13       1.0  0.03873  0.76031  0.30306  1.0000
  N   N14       1.0  0.03831  0.71866  0.30253  1.0000
  C   C50       1.0  0.01038  0.82957  0.30154  1.0000
  H   H35       1.0  0.04087  0.84088  0.30437  1.0000
  C   C51       1.0  0.21894  0.50090  0.31165  1.0000
  N   N15       1.0  0.24377  0.46539  0.31316  1.0000
  N   N16       1.0  0.28541  0.46582  0.31277  1.0000
  C   C52       1.0  0.17451  0.49372  0.31273  1.0000
  H   H36       1.0  0.16320  0.46321  0.31360  1.0000
  C   C53       1.0  0.00383  0.43201  0.30447  1.0000
  C   C54       1.0  0.97157  0.40051  0.30323  1.0000
  H   H37       1.0  0.53431  0.42126  0.30207  1.0000
  C   C55       1.0  0.54773  0.08647  0.30536  1.0000
  C   C56       1.0  0.51723  0.05352  0.30271  1.0000
  H   H38       1.0  0.98683  0.06329  0.29464  1.0000
  N   N17       1.0  0.53852  0.12867  0.30306  1.0000
  N   N18       1.0  0.97824  0.35795  0.30152  1.0000
  C   C57       1.0  0.50178  0.19567  0.29848  1.0000
  C   C58       1.0  0.46333  0.21855  0.29459  1.0000
  C   C59       1.0  0.46326  0.26356  0.29519  1.0000
  H   H39       1.0  0.43518  0.20219  0.29147  1.0000
  C   C60       1.0  0.42142  0.28542  0.29070  1.0000
  H   H40       1.0  0.39457  0.26347  0.28621  1.0000
  H   H41       1.0  0.42037  0.30569  0.23150  1.0000
  H   H42       1.0  0.91688  0.30445  0.35096  1.0000
  C   C61       1.0  0.50190  0.15096  0.29850  1.0000
  H   H43       1.0  0.47357  0.13506  0.29599  1.0000
  C   C62       1.0  0.80840  0.00239  0.31094  1.0000
  C   C63       1.0  0.78552  0.04087  0.30894  1.0000
  C   C64       1.0  0.74051  0.04092  0.30892  1.0000
  H   H44       1.0  0.80188  0.06905  0.30721  1.0000
  C   C65       1.0  0.71864  0.08279  0.30604  1.0000
  H   H45       1.0  0.74059  0.10968  0.30274  1.0000
  H   H46       1.0  0.69961  0.08672  0.36647  1.0000
  H   H47       1.0  0.69837  0.58446  0.24688  1.0000
  C   C66       1.0  0.85310  0.00226  0.31087  1.0000
  H   H48       1.0  0.86902  0.03061  0.30973  1.0000
  C   C67       1.0  0.99485  0.47663  0.30742  1.0000
  C   C68       1.0  0.92854  0.41310  0.30358  1.0000
  C   C69       1.0  0.91759  0.45634  0.30852  1.0000
  C   C70       1.0  0.95053  0.48685  0.31121  1.0000
  O   O5        1.0  0.89689  0.38337  0.30254  1.0000
  C   C71       1.0  0.52742  0.00921  0.30747  1.0000
  C   C72       1.0  0.57204  0.00024  0.31100  1.0000
  C   C73       1.0  0.60354  0.03250  0.31180  1.0000
  C   C74       1.0  0.59094  0.07552  0.31110  1.0000
  O   O6        1.0  0.62066  0.10718  0.31186  1.0000
  H   H49       1.0  0.88707  0.38148  0.24015  1.0000
  H   H50       1.0  0.62274  0.11692  0.37429  1.0000
  H   H51       1.0  0.94073  0.01726  0.31888  1.0000
  H   H52       1.0  0.58279  0.46976  0.31358  1.0000
  N   N19       1.0  0.64611  0.02584  0.31233  1.0000
  N   N20       1.0  0.87538  0.46558  0.30961  1.0000
  C   C75       1.0  0.50324  0.28513  0.29978  1.0000
  N   N21       1.0  0.53873  0.26031  0.30306  1.0000
  N   N22       1.0  0.53831  0.21866  0.30253  1.0000
  C   C76       1.0  0.51038  0.32957  0.30154  1.0000
  H   H53       1.0  0.54087  0.34087  0.30437  1.0000
  C   C77       1.0  0.71894  0.00090  0.31165  1.0000
  N   N23       1.0  0.74377  0.96538  0.31316  1.0000
  N   N24       1.0  0.78541  0.96582  0.31277  1.0000
  C   C78       1.0  0.67451  0.99372  0.31273  1.0000
  H   H54       1.0  0.66320  0.96321  0.31360  1.0000
  C   C79       1.0  0.00383  0.93201  0.30447  1.0000
  C   C80       1.0  0.97157  0.90051  0.30323  1.0000
  H   H55       1.0  0.53431  0.92126  0.30207  1.0000
  C   C81       1.0  0.54773  0.58647  0.30536  1.0000
  C   C82       1.0  0.51723  0.55352  0.30271  1.0000
  H   H56       1.0  0.98683  0.56329  0.29464  1.0000
  N   N25       1.0  0.53852  0.62867  0.30306  1.0000
  N   N26       1.0  0.97824  0.85795  0.30152  1.0000
  C   C83       1.0  0.50178  0.69568  0.29848  1.0000
  C   C84       1.0  0.46333  0.71855  0.29459  1.0000
  C   C85       1.0  0.46326  0.76356  0.29519  1.0000
  H   H57       1.0  0.43518  0.70218  0.29147  1.0000
  C   C86       1.0  0.42142  0.78542  0.29070  1.0000
  H   H58       1.0  0.39457  0.76348  0.28621  1.0000
  H   H59       1.0  0.42037  0.80569  0.23150  1.0000
  H   H60       1.0  0.91688  0.80446  0.35096  1.0000
  C   C87       1.0  0.50190  0.65097  0.29850  1.0000
  H   H61       1.0  0.47357  0.63506  0.29599  1.0000
  C   C88       1.0  0.80840  0.50239  0.31094  1.0000
  C   C89       1.0  0.78552  0.54087  0.30894  1.0000
  C   C90       1.0  0.74051  0.54092  0.30892  1.0000
  H   H62       1.0  0.80188  0.56905  0.30721  1.0000
  C   C91       1.0  0.71864  0.58279  0.30604  1.0000
  H   H63       1.0  0.74059  0.60968  0.30274  1.0000
  H   H64       1.0  0.69961  0.58672  0.36647  1.0000
  H   H65       1.0  0.69837  0.08446  0.24688  1.0000
  C   C92       1.0  0.85310  0.50226  0.31087  1.0000
  H   H66       1.0  0.86902  0.53061  0.30973  1.0000
  C   C93       1.0  0.99485  0.97664  0.30742  1.0000
  C   C94       1.0  0.92854  0.91310  0.30358  1.0000
  C   C95       1.0  0.91759  0.95634  0.30852  1.0000
  C   C96       1.0  0.95053  0.98685  0.31121  1.0000
  O   O7        1.0  0.89689  0.88338  0.30254  1.0000
  C   C97       1.0  0.52742  0.50921  0.30747  1.0000
  C   C98       1.0  0.57204  0.50024  0.31100  1.0000
  C   C99       1.0  0.60354  0.53250  0.31180  1.0000
  C   C100      1.0  0.59094  0.57552  0.31110  1.0000
  O   O8        1.0  0.62066  0.60718  0.31186  1.0000
  H   H67       1.0  0.88707  0.88148  0.24015  1.0000
  H   H68       1.0  0.62274  0.61692  0.37429  1.0000
  H   H69       1.0  0.94073  0.51726  0.31888  1.0000
  H   H70       1.0  0.58279  0.96977  0.31358  1.0000
  N   N27       1.0  0.64611  0.52584  0.31233  1.0000
  N   N28       1.0  0.87538  0.96558  0.30961  1.0000
  C   C101      1.0  0.50324  0.78513  0.29978  1.0000
  N   N29       1.0  0.53873  0.76031  0.30306  1.0000
  N   N30       1.0  0.53831  0.71866  0.30253  1.0000
  C   C102      1.0  0.51038  0.82957  0.30154  1.0000
  H   H71       1.0  0.54087  0.84088  0.30437  1.0000
  C   C103      1.0  0.71894  0.50090  0.31165  1.0000
  N   N31       1.0  0.74377  0.46539  0.31316  1.0000
  N   N32       1.0  0.78541  0.46582  0.31277  1.0000
  C   C104      1.0  0.67451  0.49372  0.31273  1.0000
  H   H72       1.0  0.66320  0.46321  0.31360  1.0000
