data_image0
_chemical_formula_structural       C15H12C2NCNO2C2NCNO2C2NC2NC5NC3NC17H14NCHNCHC15H12C2NCNO2C2NCNO2C2NC2NC5NC3NC17H14NCHNCHC15H12C2NCNO2C2NCNO2C2NC2NC5NC3NC17H14NCHNCHC15H12C2NCNO2C2NCNO2C2NC2NC5NC3NC17H14NCHNCH
_chemical_formula_sum              "C208 H112 N40 O16"
_cell_length_a       42.631
_cell_length_b       42.631
_cell_length_c       14.9169
_cell_angle_alpha    90
_cell_angle_beta     90
_cell_angle_gamma    90

_space_group_name_H-M_alt    "P 1"
_space_group_IT_number       1

loop_
  _space_group_symop_operation_xyz
  'x, y, z'

loop_
  _atom_site_type_symbol
  _atom_site_label
  _atom_site_symmetry_multiplicity
  _atom_site_fract_x
  _atom_site_fract_y
  _atom_site_fract_z
  _atom_site_occupancy
  C   C1        1.0  0.43626  0.47416  0.33872  1.0000
  C   C2        1.0  0.03286  0.43598  0.33699  1.0000
  C   C3        1.0  0.50221  0.08561  0.34174  1.0000
  C   C4        1.0  0.47252  0.07050  0.34128  1.0000
  C   C5        1.0  0.42045  0.06243  0.34209  1.0000
  C   C6        1.0  0.44332  0.08536  0.34196  1.0000
  C   C7        1.0  0.33670  0.50194  0.26146  1.0000
  C   C8        1.0  0.36973  0.50172  0.26046  1.0000
  C   C9        1.0  0.50246  0.11910  0.34234  1.0000
  C   C10       1.0  0.50118  0.16912  0.26190  1.0000
  C   C11       1.0  0.50088  0.13609  0.26132  1.0000
  C   C12       1.0  0.13499  0.01185  0.25761  1.0000
  C   C13       1.0  0.16800  0.01215  0.25556  1.0000
  C   C14       1.0  0.01085  0.37082  0.25503  1.0000
  C   C15       1.0  0.01092  0.33780  0.25324  1.0000
  H   H1        1.0  0.01805  0.32694  0.19566  1.0000
  H   H2        1.0  0.01708  0.38286  0.19839  1.0000
  H   H3        1.0  0.43997  0.39852  0.32876  1.0000
  H   H4        1.0  0.12285  0.01816  0.20120  1.0000
  H   H5        1.0  0.17876  0.01951  0.19808  1.0000
  H   H6        1.0  0.06524  0.10806  0.34863  1.0000
  H   H7        1.0  0.39687  0.06672  0.34226  1.0000
  H   H8        1.0  0.43898  0.10894  0.34254  1.0000
  H   H9        1.0  0.49956  0.12453  0.20129  1.0000
  H   H10       1.0  0.50026  0.18038  0.20140  1.0000
  H   H11       1.0  0.38121  0.50054  0.20028  1.0000
  H   H12       1.0  0.32534  0.50108  0.20109  1.0000
  C   C16       1.0  0.00237  0.28643  0.32914  1.0000
  C   C17       1.0  0.00338  0.22013  0.34165  1.0000
  N   N1        1.0  0.99267  0.23564  0.26794  1.0000
  C   C18       1.0  0.99159  0.26739  0.25742  1.0000
  N   N2        1.0  0.97874  0.28013  0.17835  1.0000
  O   O1        1.0  0.99408  0.27104  0.11130  1.0000
  O   O2        1.0  0.95082  0.27139  0.16861  1.0000
  C   C19       1.0  0.21948  0.00333  0.33044  1.0000
  C   C20       1.0  0.28579  0.00417  0.34192  1.0000
  N   N3        1.0  0.27013  0.99361  0.26831  1.0000
  C   C21       1.0  0.23835  0.99262  0.25829  1.0000
  N   N4        1.0  0.22540  0.97992  0.17927  1.0000
  O   O3        1.0  0.23439  0.99535  0.11226  1.0000
  O   O4        1.0  0.23405  0.95200  0.16902  1.0000
  C   C22       1.0  0.44446  0.42203  0.33285  1.0000
  C   C23       1.0  0.42155  0.44491  0.33454  1.0000
  N   N5        1.0  0.46746  0.46787  0.34019  1.0000
  C   C24       1.0  0.47377  0.43667  0.33689  1.0000
  C   C25       1.0  0.50317  0.42076  0.33643  1.0000
  N   N6        1.0  0.03892  0.46713  0.33798  1.0000
  C   C26       1.0  0.07006  0.47328  0.33743  1.0000
  C   C27       1.0  0.08495  0.44410  0.33562  1.0000
  C   C28       1.0  0.06210  0.42118  0.33645  1.0000
  C   C29       1.0  0.08518  0.50301  0.33828  1.0000
  C   C30       1.0  0.06918  0.03236  0.34021  1.0000
  N   N7        1.0  0.03796  0.03857  0.33893  1.0000
  C   C31       1.0  0.03161  0.06975  0.34190  1.0000
  C   C32       1.0  0.06085  0.08452  0.34531  1.0000
  C   C33       1.0  0.08379  0.06167  0.34487  1.0000
  N   N8        1.0  0.46650  0.03936  0.34102  1.0000
  C   C34       1.0  0.43538  0.03326  0.34152  1.0000
  C   C35       1.0  0.42033  0.50352  0.34066  1.0000
  C   C36       1.0  0.38684  0.50328  0.34129  1.0000
  C   C37       1.0  0.37017  0.00497  0.42286  1.0000
  C   C38       1.0  0.33714  0.00527  0.42344  1.0000
  C   C39       1.0  0.31950  0.50394  0.34280  1.0000
  C   C40       1.0  0.00424  0.13587  0.42373  1.0000
  C   C41       1.0  0.00459  0.16891  0.42388  1.0000
  C   C42       1.0  0.50322  0.18643  0.34302  1.0000
  C   C43       1.0  0.11874  0.50337  0.33651  1.0000
  C   C44       1.0  0.18593  0.50341  0.33154  1.0000
  C   C45       1.0  0.16941  0.49545  0.41080  1.0000
  C   C46       1.0  0.13638  0.49544  0.41341  1.0000
  C   C47       1.0  0.50292  0.38720  0.33418  1.0000
  C   C48       1.0  0.49510  0.36968  0.41139  1.0000
  C   C49       1.0  0.49487  0.33665  0.40903  1.0000
  C   C50       1.0  0.50244  0.31999  0.32970  1.0000
  H   H13       1.0  0.48865  0.32485  0.46608  1.0000
  H   H14       1.0  0.48939  0.38088  0.46986  1.0000
  H   H15       1.0  0.39800  0.44048  0.33206  1.0000
  H   H16       1.0  0.48335  0.48375  0.34440  1.0000
  H   H17       1.0  0.02211  0.02268  0.33438  1.0000
  H   H18       1.0  0.06654  0.39762  0.33592  1.0000
  H   H19       1.0  0.10852  0.43974  0.33444  1.0000
  H   H20       1.0  0.12527  0.48934  0.47169  1.0000
  H   H21       1.0  0.18131  0.48905  0.46750  1.0000
  H   H22       1.0  0.10730  0.06620  0.34794  1.0000
  H   H23       1.0  0.00517  0.12412  0.48351  1.0000
  H   H24       1.0  0.00523  0.17991  0.48467  1.0000
  H   H25       1.0  0.32625  0.00587  0.48437  1.0000
  H   H26       1.0  0.38201  0.00597  0.48252  1.0000
  N   N9        1.0  0.01303  0.27112  0.40326  1.0000
  C   C51       1.0  0.01401  0.23947  0.41245  1.0000
  H   H27       1.0  0.02312  0.23045  0.47017  1.0000
  N   N10       1.0  0.23494  0.01384  0.40446  1.0000
  C   C52       1.0  0.26660  0.01475  0.41314  1.0000
  H   H28       1.0  0.27574  0.02375  0.47084  1.0000
  C   C53       1.0  0.43626  0.97416  0.33872  1.0000
  C   C54       1.0  0.03286  0.93598  0.33699  1.0000
  C   C55       1.0  0.50221  0.58561  0.34174  1.0000
  C   C56       1.0  0.47252  0.57050  0.34128  1.0000
  C   C57       1.0  0.42045  0.56243  0.34209  1.0000
  C   C58       1.0  0.44332  0.58536  0.34196  1.0000
  C   C59       1.0  0.33670  0.00194  0.26146  1.0000
  C   C60       1.0  0.36973  0.00172  0.26046  1.0000
  C   C61       1.0  0.50246  0.61910  0.34234  1.0000
  C   C62       1.0  0.50118  0.66912  0.26190  1.0000
  C   C63       1.0  0.50088  0.63609  0.26132  1.0000
  C   C64       1.0  0.13499  0.51185  0.25761  1.0000
  C   C65       1.0  0.16800  0.51215  0.25556  1.0000
  C   C66       1.0  0.01085  0.87082  0.25503  1.0000
  C   C67       1.0  0.01092  0.83780  0.25324  1.0000
  H   H29       1.0  0.01805  0.82695  0.19566  1.0000
  H   H30       1.0  0.01708  0.88286  0.19839  1.0000
  H   H31       1.0  0.43997  0.89852  0.32876  1.0000
  H   H32       1.0  0.12285  0.51816  0.20120  1.0000
  H   H33       1.0  0.17876  0.51951  0.19808  1.0000
  H   H34       1.0  0.06524  0.60806  0.34863  1.0000
  H   H35       1.0  0.39687  0.56672  0.34226  1.0000
  H   H36       1.0  0.43898  0.60894  0.34254  1.0000
  H   H37       1.0  0.49956  0.62453  0.20129  1.0000
  H   H38       1.0  0.50026  0.68038  0.20140  1.0000
  H   H39       1.0  0.38121  0.00054  0.20028  1.0000
  H   H40       1.0  0.32534  0.00108  0.20109  1.0000
  C   C68       1.0  0.00237  0.78643  0.32914  1.0000
  C   C69       1.0  0.00338  0.72013  0.34165  1.0000
  N   N11       1.0  0.99267  0.73564  0.26794  1.0000
  C   C70       1.0  0.99159  0.76739  0.25742  1.0000
  N   N12       1.0  0.97874  0.78013  0.17835  1.0000
  O   O5        1.0  0.99408  0.77104  0.11130  1.0000
  O   O6        1.0  0.95082  0.77139  0.16861  1.0000
  C   C71       1.0  0.21948  0.50333  0.33044  1.0000
  C   C72       1.0  0.28579  0.50417  0.34192  1.0000
  N   N13       1.0  0.27013  0.49361  0.26831  1.0000
  C   C73       1.0  0.23835  0.49262  0.25829  1.0000
  N   N14       1.0  0.22540  0.47992  0.17927  1.0000
  O   O7        1.0  0.23439  0.49535  0.11226  1.0000
  O   O8        1.0  0.23405  0.45199  0.16902  1.0000
  C   C74       1.0  0.44446  0.92203  0.33285  1.0000
  C   C75       1.0  0.42155  0.94491  0.33454  1.0000
  N   N15       1.0  0.46746  0.96787  0.34019  1.0000
  C   C76       1.0  0.47377  0.93667  0.33689  1.0000
  C   C77       1.0  0.50317  0.92076  0.33643  1.0000
  N   N16       1.0  0.03892  0.96713  0.33798  1.0000
  C   C78       1.0  0.07006  0.97328  0.33743  1.0000
  C   C79       1.0  0.08495  0.94410  0.33562  1.0000
  C   C80       1.0  0.06210  0.92118  0.33645  1.0000
  C   C81       1.0  0.08518  0.00301  0.33828  1.0000
  C   C82       1.0  0.06918  0.53235  0.34021  1.0000
  N   N17       1.0  0.03796  0.53858  0.33893  1.0000
  C   C83       1.0  0.03161  0.56975  0.34190  1.0000
  C   C84       1.0  0.06085  0.58452  0.34531  1.0000
  C   C85       1.0  0.08379  0.56167  0.34487  1.0000
  N   N18       1.0  0.46650  0.53935  0.34102  1.0000
  C   C86       1.0  0.43538  0.53326  0.34152  1.0000
  C   C87       1.0  0.42033  0.00352  0.34066  1.0000
  C   C88       1.0  0.38684  0.00328  0.34129  1.0000
  C   C89       1.0  0.37017  0.50498  0.42286  1.0000
  C   C90       1.0  0.33714  0.50527  0.42344  1.0000
  C   C91       1.0  0.31950  0.00394  0.34280  1.0000
  C   C92       1.0  0.00424  0.63587  0.42373  1.0000
  C   C93       1.0  0.00459  0.66891  0.42388  1.0000
  C   C94       1.0  0.50322  0.68643  0.34302  1.0000
  C   C95       1.0  0.11874  0.00337  0.33651  1.0000
  C   C96       1.0  0.18593  0.00341  0.33154  1.0000
  C   C97       1.0  0.16941  0.99545  0.41080  1.0000
  C   C98       1.0  0.13638  0.99544  0.41341  1.0000
  C   C99       1.0  0.50292  0.88720  0.33418  1.0000
  C   C100      1.0  0.49510  0.86968  0.41139  1.0000
  C   C101      1.0  0.49487  0.83665  0.40903  1.0000
  C   C102      1.0  0.50244  0.81999  0.32970  1.0000
  H   H41       1.0  0.48865  0.82485  0.46608  1.0000
  H   H42       1.0  0.48939  0.88088  0.46986  1.0000
  H   H43       1.0  0.39800  0.94048  0.33206  1.0000
  H   H44       1.0  0.48335  0.98375  0.34440  1.0000
  H   H45       1.0  0.02211  0.52268  0.33438  1.0000
  H   H46       1.0  0.06654  0.89763  0.33592  1.0000
  H   H47       1.0  0.10852  0.93974  0.33444  1.0000
  H   H48       1.0  0.12527  0.98934  0.47169  1.0000
  H   H49       1.0  0.18131  0.98905  0.46750  1.0000
  H   H50       1.0  0.10730  0.56620  0.34794  1.0000
  H   H51       1.0  0.00517  0.62412  0.48351  1.0000
  H   H52       1.0  0.00523  0.67991  0.48467  1.0000
  H   H53       1.0  0.32625  0.50587  0.48437  1.0000
  H   H54       1.0  0.38201  0.50597  0.48252  1.0000
  N   N19       1.0  0.01303  0.77112  0.40326  1.0000
  C   C103      1.0  0.01401  0.73947  0.41245  1.0000
  H   H55       1.0  0.02312  0.73045  0.47017  1.0000
  N   N20       1.0  0.23494  0.51384  0.40446  1.0000
  C   C104      1.0  0.26660  0.51475  0.41314  1.0000
  H   H56       1.0  0.27574  0.52375  0.47084  1.0000
  C   C105      1.0  0.93626  0.47416  0.33872  1.0000
  C   C106      1.0  0.53287  0.43598  0.33699  1.0000
  C   C107      1.0  0.00221  0.08561  0.34174  1.0000
  C   C108      1.0  0.97252  0.07050  0.34128  1.0000
  C   C109      1.0  0.92045  0.06243  0.34209  1.0000
  C   C110      1.0  0.94332  0.08536  0.34196  1.0000
  C   C111      1.0  0.83670  0.50194  0.26146  1.0000
  C   C112      1.0  0.86973  0.50172  0.26046  1.0000
  C   C113      1.0  0.00246  0.11910  0.34234  1.0000
  C   C114      1.0  0.00118  0.16912  0.26190  1.0000
  C   C115      1.0  0.00088  0.13609  0.26132  1.0000
  C   C116      1.0  0.63498  0.01185  0.25761  1.0000
  C   C117      1.0  0.66800  0.01215  0.25556  1.0000
  C   C118      1.0  0.51085  0.37082  0.25503  1.0000
  C   C119      1.0  0.51092  0.33780  0.25324  1.0000
  H   H57       1.0  0.51804  0.32694  0.19566  1.0000
  H   H58       1.0  0.51708  0.38286  0.19839  1.0000
  H   H59       1.0  0.93997  0.39852  0.32876  1.0000
  H   H60       1.0  0.62284  0.01816  0.20120  1.0000
  H   H61       1.0  0.67876  0.01951  0.19808  1.0000
  H   H62       1.0  0.56524  0.10806  0.34863  1.0000
  H   H63       1.0  0.89687  0.06672  0.34226  1.0000
  H   H64       1.0  0.93898  0.10894  0.34254  1.0000
  H   H65       1.0  0.99956  0.12453  0.20129  1.0000
  H   H66       1.0  0.00026  0.18038  0.20140  1.0000
  H   H67       1.0  0.88121  0.50054  0.20028  1.0000
  H   H68       1.0  0.82534  0.50108  0.20109  1.0000
  C   C120      1.0  0.50237  0.28643  0.32914  1.0000
  C   C121      1.0  0.50338  0.22013  0.34165  1.0000
  N   N21       1.0  0.49267  0.23564  0.26794  1.0000
  C   C122      1.0  0.49159  0.26739  0.25742  1.0000
  N   N22       1.0  0.47874  0.28013  0.17835  1.0000
  O   O9        1.0  0.49408  0.27104  0.11130  1.0000
  O   O10       1.0  0.45082  0.27139  0.16861  1.0000
  C   C123      1.0  0.71948  0.00333  0.33044  1.0000
  C   C124      1.0  0.78579  0.00417  0.34192  1.0000
  N   N23       1.0  0.77012  0.99361  0.26831  1.0000
  C   C125      1.0  0.73835  0.99262  0.25829  1.0000
  N   N24       1.0  0.72540  0.97992  0.17927  1.0000
  O   O11       1.0  0.73439  0.99535  0.11226  1.0000
  O   O12       1.0  0.73405  0.95200  0.16902  1.0000
  C   C126      1.0  0.94446  0.42203  0.33285  1.0000
  C   C127      1.0  0.92155  0.44491  0.33454  1.0000
  N   N25       1.0  0.96746  0.46787  0.34019  1.0000
  C   C128      1.0  0.97377  0.43667  0.33689  1.0000
  C   C129      1.0  0.00317  0.42076  0.33643  1.0000
  N   N26       1.0  0.53892  0.46713  0.33798  1.0000
  C   C130      1.0  0.57006  0.47328  0.33743  1.0000
  C   C131      1.0  0.58495  0.44410  0.33562  1.0000
  C   C132      1.0  0.56210  0.42118  0.33645  1.0000
  C   C133      1.0  0.58518  0.50301  0.33828  1.0000
  C   C134      1.0  0.56919  0.03236  0.34021  1.0000
  N   N27       1.0  0.53796  0.03857  0.33893  1.0000
  C   C135      1.0  0.53161  0.06975  0.34190  1.0000
  C   C136      1.0  0.56085  0.08452  0.34531  1.0000
  C   C137      1.0  0.58379  0.06167  0.34487  1.0000
  N   N28       1.0  0.96650  0.03936  0.34102  1.0000
  C   C138      1.0  0.93538  0.03326  0.34152  1.0000
  C   C139      1.0  0.92033  0.50352  0.34066  1.0000
  C   C140      1.0  0.88684  0.50328  0.34129  1.0000
  C   C141      1.0  0.87017  0.00497  0.42286  1.0000
  C   C142      1.0  0.83714  0.00527  0.42344  1.0000
  C   C143      1.0  0.81950  0.50394  0.34280  1.0000
  C   C144      1.0  0.50424  0.13587  0.42373  1.0000
  C   C145      1.0  0.50459  0.16891  0.42388  1.0000
  C   C146      1.0  0.00322  0.18643  0.34302  1.0000
  C   C147      1.0  0.61874  0.50337  0.33651  1.0000
  C   C148      1.0  0.68593  0.50341  0.33154  1.0000
  C   C149      1.0  0.66941  0.49545  0.41080  1.0000
  C   C150      1.0  0.63638  0.49544  0.41341  1.0000
  C   C151      1.0  0.00292  0.38720  0.33418  1.0000
  C   C152      1.0  0.99510  0.36968  0.41139  1.0000
  C   C153      1.0  0.99487  0.33665  0.40903  1.0000
  C   C154      1.0  0.00244  0.31999  0.32970  1.0000
  H   H69       1.0  0.98865  0.32485  0.46608  1.0000
  H   H70       1.0  0.98939  0.38088  0.46986  1.0000
  H   H71       1.0  0.89800  0.44048  0.33206  1.0000
  H   H72       1.0  0.98335  0.48375  0.34440  1.0000
  H   H73       1.0  0.52211  0.02268  0.33438  1.0000
  H   H74       1.0  0.56654  0.39762  0.33592  1.0000
  H   H75       1.0  0.60852  0.43974  0.33444  1.0000
  H   H76       1.0  0.62526  0.48934  0.47169  1.0000
  H   H77       1.0  0.68131  0.48905  0.46750  1.0000
  H   H78       1.0  0.60730  0.06620  0.34794  1.0000
  H   H79       1.0  0.50517  0.12412  0.48351  1.0000
  H   H80       1.0  0.50523  0.17991  0.48467  1.0000
  H   H81       1.0  0.82625  0.00587  0.48437  1.0000
  H   H82       1.0  0.88201  0.00597  0.48252  1.0000
  N   N29       1.0  0.51303  0.27112  0.40326  1.0000
  C   C155      1.0  0.51401  0.23947  0.41245  1.0000
  H   H83       1.0  0.52312  0.23045  0.47017  1.0000
  N   N30       1.0  0.73493  0.01384  0.40446  1.0000
  C   C156      1.0  0.76660  0.01475  0.41314  1.0000
  H   H84       1.0  0.77574  0.02375  0.47084  1.0000
  C   C157      1.0  0.93626  0.97416  0.33872  1.0000
  C   C158      1.0  0.53287  0.93598  0.33699  1.0000
  C   C159      1.0  0.00221  0.58561  0.34174  1.0000
  C   C160      1.0  0.97252  0.57050  0.34128  1.0000
  C   C161      1.0  0.92045  0.56243  0.34209  1.0000
  C   C162      1.0  0.94332  0.58536  0.34196  1.0000
  C   C163      1.0  0.83670  0.00194  0.26146  1.0000
  C   C164      1.0  0.86973  0.00172  0.26046  1.0000
  C   C165      1.0  0.00246  0.61910  0.34234  1.0000
  C   C166      1.0  0.00118  0.66912  0.26190  1.0000
  C   C167      1.0  0.00088  0.63609  0.26132  1.0000
  C   C168      1.0  0.63498  0.51185  0.25761  1.0000
  C   C169      1.0  0.66800  0.51215  0.25556  1.0000
  C   C170      1.0  0.51085  0.87082  0.25503  1.0000
  C   C171      1.0  0.51092  0.83780  0.25324  1.0000
  H   H85       1.0  0.51804  0.82695  0.19566  1.0000
  H   H86       1.0  0.51708  0.88286  0.19839  1.0000
  H   H87       1.0  0.93997  0.89852  0.32876  1.0000
  H   H88       1.0  0.62284  0.51816  0.20120  1.0000
  H   H89       1.0  0.67876  0.51951  0.19808  1.0000
  H   H90       1.0  0.56524  0.60806  0.34863  1.0000
  H   H91       1.0  0.89687  0.56672  0.34226  1.0000
  H   H92       1.0  0.93898  0.60894  0.34254  1.0000
  H   H93       1.0  0.99956  0.62453  0.20129  1.0000
  H   H94       1.0  0.00026  0.68038  0.20140  1.0000
  H   H95       1.0  0.88121  0.00054  0.20028  1.0000
  H   H96       1.0  0.82534  0.00108  0.20109  1.0000
  C   C172      1.0  0.50237  0.78643  0.32914  1.0000
  C   C173      1.0  0.50338  0.72013  0.34165  1.0000
  N   N31       1.0  0.49267  0.73564  0.26794  1.0000
  C   C174      1.0  0.49159  0.76739  0.25742  1.0000
  N   N32       1.0  0.47874  0.78013  0.17835  1.0000
  O   O13       1.0  0.49408  0.77104  0.11130  1.0000
  O   O14       1.0  0.45082  0.77139  0.16861  1.0000
  C   C175      1.0  0.71948  0.50333  0.33044  1.0000
  C   C176      1.0  0.78579  0.50417  0.34192  1.0000
  N   N33       1.0  0.77012  0.49361  0.26831  1.0000
  C   C177      1.0  0.73835  0.49262  0.25829  1.0000
  N   N34       1.0  0.72540  0.47992  0.17927  1.0000
  O   O15       1.0  0.73439  0.49535  0.11226  1.0000
  O   O16       1.0  0.73405  0.45199  0.16902  1.0000
  C   C178      1.0  0.94446  0.92203  0.33285  1.0000
  C   C179      1.0  0.92155  0.94491  0.33454  1.0000
  N   N35       1.0  0.96746  0.96787  0.34019  1.0000
  C   C180      1.0  0.97377  0.93667  0.33689  1.0000
  C   C181      1.0  0.00317  0.92076  0.33643  1.0000
  N   N36       1.0  0.53892  0.96713  0.33798  1.0000
  C   C182      1.0  0.57006  0.97328  0.33743  1.0000
  C   C183      1.0  0.58495  0.94410  0.33562  1.0000
  C   C184      1.0  0.56210  0.92118  0.33645  1.0000
  C   C185      1.0  0.58518  0.00301  0.33828  1.0000
  C   C186      1.0  0.56919  0.53235  0.34021  1.0000
  N   N37       1.0  0.53796  0.53858  0.33893  1.0000
  C   C187      1.0  0.53161  0.56975  0.34190  1.0000
  C   C188      1.0  0.56085  0.58452  0.34531  1.0000
  C   C189      1.0  0.58379  0.56167  0.34487  1.0000
  N   N38       1.0  0.96650  0.53935  0.34102  1.0000
  C   C190      1.0  0.93538  0.53326  0.34152  1.0000
  C   C191      1.0  0.92033  0.00352  0.34066  1.0000
  C   C192      1.0  0.88684  0.00328  0.34129  1.0000
  C   C193      1.0  0.87017  0.50498  0.42286  1.0000
  C   C194      1.0  0.83714  0.50527  0.42344  1.0000
  C   C195      1.0  0.81950  0.00394  0.34280  1.0000
  C   C196      1.0  0.50424  0.63587  0.42373  1.0000
  C   C197      1.0  0.50459  0.66891  0.42388  1.0000
  C   C198      1.0  0.00322  0.68643  0.34302  1.0000
  C   C199      1.0  0.61874  0.00337  0.33651  1.0000
  C   C200      1.0  0.68593  0.00341  0.33154  1.0000
  C   C201      1.0  0.66941  0.99545  0.41080  1.0000
  C   C202      1.0  0.63638  0.99544  0.41341  1.0000
  C   C203      1.0  0.00292  0.88720  0.33418  1.0000
  C   C204      1.0  0.99510  0.86968  0.41139  1.0000
  C   C205      1.0  0.99487  0.83665  0.40903  1.0000
  C   C206      1.0  0.00244  0.81999  0.32970  1.0000
  H   H97       1.0  0.98865  0.82485  0.46608  1.0000
  H   H98       1.0  0.98939  0.88088  0.46986  1.0000
  H   H99       1.0  0.89800  0.94048  0.33206  1.0000
  H   H100      1.0  0.98335  0.98375  0.34440  1.0000
  H   H101      1.0  0.52211  0.52268  0.33438  1.0000
  H   H102      1.0  0.56654  0.89763  0.33592  1.0000
  H   H103      1.0  0.60852  0.93974  0.33444  1.0000
  H   H104      1.0  0.62526  0.98934  0.47169  1.0000
  H   H105      1.0  0.68131  0.98905  0.46750  1.0000
  H   H106      1.0  0.60730  0.56620  0.34794  1.0000
  H   H107      1.0  0.50517  0.62412  0.48351  1.0000
  H   H108      1.0  0.50523  0.67991  0.48467  1.0000
  H   H109      1.0  0.82625  0.50587  0.48437  1.0000
  H   H110      1.0  0.88201  0.50597  0.48252  1.0000
  N   N39       1.0  0.51303  0.77112  0.40326  1.0000
  C   C207      1.0  0.51401  0.73947  0.41245  1.0000
  H   H111      1.0  0.52312  0.73045  0.47017  1.0000
  N   N40       1.0  0.73493  0.51384  0.40446  1.0000
  C   C208      1.0  0.76660  0.51475  0.41314  1.0000
  H   H112      1.0  0.77574  0.52375  0.47084  1.0000
