data_image0
_chemical_formula_structural       C14H12C7NC12H12C2NC3NC3NC15H14C2H2C2H2C2H2C2H2C2H2C2H2C2H2C2H2C2H2C2H2C2H2C2H2C3NC2NC5NC3NC17H14CNC2NC4NC18H14C2NC19H12C8H2N2O4C8H2N2O4C8H2N2O4C8H2N2O4C8H2N2O4C8H2N2O4
_chemical_formula_sum              "C204 H114 N24 O24"
_cell_length_a       50.3599
_cell_length_b       50.3599
_cell_length_c       14.9602
_cell_angle_alpha    90.0308
_cell_angle_beta     89.9692
_cell_angle_gamma    120

_space_group_name_H-M_alt    "P 1"
_space_group_IT_number       1

loop_
  _space_group_symop_operation_xyz
  'x, y, z'

loop_
  _atom_site_type_symbol
  _atom_site_label
  _atom_site_symmetry_multiplicity
  _atom_site_fract_x
  _atom_site_fract_y
  _atom_site_fract_z
  _atom_site_occupancy
  C   C1        1.0  0.96032  0.54178  0.33072  1.0000
  C   C2        1.0  0.08391  0.53141  0.33242  1.0000
  C   C3        1.0  0.09413  0.56333  0.33055  1.0000
  C   C4        1.0  0.12488  0.61447  0.32812  1.0000
  C   C5        1.0  0.12465  0.58699  0.32798  1.0000
  C   C6        1.0  0.14008  0.71103  0.26524  1.0000
  C   C7        1.0  0.11543  0.68065  0.26334  1.0000
  C   C8        1.0  0.10694  0.52278  0.33419  1.0000
  C   C9        1.0  0.14868  0.51967  0.26010  1.0000
  C   C10       1.0  0.12350  0.52453  0.25603  1.0000
  C   C11       1.0  0.93913  0.42441  0.26327  1.0000
  C   C12       1.0  0.91455  0.39401  0.26520  1.0000
  C   C13       1.0  0.93097  0.58055  0.25601  1.0000
  C   C14       1.0  0.90574  0.58533  0.26006  1.0000
  H   H1        1.0  0.89333  0.58238  0.20305  1.0000
  H   H2        1.0  0.93632  0.57440  0.19636  1.0000
  H   H3        1.0  0.99898  0.63892  0.34436  1.0000
  H   H4        1.0  0.95142  0.43277  0.20544  1.0000
  H   H5        1.0  0.91017  0.38099  0.20875  1.0000
  H   H6        1.0  0.05546  0.46620  0.34486  1.0000
  H   H7        1.0  0.14431  0.63551  0.32621  1.0000
  H   H8        1.0  0.14390  0.58506  0.32647  1.0000
  H   H9        1.0  0.11819  0.53070  0.19638  1.0000
  H   H10       1.0  0.16106  0.52254  0.20305  1.0000
  H   H11       1.0  0.10317  0.67229  0.20547  1.0000
  H   H12       1.0  0.14456  0.72401  0.20872  1.0000
  C   C15       1.0  0.45069  0.46042  0.34127  1.0000
  C   C16       1.0  0.45647  0.50774  0.33673  1.0000
  C   C17       1.0  0.53756  0.49554  0.33020  1.0000
  C   C18       1.0  0.59710  0.59561  0.33671  1.0000
  C   C19       1.0  0.60288  0.64292  0.34113  1.0000
  C   C20       1.0  0.54793  0.62950  0.33206  1.0000
  C   C21       1.0  0.51601  0.60780  0.33028  1.0000
  N   N1        1.0  0.50220  0.57686  0.33303  1.0000
  C   C22       1.0  0.46487  0.58740  0.32772  1.0000
  C   C23       1.0  0.49235  0.61466  0.32760  1.0000
  C   C24       1.0  0.36830  0.50600  0.26498  1.0000
  C   C25       1.0  0.39867  0.51172  0.26306  1.0000
  C   C26       1.0  0.55656  0.66116  0.33384  1.0000
  C   C27       1.0  0.56665  0.72215  0.34178  1.0000
  C   C28       1.0  0.55971  0.70601  0.25973  1.0000
  C   C29       1.0  0.55481  0.67595  0.25569  1.0000
  C   C30       1.0  0.65493  0.59169  0.26306  1.0000
  C   C31       1.0  0.68533  0.59751  0.26500  1.0000
  C   C32       1.0  0.49879  0.42738  0.25561  1.0000
  C   C33       1.0  0.49403  0.39738  0.25972  1.0000
  H   H13       1.0  0.49696  0.38790  0.20269  1.0000
  H   H14       1.0  0.50493  0.43886  0.19595  1.0000
  H   H15       1.0  0.44043  0.43707  0.34447  1.0000
  H   H16       1.0  0.64657  0.59561  0.20522  1.0000
  H   H17       1.0  0.69835  0.60612  0.20857  1.0000
  H   H18       1.0  0.61314  0.66628  0.34425  1.0000
  H   H19       1.0  0.44383  0.58579  0.32564  1.0000
  H   H20       1.0  0.49428  0.63584  0.32595  1.0000
  H   H21       1.0  0.54866  0.66446  0.19601  1.0000
  H   H22       1.0  0.55681  0.71549  0.20271  1.0000
  H   H23       1.0  0.40702  0.50781  0.20517  1.0000
  H   H24       1.0  0.35530  0.49746  0.20849  1.0000
  C   C34       1.0  0.61893  0.06727  0.34089  1.0000
  C   C35       1.0  0.57161  0.02574  0.33643  1.0000
  N   N2        1.0  0.56988  0.05174  0.33218  1.0000
  C   C36       1.0  0.60550  0.10881  0.33187  1.0000
  C   C37       1.0  0.58380  0.11902  0.33005  1.0000
  C   C38       1.0  0.48373  0.07849  0.33638  1.0000
  N   N3        1.0  0.48546  0.05249  0.33216  1.0000
  C   C39       1.0  0.43641  0.03696  0.34077  1.0000
  C   C40       1.0  0.44984  0.99542  0.33199  1.0000
  C   C41       1.0  0.47154  0.98520  0.33023  1.0000
  N   N4        1.0  0.50248  0.00233  0.33288  1.0000
  C   C42       1.0  0.49194  0.95446  0.32769  1.0000
  C   C43       1.0  0.46468  0.95468  0.32760  1.0000
  C   C44       1.0  0.55590  0.97121  0.33887  1.0000
  C   C45       1.0  0.56716  0.92080  0.34202  1.0000
  C   C46       1.0  0.57334  0.93927  0.26468  1.0000
  C   C47       1.0  0.56761  0.96392  0.26277  1.0000
  C   C48       1.0  0.41818  0.97239  0.33381  1.0000
  C   C49       1.0  0.35719  0.92151  0.34189  1.0000
  C   C50       1.0  0.37334  0.93065  0.25984  1.0000
  C   C51       1.0  0.40337  0.95583  0.25567  1.0000
  C   C52       1.0  0.48768  0.14023  0.26275  1.0000
  C   C53       1.0  0.48184  0.16481  0.26470  1.0000
  C   C54       1.0  0.65198  0.14841  0.25561  1.0000
  C   C55       1.0  0.69806  0.18288  0.34194  1.0000
  C   C56       1.0  0.68197  0.17365  0.25982  1.0000
  H   H25       1.0  0.69150  0.18605  0.20281  1.0000
  H   H26       1.0  0.64052  0.14307  0.19591  1.0000
  H   H27       1.0  0.64228  0.08036  0.34398  1.0000
  H   H28       1.0  0.55098  0.05188  0.32556  1.0000
  H   H29       1.0  0.50437  0.05234  0.32582  1.0000
  H   H30       1.0  0.48376  0.12795  0.20490  1.0000
  H   H31       1.0  0.47325  0.16921  0.20824  1.0000
  H   H32       1.0  0.41306  0.02387  0.34391  1.0000
  H   H33       1.0  0.49355  0.93503  0.32558  1.0000
  H   H34       1.0  0.44350  0.93543  0.32599  1.0000
  H   H35       1.0  0.41487  0.96109  0.19603  1.0000
  H   H36       1.0  0.36383  0.91823  0.20285  1.0000
  H   H37       1.0  0.57152  0.97617  0.20489  1.0000
  H   H38       1.0  0.58188  0.93480  0.20819  1.0000
  C   C57       1.0  0.21535  0.48832  0.28772  1.0000
  C   C58       1.0  0.18851  0.49040  0.28753  1.0000
  H   H39       1.0  0.21720  0.47382  0.24346  1.0000
  H   H40       1.0  0.17152  0.47719  0.24305  1.0000
  C   C59       1.0  0.31442  0.51671  0.26734  1.0000
  C   C60       1.0  0.28559  0.51478  0.26912  1.0000
  H   H41       1.0  0.32755  0.52542  0.21112  1.0000
  H   H42       1.0  0.27875  0.52192  0.21414  1.0000
  C   C61       1.0  0.59104  0.80402  0.28741  1.0000
  C   C62       1.0  0.58896  0.77510  0.28722  1.0000
  H   H43       1.0  0.60555  0.82036  0.24317  1.0000
  H   H44       1.0  0.60217  0.77131  0.24275  1.0000
  C   C63       1.0  0.56265  0.87470  0.26703  1.0000
  C   C64       1.0  0.56460  0.84781  0.26878  1.0000
  H   H45       1.0  0.55394  0.87911  0.21083  1.0000
  H   H46       1.0  0.55743  0.83380  0.21384  1.0000
  C   C65       1.0  0.27532  0.86398  0.28770  1.0000
  C   C66       1.0  0.30423  0.89082  0.28743  1.0000
  H   H47       1.0  0.25897  0.86212  0.24347  1.0000
  H   H48       1.0  0.30801  0.90779  0.24292  1.0000
  C   C67       1.0  0.20465  0.76491  0.26752  1.0000
  C   C68       1.0  0.23154  0.79374  0.26922  1.0000
  H   H49       1.0  0.20024  0.75176  0.21132  1.0000
  H   H50       1.0  0.24554  0.80056  0.21425  1.0000
  C   C69       1.0  0.83864  0.61614  0.28795  1.0000
  C   C70       1.0  0.86558  0.61425  0.28774  1.0000
  H   H51       1.0  0.83671  0.63061  0.24380  1.0000
  H   H52       1.0  0.88257  0.62757  0.24337  1.0000
  C   C71       1.0  0.73943  0.58716  0.26735  1.0000
  C   C72       1.0  0.76835  0.58930  0.26912  1.0000
  H   H53       1.0  0.72635  0.57843  0.21108  1.0000
  H   H54       1.0  0.77529  0.58223  0.21414  1.0000
  C   C73       1.0  0.46321  0.29949  0.28763  1.0000
  C   C74       1.0  0.46510  0.32832  0.28742  1.0000
  H   H55       1.0  0.44874  0.28308  0.24348  1.0000
  H   H56       1.0  0.45179  0.33198  0.24303  1.0000
  C   C75       1.0  0.49219  0.22925  0.26706  1.0000
  C   C76       1.0  0.49005  0.25603  0.26882  1.0000
  H   H57       1.0  0.50093  0.22489  0.21079  1.0000
  H   H58       1.0  0.49712  0.27002  0.21384  1.0000
  C   C77       1.0  0.77987  0.24069  0.28796  1.0000
  C   C78       1.0  0.75104  0.21376  0.28768  1.0000
  H   H59       1.0  0.79629  0.24263  0.24381  1.0000
  H   H60       1.0  0.74738  0.19678  0.24327  1.0000
  C   C79       1.0  0.85011  0.33990  0.26748  1.0000
  C   C80       1.0  0.82333  0.31098  0.26922  1.0000
  H   H61       1.0  0.85448  0.35299  0.21121  1.0000
  H   H62       1.0  0.80935  0.30405  0.21422  1.0000
  C   C81       1.0  0.01207  0.62866  0.34130  1.0000
  C   C82       1.0  0.04373  0.64428  0.34295  1.0000
  C   C83       1.0  0.05360  0.62288  0.33696  1.0000
  N   N5        1.0  0.02760  0.59514  0.33274  1.0000
  C   C84       1.0  0.00183  0.59730  0.33553  1.0000
  C   C85       1.0  0.97054  0.57370  0.33250  1.0000
  N   N6        1.0  0.97745  0.52797  0.33339  1.0000
  C   C86       1.0  0.95993  0.49705  0.33230  1.0000
  C   C87       1.0  0.92957  0.49064  0.32810  1.0000
  C   C88       1.0  0.92980  0.51812  0.32804  1.0000
  C   C89       1.0  0.96966  0.47498  0.33562  1.0000
  C   C90       1.0  0.00085  0.48224  0.33698  1.0000
  N   N7        1.0  0.02684  0.50997  0.33271  1.0000
  C   C91       1.0  0.05262  0.50781  0.33558  1.0000
  C   C92       1.0  0.04237  0.47646  0.34159  1.0000
  C   C93       1.0  0.01072  0.46084  0.34326  1.0000
  N   N8        1.0  0.07700  0.57714  0.33332  1.0000
  C   C94       1.0  0.09452  0.60806  0.33230  1.0000
  C   C95       1.0  0.08479  0.63013  0.33574  1.0000
  C   C96       1.0  0.10814  0.66169  0.33946  1.0000
  C   C97       1.0  0.12579  0.67397  0.41772  1.0000
  C   C98       1.0  0.15068  0.70418  0.41889  1.0000
  C   C99       1.0  0.15855  0.72335  0.34256  1.0000
  C   C100      1.0  0.11542  0.51500  0.41580  1.0000
  C   C101      1.0  0.14032  0.50971  0.41941  1.0000
  C   C102      1.0  0.15784  0.51270  0.34213  1.0000
  C   C103      1.0  0.94632  0.44342  0.33931  1.0000
  C   C104      1.0  0.89605  0.38167  0.34248  1.0000
  C   C105      1.0  0.90380  0.40089  0.41872  1.0000
  C   C106      1.0  0.92861  0.43114  0.41752  1.0000
  C   C107      1.0  0.94750  0.58233  0.33419  1.0000
  C   C108      1.0  0.93895  0.59005  0.41582  1.0000
  C   C109      1.0  0.91399  0.59525  0.41943  1.0000
  C   C110      1.0  0.89647  0.59219  0.34214  1.0000
  H   H63       1.0  0.90820  0.60050  0.47979  1.0000
  H   H64       1.0  0.95032  0.59114  0.47365  1.0000
  H   H65       1.0  0.05705  0.66758  0.34753  1.0000
  H   H66       1.0  0.02745  0.57608  0.32646  1.0000
  H   H67       1.0  0.02699  0.52901  0.32574  1.0000
  H   H68       1.0  0.91055  0.52005  0.32644  1.0000
  H   H69       1.0  0.91014  0.46960  0.32601  1.0000
  H   H70       1.0  0.93299  0.44454  0.47320  1.0000
  H   H71       1.0  0.89070  0.39349  0.47538  1.0000
  H   H72       1.0  0.99740  0.43755  0.34799  1.0000
  H   H73       1.0  0.10401  0.51391  0.47360  1.0000
  H   H74       1.0  0.14601  0.50435  0.47973  1.0000
  H   H75       1.0  0.16379  0.71156  0.47553  1.0000
  H   H76       1.0  0.12138  0.66058  0.47341  1.0000
  C   C111      1.0  0.43507  0.47646  0.34300  1.0000
  N   N9        1.0  0.48420  0.50947  0.33244  1.0000
  C   C112      1.0  0.48204  0.48153  0.33528  1.0000
  C   C113      1.0  0.50565  0.47384  0.33204  1.0000
  N   N10       1.0  0.55137  0.52648  0.33302  1.0000
  C   C114      1.0  0.58230  0.53989  0.33198  1.0000
  C   C115      1.0  0.58871  0.51594  0.32773  1.0000
  C   C116      1.0  0.56122  0.48868  0.32756  1.0000
  C   C117      1.0  0.60436  0.57168  0.33540  1.0000
  N   N11       1.0  0.56937  0.59388  0.33243  1.0000
  C   C118      1.0  0.57153  0.62181  0.33524  1.0000
  C   C119      1.0  0.61850  0.62689  0.34287  1.0000
  C   C120      1.0  0.47128  0.56346  0.33196  1.0000
  C   C121      1.0  0.44921  0.53166  0.33537  1.0000
  C   C122      1.0  0.41765  0.52345  0.33912  1.0000
  C   C123      1.0  0.40539  0.52886  0.41740  1.0000
  C   C124      1.0  0.37518  0.52353  0.41861  1.0000
  C   C125      1.0  0.35599  0.51219  0.34232  1.0000
  C   C126      1.0  0.56433  0.67744  0.41546  1.0000
  C   C127      1.0  0.56963  0.70763  0.41907  1.0000
  C   C128      1.0  0.63592  0.57990  0.33909  1.0000
  C   C129      1.0  0.69766  0.59137  0.34231  1.0000
  C   C130      1.0  0.67844  0.57995  0.41857  1.0000
  C   C131      1.0  0.64819  0.57451  0.41734  1.0000
  C   C132      1.0  0.49702  0.44218  0.33377  1.0000
  C   C133      1.0  0.48932  0.42595  0.41544  1.0000
  C   C134      1.0  0.48412  0.39579  0.41908  1.0000
  C   C135      1.0  0.48717  0.38129  0.34180  1.0000
  H   H77       1.0  0.47886  0.38477  0.47945  1.0000
  H   H78       1.0  0.48822  0.43625  0.47324  1.0000
  H   H79       1.0  0.41177  0.46649  0.34763  1.0000
  H   H80       1.0  0.50324  0.52836  0.32547  1.0000
  H   H81       1.0  0.55032  0.57497  0.32580  1.0000
  H   H82       1.0  0.55929  0.46750  0.32593  1.0000
  H   H83       1.0  0.60974  0.51755  0.32569  1.0000
  H   H84       1.0  0.63478  0.56548  0.47298  1.0000
  H   H85       1.0  0.68583  0.57424  0.47519  1.0000
  H   H86       1.0  0.64180  0.63686  0.34748  1.0000
  H   H87       1.0  0.56544  0.66715  0.47325  1.0000
  H   H88       1.0  0.57498  0.71870  0.47939  1.0000
  H   H89       1.0  0.36780  0.52928  0.47525  1.0000
  H   H90       1.0  0.41879  0.53787  0.47305  1.0000
  C   C136      1.0  0.60289  0.03562  0.34256  1.0000
  C   C137      1.0  0.59781  0.07751  0.33503  1.0000
  N   N12       1.0  0.55286  0.10189  0.33278  1.0000
  C   C138      1.0  0.53945  0.11941  0.33175  1.0000
  C   C139      1.0  0.56340  0.14977  0.32762  1.0000
  C   C140      1.0  0.59067  0.14954  0.32750  1.0000
  C   C141      1.0  0.50766  0.10968  0.33512  1.0000
  C   C142      1.0  0.45753  0.02672  0.33500  1.0000
  C   C143      1.0  0.45245  0.06861  0.34243  1.0000
  C   C144      1.0  0.51589  0.98482  0.33183  1.0000
  C   C145      1.0  0.54768  0.99455  0.33515  1.0000
  C   C146      1.0  0.55050  0.95356  0.41715  1.0000
  C   C147      1.0  0.55583  0.92867  0.41833  1.0000
  C   C148      1.0  0.40192  0.96394  0.41546  1.0000
  C   C149      1.0  0.37171  0.93907  0.41912  1.0000
  C   C150      1.0  0.49943  0.13302  0.33881  1.0000
  C   C151      1.0  0.48797  0.18329  0.34202  1.0000
  C   C152      1.0  0.49937  0.17551  0.41829  1.0000
  C   C153      1.0  0.50482  0.15070  0.41705  1.0000
  C   C154      1.0  0.63716  0.13184  0.33372  1.0000
  C   C155      1.0  0.65338  0.14036  0.41542  1.0000
  C   C156      1.0  0.68352  0.16533  0.41917  1.0000
  H   H91       1.0  0.69453  0.17108  0.47955  1.0000
  H   H92       1.0  0.64305  0.12897  0.47319  1.0000
  H   H93       1.0  0.61287  0.02229  0.34712  1.0000
  H   H94       1.0  0.61184  0.16880  0.32594  1.0000
  H   H95       1.0  0.56179  0.16919  0.32561  1.0000
  H   H96       1.0  0.51382  0.14632  0.47273  1.0000
  H   H97       1.0  0.50508  0.18862  0.47492  1.0000
  H   H98       1.0  0.44247  0.08194  0.34702  1.0000
  H   H99       1.0  0.41222  0.97536  0.47322  1.0000
  H   H100      1.0  0.36067  0.93338  0.47947  1.0000
  H   H101      1.0  0.55010  0.91558  0.47499  1.0000
  H   H102      1.0  0.54151  0.95797  0.47283  1.0000
  C   C157      1.0  0.18488  0.51023  0.34709  1.0000
  C   C158      1.0  0.20914  0.52829  0.40752  1.0000
  C   C159      1.0  0.23589  0.52571  0.40754  1.0000
  C   C160      1.0  0.23934  0.50583  0.34820  1.0000
  C   C161      1.0  0.26715  0.50490  0.34674  1.0000
  C   C162      1.0  0.27786  0.49616  0.42273  1.0000
  C   C163      1.0  0.30677  0.49781  0.41921  1.0000
  C   C164      1.0  0.32581  0.50850  0.34256  1.0000
  H   H103      1.0  0.31391  0.49106  0.47430  1.0000
  H   H104      1.0  0.25349  0.53935  0.44984  1.0000
  N   N13       1.0  0.25937  0.48564  0.50051  1.0000
  N   N14       1.0  0.20713  0.54977  0.46423  1.0000
  O   O1        1.0  0.27273  0.50240  0.56680  1.0000
  O   O2        1.0  0.20901  0.54431  0.54524  1.0000
  O   O3        1.0  0.25224  0.45855  0.51912  1.0000
  O   O4        1.0  0.22769  0.57678  0.44713  1.0000
  C   C165      1.0  0.56912  0.75166  0.34674  1.0000
  C   C166      1.0  0.55106  0.75788  0.40717  1.0000
  C   C167      1.0  0.55364  0.78721  0.40720  1.0000
  C   C168      1.0  0.57353  0.81053  0.34788  1.0000
  C   C169      1.0  0.57446  0.83926  0.34642  1.0000
  C   C170      1.0  0.58320  0.85873  0.42242  1.0000
  C   C171      1.0  0.58156  0.88600  0.41889  1.0000
  C   C172      1.0  0.57087  0.89433  0.34224  1.0000
  H   H105      1.0  0.58831  0.89991  0.47399  1.0000
  H   H106      1.0  0.54000  0.79119  0.44949  1.0000
  N   N15       1.0  0.59371  0.85079  0.50021  1.0000
  N   N16       1.0  0.52957  0.73440  0.46386  1.0000
  O   O5        1.0  0.57695  0.84741  0.56648  1.0000
  O   O6        1.0  0.53503  0.74177  0.54488  1.0000
  O   O7        1.0  0.62081  0.87075  0.51884  1.0000
  O   O8        1.0  0.50257  0.72796  0.44674  1.0000
  C   C173      1.0  0.32769  0.89447  0.34693  1.0000
  C   C174      1.0  0.32149  0.87023  0.40743  1.0000
  C   C175      1.0  0.29216  0.84347  0.40754  1.0000
  C   C176      1.0  0.26883  0.84001  0.34823  1.0000
  C   C177      1.0  0.24010  0.81220  0.34683  1.0000
  C   C178      1.0  0.22064  0.80150  0.42285  1.0000
  C   C179      1.0  0.19338  0.77258  0.41938  1.0000
  C   C180      1.0  0.18504  0.75353  0.34276  1.0000
  H   H107      1.0  0.17948  0.76545  0.47449  1.0000
  H   H108      1.0  0.28820  0.82589  0.44987  1.0000
  N   N17       1.0  0.22860  0.81999  0.50062  1.0000
  N   N18       1.0  0.34498  0.87227  0.46411  1.0000
  O   O9        1.0  0.23198  0.80664  0.56691  1.0000
  O   O10       1.0  0.33762  0.87040  0.54513  1.0000
  O   O11       1.0  0.20863  0.82712  0.51925  1.0000
  O   O12       1.0  0.35143  0.85170  0.44703  1.0000
  C   C181      1.0  0.86933  0.59447  0.34714  1.0000
  C   C182      1.0  0.84507  0.57626  0.40742  1.0000
  C   C183      1.0  0.81820  0.57865  0.40747  1.0000
  C   C184      1.0  0.81465  0.59848  0.34829  1.0000
  C   C185      1.0  0.78674  0.59922  0.34683  1.0000
  C   C186      1.0  0.77589  0.60780  0.42288  1.0000
  C   C187      1.0  0.74689  0.60598  0.41933  1.0000
  C   C188      1.0  0.72791  0.59524  0.34261  1.0000
  H   H109      1.0  0.73965  0.61263  0.47447  1.0000
  H   H110      1.0  0.80061  0.56491  0.44965  1.0000
  N   N19       1.0  0.79431  0.61836  0.50074  1.0000
  N   N20       1.0  0.84719  0.55483  0.46395  1.0000
  O   O13       1.0  0.78097  0.60153  0.56690  1.0000
  O   O14       1.0  0.84520  0.56019  0.54501  1.0000
  O   O15       1.0  0.80127  0.64540  0.51954  1.0000
  O   O16       1.0  0.82675  0.52779  0.44661  1.0000
  C   C189      1.0  0.48488  0.35186  0.34682  1.0000
  C   C190      1.0  0.50308  0.34583  0.40711  1.0000
  C   C191      1.0  0.50069  0.31657  0.40716  1.0000
  C   C192      1.0  0.48086  0.29317  0.34798  1.0000
  C   C193      1.0  0.48013  0.26453  0.34652  1.0000
  C   C194      1.0  0.47153  0.24511  0.42256  1.0000
  C   C195      1.0  0.47336  0.21794  0.41902  1.0000
  C   C196      1.0  0.48411  0.20968  0.34232  1.0000
  H   H111      1.0  0.46670  0.20406  0.47415  1.0000
  H   H112      1.0  0.51443  0.31274  0.44935  1.0000
  N   N21       1.0  0.46096  0.25299  0.50041  1.0000
  N   N22       1.0  0.52452  0.36941  0.46363  1.0000
  O   O17       1.0  0.47779  0.25651  0.56659  1.0000
  O   O18       1.0  0.51915  0.36208  0.54469  1.0000
  O   O19       1.0  0.43392  0.23292  0.51920  1.0000
  O   O20       1.0  0.55156  0.37600  0.44630  1.0000
  C   C197      1.0  0.72749  0.21000  0.34705  1.0000
  C   C198      1.0  0.73351  0.23425  0.40738  1.0000
  C   C199      1.0  0.76277  0.26111  0.40750  1.0000
  C   C200      1.0  0.78618  0.26468  0.34834  1.0000
  C   C201      1.0  0.81482  0.29259  0.34691  1.0000
  C   C202      1.0  0.83423  0.30344  0.42298  1.0000
  C   C203      1.0  0.86139  0.33244  0.41947  1.0000
  C   C204      1.0  0.86968  0.35142  0.34275  1.0000
  H   H113      1.0  0.87526  0.33968  0.47462  1.0000
  H   H114      1.0  0.76660  0.27870  0.44971  1.0000
  N   N23       1.0  0.82633  0.28501  0.50084  1.0000
  N   N24       1.0  0.70992  0.23211  0.46388  1.0000
  O   O21       1.0  0.82280  0.29834  0.56700  1.0000
  O   O22       1.0  0.71723  0.23408  0.54495  1.0000
  O   O23       1.0  0.84640  0.27805  0.51967  1.0000
  O   O24       1.0  0.70333  0.25256  0.44657  1.0000
