data_image0
_chemical_formula_structural       C5HCH3NHC3HCH3NHC3HCH3NHNCNCNC3O3NCNCNC3O3C3HCH3NHC3HCH3NHC3HCH3NHC5HCH3NHC3HCH3NHC3HCH3NHNCNCNC3O3NCNCNC3O3C3HCH3NHC3HCH3NHC3HCH3NHC5HCH3NHC3HCH3NHC3HCH3NHNCNCNC3O3NCNCNC3O3C3HCH3NHC3HCH3NHC3HCH3NHC5HCH3NHC3HCH3NHC3HCH3NHNCNCNC3O3NCNCNC3O3C3HCH3NHC3HCH3NHC3HCH3NH
_chemical_formula_sum              "C144 H120 N48 O24"
_cell_length_a       43.5831
_cell_length_b       43.5832
_cell_length_c       15.0431
_cell_angle_alpha    90
_cell_angle_beta     90
_cell_angle_gamma    120

_space_group_name_H-M_alt    "P 1"
_space_group_IT_number       1

loop_
  _space_group_symop_operation_xyz
  'x, y, z'

loop_
  _atom_site_type_symbol
  _atom_site_label
  _atom_site_symmetry_multiplicity
  _atom_site_fract_x
  _atom_site_fract_y
  _atom_site_fract_z
  _atom_site_occupancy
  C   C1        1.0  0.12843  0.31741  0.41228  1.0000
  C   C2        1.0  0.36549  0.17209  0.26797  1.0000
  C   C3        1.0  0.27279  0.23894  0.29389  1.0000
  C   C4        1.0  0.22701  0.25638  0.28140  1.0000
  C   C5        1.0  0.24090  0.23437  0.25787  1.0000
  H   H1        1.0  0.22884  0.21610  0.20814  1.0000
  C   C6        1.0  0.19911  0.25478  0.22079  1.0000
  H   H2        1.0  0.19465  0.27706  0.22906  1.0000
  H   H3        1.0  0.17422  0.23018  0.23180  1.0000
  H   H4        1.0  0.20695  0.25550  0.15147  1.0000
  N   N1        1.0  0.28425  0.21618  0.26876  1.0000
  H   H5        1.0  0.26659  0.19406  0.24102  1.0000
  C   C7        1.0  0.25750  0.03315  0.29403  1.0000
  C   C8        1.0  0.24003  0.46992  0.28143  1.0000
  C   C9        1.0  0.26203  0.00582  0.25790  1.0000
  H   H6        1.0  0.28032  0.01205  0.20823  1.0000
  C   C10       1.0  0.24162  0.44363  0.22079  1.0000
  H   H7        1.0  0.21934  0.41688  0.22905  1.0000
  H   H8        1.0  0.26623  0.44334  0.23178  1.0000
  H   H9        1.0  0.24090  0.45075  0.15148  1.0000
  N   N2        1.0  0.28026  0.06736  0.26892  1.0000
  H   H10       1.0  0.30238  0.07183  0.24118  1.0000
  C   C11       1.0  0.46327  0.22362  0.29396  1.0000
  C   C12       1.0  0.02650  0.26939  0.28140  1.0000
  C   C13       1.0  0.49060  0.25550  0.25789  1.0000
  H   H11       1.0  0.48439  0.26755  0.20814  1.0000
  C   C14       1.0  0.05280  0.29727  0.22075  1.0000
  H   H12       1.0  0.07954  0.30172  0.22902  1.0000
  H   H13       1.0  0.05309  0.32216  0.23174  1.0000
  H   H14       1.0  0.04567  0.28942  0.15145  1.0000
  N   N3        1.0  0.42906  0.21217  0.26884  1.0000
  H   H15       1.0  0.42460  0.22982  0.24106  1.0000
  N   N4        1.0  0.15029  0.35307  0.41144  1.0000
  C   C15       1.0  0.18610  0.36798  0.41230  1.0000
  N   N5        1.0  0.19991  0.34613  0.41146  1.0000
  C   C16       1.0  0.17902  0.31033  0.41232  1.0000
  N   N6        1.0  0.14336  0.29653  0.41144  1.0000
  C   C17       1.0  0.20851  0.40458  0.40007  1.0000
  C   C18       1.0  0.19321  0.28791  0.40009  1.0000
  C   C19       1.0  0.09183  0.30320  0.40005  1.0000
  O   O1        1.0  0.17014  0.25250  0.39941  1.0000
  O   O2        1.0  0.07947  0.32626  0.39941  1.0000
  O   O3        1.0  0.24392  0.41694  0.39942  1.0000
  N   N7        1.0  0.33791  0.13831  0.26868  1.0000
  C   C20       1.0  0.30372  0.13093  0.26798  1.0000
  N   N8        1.0  0.29752  0.15851  0.26862  1.0000
  C   C21       1.0  0.32434  0.19270  0.26791  1.0000
  N   N9        1.0  0.35811  0.19890  0.26861  1.0000
  C   C22       1.0  0.27552  0.09592  0.27562  1.0000
  C   C23       1.0  0.31754  0.22091  0.27550  1.0000
  C   C24       1.0  0.40049  0.17888  0.27564  1.0000
  O   O4        1.0  0.34596  0.25390  0.28453  1.0000
  O   O5        1.0  0.40505  0.15046  0.28468  1.0000
  O   O6        1.0  0.24253  0.09135  0.28470  1.0000
  C   C25       1.0  0.29012  0.26599  0.35779  1.0000
  C   C26       1.0  0.27596  0.28713  0.38769  1.0000
  C   C27       1.0  0.24316  0.28149  0.35186  1.0000
  H   H16       1.0  0.31211  0.26853  0.38876  1.0000
  C   C28       1.0  0.29460  0.31271  0.46143  1.0000
  H   H17       1.0  0.31798  0.31216  0.48534  1.0000
  H   H18       1.0  0.27667  0.30659  0.51779  1.0000
  H   H19       1.0  0.30335  0.33963  0.43877  1.0000
  N   N10       1.0  0.22836  0.30049  0.38459  1.0000
  H   H20       1.0  0.24443  0.32449  0.40502  1.0000
  C   C29       1.0  0.23041  0.02343  0.35783  1.0000
  C   C30       1.0  0.20930  0.48813  0.38777  1.0000
  C   C31       1.0  0.21493  0.46096  0.35192  1.0000
  H   H21       1.0  0.22795  0.04288  0.38901  1.0000
  C   C32       1.0  0.18377  0.48119  0.46164  1.0000
  H   H22       1.0  0.18432  0.50512  0.48557  1.0000
  H   H23       1.0  0.18994  0.46941  0.51795  1.0000
  H   H24       1.0  0.15683  0.46301  0.43911  1.0000
  N   N11       1.0  0.19593  0.42716  0.38462  1.0000
  H   H25       1.0  0.17195  0.41923  0.40519  1.0000
  C   C33       1.0  0.47300  0.20629  0.35788  1.0000
  C   C34       1.0  0.00829  0.22045  0.38777  1.0000
  C   C35       1.0  0.03547  0.25325  0.35189  1.0000
  H   H26       1.0  0.45355  0.18432  0.38888  1.0000
  C   C36       1.0  0.01525  0.20183  0.46154  1.0000
  H   H27       1.0  0.99132  0.17846  0.48548  1.0000
  H   H28       1.0  0.02706  0.21977  0.51787  1.0000
  H   H29       1.0  0.03341  0.19307  0.43890  1.0000
  N   N12       1.0  0.06927  0.26805  0.38460  1.0000
  H   H30       1.0  0.07720  0.25199  0.40506  1.0000
  C   C37       1.0  0.12844  0.81741  0.41228  1.0000
  C   C38       1.0  0.36549  0.67209  0.26797  1.0000
  C   C39       1.0  0.27279  0.73894  0.29389  1.0000
  C   C40       1.0  0.22701  0.75638  0.28140  1.0000
  C   C41       1.0  0.24090  0.73437  0.25787  1.0000
  H   H31       1.0  0.22884  0.71610  0.20814  1.0000
  C   C42       1.0  0.19911  0.75478  0.22079  1.0000
  H   H32       1.0  0.19465  0.77706  0.22906  1.0000
  H   H33       1.0  0.17422  0.73018  0.23180  1.0000
  H   H34       1.0  0.20695  0.75550  0.15147  1.0000
  N   N13       1.0  0.28424  0.71618  0.26876  1.0000
  H   H35       1.0  0.26659  0.69405  0.24102  1.0000
  C   C43       1.0  0.25750  0.53315  0.29403  1.0000
  C   C44       1.0  0.24003  0.96992  0.28143  1.0000
  C   C45       1.0  0.26203  0.50582  0.25790  1.0000
  H   H36       1.0  0.28032  0.51205  0.20823  1.0000
  C   C46       1.0  0.24162  0.94363  0.22079  1.0000
  H   H37       1.0  0.21934  0.91688  0.22905  1.0000
  H   H38       1.0  0.26623  0.94334  0.23178  1.0000
  H   H39       1.0  0.24091  0.95075  0.15148  1.0000
  N   N14       1.0  0.28026  0.56737  0.26892  1.0000
  H   H40       1.0  0.30238  0.57183  0.24118  1.0000
  C   C47       1.0  0.46327  0.72362  0.29396  1.0000
  C   C48       1.0  0.02650  0.76939  0.28140  1.0000
  C   C49       1.0  0.49060  0.75550  0.25789  1.0000
  H   H41       1.0  0.48439  0.76755  0.20814  1.0000
  C   C50       1.0  0.05280  0.79727  0.22075  1.0000
  H   H42       1.0  0.07954  0.80172  0.22902  1.0000
  H   H43       1.0  0.05309  0.82216  0.23174  1.0000
  H   H44       1.0  0.04567  0.78942  0.15145  1.0000
  N   N15       1.0  0.42906  0.71217  0.26884  1.0000
  H   H45       1.0  0.42460  0.72982  0.24106  1.0000
  N   N16       1.0  0.15029  0.85307  0.41144  1.0000
  C   C51       1.0  0.18610  0.86798  0.41230  1.0000
  N   N17       1.0  0.19991  0.84613  0.41146  1.0000
  C   C52       1.0  0.17902  0.81032  0.41232  1.0000
  N   N18       1.0  0.14336  0.79653  0.41144  1.0000
  C   C53       1.0  0.20851  0.90458  0.40007  1.0000
  C   C54       1.0  0.19321  0.78791  0.40009  1.0000
  C   C55       1.0  0.09184  0.80320  0.40005  1.0000
  O   O7        1.0  0.17014  0.75250  0.39941  1.0000
  O   O8        1.0  0.07947  0.82625  0.39941  1.0000
  O   O9        1.0  0.24392  0.91694  0.39942  1.0000
  N   N19       1.0  0.33791  0.63831  0.26868  1.0000
  C   C56       1.0  0.30372  0.63093  0.26798  1.0000
  N   N20       1.0  0.29752  0.65851  0.26862  1.0000
  C   C57       1.0  0.32434  0.69270  0.26791  1.0000
  N   N21       1.0  0.35811  0.69890  0.26861  1.0000
  C   C58       1.0  0.27552  0.59592  0.27562  1.0000
  C   C59       1.0  0.31754  0.72091  0.27550  1.0000
  C   C60       1.0  0.40049  0.67888  0.27564  1.0000
  O   O10       1.0  0.34596  0.75390  0.28453  1.0000
  O   O11       1.0  0.40505  0.65046  0.28468  1.0000
  O   O12       1.0  0.24253  0.59135  0.28470  1.0000
  C   C61       1.0  0.29013  0.76599  0.35779  1.0000
  C   C62       1.0  0.27596  0.78713  0.38769  1.0000
  C   C63       1.0  0.24316  0.78149  0.35186  1.0000
  H   H46       1.0  0.31211  0.76853  0.38876  1.0000
  C   C64       1.0  0.29460  0.81271  0.46143  1.0000
  H   H47       1.0  0.31798  0.81216  0.48534  1.0000
  H   H48       1.0  0.27667  0.80659  0.51779  1.0000
  H   H49       1.0  0.30335  0.83963  0.43877  1.0000
  N   N22       1.0  0.22836  0.80049  0.38459  1.0000
  H   H50       1.0  0.24443  0.82449  0.40502  1.0000
  C   C65       1.0  0.23041  0.52343  0.35783  1.0000
  C   C66       1.0  0.20930  0.98813  0.38777  1.0000
  C   C67       1.0  0.21493  0.96096  0.35192  1.0000
  H   H51       1.0  0.22795  0.54288  0.38901  1.0000
  C   C68       1.0  0.18377  0.98119  0.46164  1.0000
  H   H52       1.0  0.18432  0.00512  0.48557  1.0000
  H   H53       1.0  0.18994  0.96941  0.51795  1.0000
  H   H54       1.0  0.15683  0.96301  0.43911  1.0000
  N   N23       1.0  0.19593  0.92716  0.38462  1.0000
  H   H55       1.0  0.17195  0.91923  0.40519  1.0000
  C   C69       1.0  0.47300  0.70629  0.35788  1.0000
  C   C70       1.0  0.00829  0.72045  0.38777  1.0000
  C   C71       1.0  0.03546  0.75325  0.35189  1.0000
  H   H56       1.0  0.45355  0.68432  0.38888  1.0000
  C   C72       1.0  0.01525  0.70183  0.46154  1.0000
  H   H57       1.0  0.99132  0.67846  0.48548  1.0000
  H   H58       1.0  0.02706  0.71977  0.51787  1.0000
  H   H59       1.0  0.03341  0.69307  0.43890  1.0000
  N   N24       1.0  0.06927  0.76805  0.38460  1.0000
  H   H60       1.0  0.07720  0.75199  0.40506  1.0000
  C   C73       1.0  0.62843  0.31741  0.41228  1.0000
  C   C74       1.0  0.86550  0.17209  0.26797  1.0000
  C   C75       1.0  0.77279  0.23894  0.29389  1.0000
  C   C76       1.0  0.72701  0.25638  0.28140  1.0000
  C   C77       1.0  0.74090  0.23437  0.25787  1.0000
  H   H61       1.0  0.72884  0.21610  0.20814  1.0000
  C   C78       1.0  0.69911  0.25478  0.22079  1.0000
  H   H62       1.0  0.69465  0.27706  0.22906  1.0000
  H   H63       1.0  0.67422  0.23018  0.23180  1.0000
  H   H64       1.0  0.70694  0.25550  0.15147  1.0000
  N   N25       1.0  0.78424  0.21618  0.26876  1.0000
  H   H65       1.0  0.76659  0.19406  0.24102  1.0000
  C   C79       1.0  0.75750  0.03315  0.29403  1.0000
  C   C80       1.0  0.74003  0.46992  0.28143  1.0000
  C   C81       1.0  0.76203  0.00582  0.25790  1.0000
  H   H66       1.0  0.78033  0.01205  0.20823  1.0000
  C   C82       1.0  0.74162  0.44363  0.22079  1.0000
  H   H67       1.0  0.71934  0.41688  0.22905  1.0000
  H   H68       1.0  0.76623  0.44334  0.23178  1.0000
  H   H69       1.0  0.74090  0.45075  0.15148  1.0000
  N   N26       1.0  0.78026  0.06736  0.26892  1.0000
  H   H70       1.0  0.80238  0.07183  0.24118  1.0000
  C   C83       1.0  0.96328  0.22362  0.29396  1.0000
  C   C84       1.0  0.52650  0.26939  0.28140  1.0000
  C   C85       1.0  0.99060  0.25550  0.25789  1.0000
  H   H71       1.0  0.98439  0.26755  0.20814  1.0000
  C   C86       1.0  0.55280  0.29727  0.22075  1.0000
  H   H72       1.0  0.57954  0.30172  0.22902  1.0000
  H   H73       1.0  0.55309  0.32216  0.23174  1.0000
  H   H74       1.0  0.54567  0.28942  0.15145  1.0000
  N   N27       1.0  0.92906  0.21217  0.26884  1.0000
  H   H75       1.0  0.92460  0.22982  0.24106  1.0000
  N   N28       1.0  0.65029  0.35307  0.41144  1.0000
  C   C87       1.0  0.68610  0.36798  0.41230  1.0000
  N   N29       1.0  0.69991  0.34613  0.41146  1.0000
  C   C88       1.0  0.67902  0.31033  0.41232  1.0000
  N   N30       1.0  0.64336  0.29653  0.41144  1.0000
  C   C89       1.0  0.70851  0.40458  0.40007  1.0000
  C   C90       1.0  0.69321  0.28791  0.40009  1.0000
  C   C91       1.0  0.59184  0.30320  0.40005  1.0000
  O   O13       1.0  0.67015  0.25250  0.39941  1.0000
  O   O14       1.0  0.57947  0.32626  0.39941  1.0000
  O   O15       1.0  0.74392  0.41694  0.39942  1.0000
  N   N31       1.0  0.83791  0.13831  0.26868  1.0000
  C   C92       1.0  0.80372  0.13093  0.26798  1.0000
  N   N32       1.0  0.79752  0.15851  0.26862  1.0000
  C   C93       1.0  0.82434  0.19270  0.26791  1.0000
  N   N33       1.0  0.85811  0.19890  0.26861  1.0000
  C   C94       1.0  0.77552  0.09592  0.27562  1.0000
  C   C95       1.0  0.81754  0.22091  0.27550  1.0000
  C   C96       1.0  0.90049  0.17888  0.27564  1.0000
  O   O16       1.0  0.84596  0.25390  0.28453  1.0000
  O   O17       1.0  0.90505  0.15046  0.28468  1.0000
  O   O18       1.0  0.74253  0.09135  0.28470  1.0000
  C   C97       1.0  0.79012  0.26599  0.35779  1.0000
  C   C98       1.0  0.77597  0.28713  0.38769  1.0000
  C   C99       1.0  0.74316  0.28149  0.35186  1.0000
  H   H76       1.0  0.81211  0.26853  0.38876  1.0000
  C   C100      1.0  0.79460  0.31271  0.46143  1.0000
  H   H77       1.0  0.81798  0.31216  0.48534  1.0000
  H   H78       1.0  0.77667  0.30659  0.51779  1.0000
  H   H79       1.0  0.80335  0.33963  0.43877  1.0000
  N   N34       1.0  0.72836  0.30049  0.38459  1.0000
  H   H80       1.0  0.74443  0.32449  0.40502  1.0000
  C   C101      1.0  0.73041  0.02343  0.35783  1.0000
  C   C102      1.0  0.70930  0.48813  0.38777  1.0000
  C   C103      1.0  0.71493  0.46096  0.35192  1.0000
  H   H81       1.0  0.72795  0.04288  0.38901  1.0000
  C   C104      1.0  0.68377  0.48119  0.46164  1.0000
  H   H82       1.0  0.68432  0.50512  0.48557  1.0000
  H   H83       1.0  0.68994  0.46941  0.51795  1.0000
  H   H84       1.0  0.65684  0.46301  0.43911  1.0000
  N   N35       1.0  0.69593  0.42716  0.38462  1.0000
  H   H85       1.0  0.67195  0.41923  0.40519  1.0000
  C   C105      1.0  0.97300  0.20629  0.35788  1.0000
  C   C106      1.0  0.50830  0.22045  0.38777  1.0000
  C   C107      1.0  0.53547  0.25325  0.35189  1.0000
  H   H86       1.0  0.95355  0.18432  0.38888  1.0000
  C   C108      1.0  0.51525  0.20183  0.46154  1.0000
  H   H87       1.0  0.49132  0.17846  0.48548  1.0000
  H   H88       1.0  0.52706  0.21977  0.51787  1.0000
  H   H89       1.0  0.53341  0.19307  0.43890  1.0000
  N   N36       1.0  0.56927  0.26805  0.38460  1.0000
  H   H90       1.0  0.57720  0.25199  0.40506  1.0000
  C   C109      1.0  0.62844  0.81741  0.41228  1.0000
  C   C110      1.0  0.86549  0.67209  0.26797  1.0000
  C   C111      1.0  0.77279  0.73894  0.29389  1.0000
  C   C112      1.0  0.72701  0.75638  0.28140  1.0000
  C   C113      1.0  0.74090  0.73437  0.25787  1.0000
  H   H91       1.0  0.72884  0.71610  0.20814  1.0000
  C   C114      1.0  0.69911  0.75478  0.22079  1.0000
  H   H92       1.0  0.69465  0.77706  0.22906  1.0000
  H   H93       1.0  0.67422  0.73018  0.23180  1.0000
  H   H94       1.0  0.70695  0.75550  0.15147  1.0000
  N   N37       1.0  0.78425  0.71618  0.26876  1.0000
  H   H95       1.0  0.76659  0.69405  0.24102  1.0000
  C   C115      1.0  0.75750  0.53315  0.29403  1.0000
  C   C116      1.0  0.74003  0.96992  0.28143  1.0000
  C   C117      1.0  0.76203  0.50582  0.25790  1.0000
  H   H96       1.0  0.78033  0.51205  0.20823  1.0000
  C   C118      1.0  0.74162  0.94363  0.22079  1.0000
  H   H97       1.0  0.71934  0.91688  0.22905  1.0000
  H   H98       1.0  0.76623  0.94334  0.23178  1.0000
  H   H99       1.0  0.74090  0.95075  0.15148  1.0000
  N   N38       1.0  0.78026  0.56737  0.26892  1.0000
  H   H100      1.0  0.80238  0.57183  0.24118  1.0000
  C   C119      1.0  0.96328  0.72362  0.29396  1.0000
  C   C120      1.0  0.52650  0.76939  0.28140  1.0000
  C   C121      1.0  0.99060  0.75550  0.25789  1.0000
  H   H101      1.0  0.98439  0.76755  0.20814  1.0000
  C   C122      1.0  0.55280  0.79727  0.22075  1.0000
  H   H102      1.0  0.57954  0.80172  0.22902  1.0000
  H   H103      1.0  0.55309  0.82216  0.23174  1.0000
  H   H104      1.0  0.54567  0.78942  0.15145  1.0000
  N   N39       1.0  0.92906  0.71217  0.26884  1.0000
  H   H105      1.0  0.92460  0.72982  0.24106  1.0000
  N   N40       1.0  0.65029  0.85307  0.41144  1.0000
  C   C123      1.0  0.68610  0.86798  0.41230  1.0000
  N   N41       1.0  0.69991  0.84613  0.41146  1.0000
  C   C124      1.0  0.67902  0.81032  0.41232  1.0000
  N   N42       1.0  0.64336  0.79653  0.41144  1.0000
  C   C125      1.0  0.70851  0.90458  0.40007  1.0000
  C   C126      1.0  0.69321  0.78791  0.40009  1.0000
  C   C127      1.0  0.59184  0.80320  0.40005  1.0000
  O   O19       1.0  0.67014  0.75250  0.39941  1.0000
  O   O20       1.0  0.57947  0.82625  0.39941  1.0000
  O   O21       1.0  0.74392  0.91694  0.39942  1.0000
  N   N43       1.0  0.83791  0.63831  0.26868  1.0000
  C   C128      1.0  0.80372  0.63093  0.26798  1.0000
  N   N44       1.0  0.79752  0.65851  0.26862  1.0000
  C   C129      1.0  0.82434  0.69270  0.26791  1.0000
  N   N45       1.0  0.85811  0.69890  0.26861  1.0000
  C   C130      1.0  0.77552  0.59592  0.27562  1.0000
  C   C131      1.0  0.81754  0.72091  0.27550  1.0000
  C   C132      1.0  0.90049  0.67888  0.27564  1.0000
  O   O22       1.0  0.84596  0.75390  0.28453  1.0000
  O   O23       1.0  0.90506  0.65046  0.28468  1.0000
  O   O24       1.0  0.74253  0.59135  0.28470  1.0000
  C   C133      1.0  0.79012  0.76599  0.35779  1.0000
  C   C134      1.0  0.77597  0.78713  0.38769  1.0000
  C   C135      1.0  0.74316  0.78149  0.35186  1.0000
  H   H106      1.0  0.81211  0.76853  0.38876  1.0000
  C   C136      1.0  0.79460  0.81271  0.46143  1.0000
  H   H107      1.0  0.81798  0.81216  0.48534  1.0000
  H   H108      1.0  0.77667  0.80659  0.51779  1.0000
  H   H109      1.0  0.80335  0.83963  0.43877  1.0000
  N   N46       1.0  0.72836  0.80049  0.38459  1.0000
  H   H110      1.0  0.74443  0.82449  0.40502  1.0000
  C   C137      1.0  0.73041  0.52343  0.35783  1.0000
  C   C138      1.0  0.70930  0.98813  0.38777  1.0000
  C   C139      1.0  0.71493  0.96096  0.35192  1.0000
  H   H111      1.0  0.72795  0.54288  0.38901  1.0000
  C   C140      1.0  0.68377  0.98119  0.46164  1.0000
  H   H112      1.0  0.68432  0.00512  0.48557  1.0000
  H   H113      1.0  0.68994  0.96941  0.51795  1.0000
  H   H114      1.0  0.65684  0.96301  0.43911  1.0000
  N   N47       1.0  0.69593  0.92716  0.38462  1.0000
  H   H115      1.0  0.67195  0.91923  0.40519  1.0000
  C   C141      1.0  0.97300  0.70629  0.35788  1.0000
  C   C142      1.0  0.50830  0.72045  0.38777  1.0000
  C   C143      1.0  0.53547  0.75325  0.35189  1.0000
  H   H116      1.0  0.95355  0.68432  0.38888  1.0000
  C   C144      1.0  0.51525  0.70183  0.46154  1.0000
  H   H117      1.0  0.49132  0.67846  0.48548  1.0000
  H   H118      1.0  0.52706  0.71977  0.51787  1.0000
  H   H119      1.0  0.53341  0.69307  0.43890  1.0000
  N   N48       1.0  0.56927  0.76805  0.38460  1.0000
  H   H120      1.0  0.57720  0.75199  0.40506  1.0000
