data_image0
_chemical_formula_structural       C4HNO2CHC2H2C2H2CHC6H3C2H2C6H3C6H2NO2CHCHC2NO2C2HOHC3H2C3H2OC4H2C8H3NO2C8H3NOC2H2C2HC2H2C2H2C2H2C2H2C2H2C2H2C3HC3HC6H3C6H3C6H3C2H2C2H2C2H2C2H2C2H2C8H3NOC8H3NO2C8H3NO2C8H3NO2
_chemical_formula_sum              "C144 H81 N9 O18"
_cell_length_a       46.6885
_cell_length_b       46.6886
_cell_length_c       14.7265
_cell_angle_alpha    90
_cell_angle_beta     90
_cell_angle_gamma    120

_space_group_name_H-M_alt    "P 1"
_space_group_IT_number       1

loop_
  _space_group_symop_operation_xyz
  'x, y, z'

loop_
  _atom_site_type_symbol
  _atom_site_label
  _atom_site_symmetry_multiplicity
  _atom_site_fract_x
  _atom_site_fract_y
  _atom_site_fract_z
  _atom_site_occupancy
  C   C1        1.0  0.10394  0.55469  0.35126  1.0000
  C   C2        1.0  0.08578  0.53486  0.27600  1.0000
  C   C3        1.0  0.05066  0.51777  0.27771  1.0000
  C   C4        1.0  0.03239  0.51919  0.35287  1.0000
  H   H1        1.0  0.03835  0.50451  0.22139  1.0000
  N   N1        1.0  0.10307  0.53309  0.19909  1.0000
  O   O1        1.0  0.09645  0.54405  0.12905  1.0000
  O   O2        1.0  0.09645  0.50390  0.18423  1.0000
  C   C5        1.0  0.31109  0.53689  0.28158  1.0000
  H   H2        1.0  0.29906  0.52960  0.22058  1.0000
  C   C6        1.0  0.23447  0.56585  0.26477  1.0000
  C   C7        1.0  0.26064  0.55912  0.26869  1.0000
  H   H3        1.0  0.23351  0.57926  0.21100  1.0000
  H   H4        1.0  0.27769  0.56808  0.21736  1.0000
  C   C8        1.0  0.24436  0.71220  0.28147  1.0000
  C   C9        1.0  0.21759  0.67957  0.28640  1.0000
  H   H5        1.0  0.24904  0.72429  0.22059  1.0000
  H   H6        1.0  0.20448  0.66877  0.22843  1.0000
  C   C10       1.0  0.31707  0.76261  0.26850  1.0000
  H   H7        1.0  0.30891  0.74565  0.21692  1.0000
  C   C11       1.0  0.19262  0.57329  0.34491  1.0000
  C   C12       1.0  0.20929  0.60808  0.35199  1.0000
  C   C13       1.0  0.19206  0.62561  0.36036  1.0000
  C   C14       1.0  0.15709  0.60766  0.35990  1.0000
  C   C15       1.0  0.13941  0.57262  0.35302  1.0000
  C   C16       1.0  0.15764  0.55578  0.34687  1.0000
  H   H8        1.0  0.14445  0.62030  0.36421  1.0000
  H   H9        1.0  0.14535  0.53051  0.34253  1.0000
  H   H10       1.0  0.23468  0.62101  0.35165  1.0000
  C   C17       1.0  0.05112  0.53912  0.42703  1.0000
  C   C18       1.0  0.08599  0.55664  0.42605  1.0000
  H   H11       1.0  0.03952  0.54065  0.48418  1.0000
  H   H12       1.0  0.09827  0.57039  0.48186  1.0000
  C   C19       1.0  0.31438  0.55397  0.43804  1.0000
  C   C20       1.0  0.29604  0.54346  0.35612  1.0000
  C   C21       1.0  0.26574  0.54418  0.34616  1.0000
  C   C22       1.0  0.24219  0.53454  0.41728  1.0000
  C   C23       1.0  0.21586  0.54119  0.41348  1.0000
  C   C24       1.0  0.21214  0.55774  0.33803  1.0000
  H   H13       1.0  0.24501  0.52409  0.47517  1.0000
  H   H14       1.0  0.20122  0.53647  0.46961  1.0000
  H   H15       1.0  0.30494  0.56009  0.49256  1.0000
  C   C25       1.0  0.21126  0.66074  0.36659  1.0000
  C   C26       1.0  0.23152  0.67583  0.44377  1.0000
  C   C27       1.0  0.25826  0.70876  0.43772  1.0000
  C   C28       1.0  0.26602  0.72717  0.35595  1.0000
  C   C29       1.0  0.29706  0.75747  0.34604  1.0000
  C   C30       1.0  0.31100  0.78097  0.41727  1.0000
  H   H16       1.0  0.29777  0.77808  0.47530  1.0000
  H   H17       1.0  0.27383  0.71816  0.49225  1.0000
  N   N2        1.0  0.22564  0.65700  0.52418  1.0000
  O   O3        1.0  0.24991  0.65360  0.54463  1.0000
  O   O4        1.0  0.21936  0.67010  0.58999  1.0000
  C   C31       1.0  0.34369  0.54269  0.28661  1.0000
  H   H18       1.0  0.35454  0.54055  0.22853  1.0000
  C   C32       1.0  0.34999  0.78877  0.26459  1.0000
  H   H19       1.0  0.36431  0.78985  0.21055  1.0000
  C   C33       1.0  0.36246  0.55509  0.36697  1.0000
  C   C34       1.0  0.34731  0.56017  0.44413  1.0000
  N   N3        1.0  0.36612  0.57306  0.52460  1.0000
  O   O5        1.0  0.36950  0.60071  0.54521  1.0000
  O   O6        1.0  0.35300  0.55363  0.59031  1.0000
  C   C35       1.0  0.34401  0.80725  0.41356  1.0000
  C   C36       1.0  0.36422  0.81105  0.33792  1.0000
  H   H20       1.0  0.35392  0.82186  0.46973  1.0000
  O   O7        1.0  0.42592  0.92679  0.18457  1.0000
  H   H21       1.0  0.44391  0.65883  0.21106  1.0000
  C   C37       1.0  0.41508  0.60579  0.35221  1.0000
  C   C38       1.0  0.39758  0.57104  0.36054  1.0000
  C   C39       1.0  0.41556  0.55405  0.36005  1.0000
  H   H22       1.0  0.40294  0.52877  0.36437  1.0000
  H   H23       1.0  0.40214  0.61824  0.35197  1.0000
  C   C40       1.0  0.39929  0.83059  0.34485  1.0000
  C   C41       1.0  0.41742  0.81394  0.35193  1.0000
  C   C42       1.0  0.41673  0.86557  0.34682  1.0000
  H   H24       1.0  0.40373  0.87784  0.34247  1.0000
  H   H25       1.0  0.40497  0.78855  0.35161  1.0000
  O   O8        1.0  0.42251  0.77351  0.54507  1.0000
  C   C43       1.0  0.99659  0.50120  0.35366  1.0000
  C   C44       1.0  0.97809  0.46977  0.31181  1.0000
  C   C45       1.0  0.94320  0.45229  0.31173  1.0000
  C   C46       1.0  0.92463  0.46500  0.35429  1.0000
  H   H26       1.0  0.98988  0.45882  0.28147  1.0000
  H   H27       1.0  0.93146  0.43009  0.27852  1.0000
  C   C47       1.0  0.46855  0.55392  0.35132  1.0000
  C   C48       1.0  0.48841  0.55562  0.27611  1.0000
  C   C49       1.0  0.50550  0.53758  0.27780  1.0000
  C   C50       1.0  0.50406  0.51787  0.35291  1.0000
  C   C51       1.0  0.52204  0.50005  0.35368  1.0000
  C   C52       1.0  0.55348  0.51299  0.31186  1.0000
  C   C53       1.0  0.57096  0.49558  0.31181  1.0000
  C   C54       1.0  0.55824  0.46428  0.35430  1.0000
  H   H28       1.0  0.56445  0.53574  0.28161  1.0000
  H   H29       1.0  0.59317  0.50604  0.27862  1.0000
  H   H30       1.0  0.51880  0.53858  0.22151  1.0000
  N   N4        1.0  0.49021  0.57471  0.19926  1.0000
  O   O9        1.0  0.47930  0.55717  0.12914  1.0000
  O   O10       1.0  0.51941  0.59729  0.18452  1.0000
  C   C55       1.0  0.46932  0.91929  0.35125  1.0000
  C   C56       1.0  0.46761  0.93745  0.27606  1.0000
  C   C57       1.0  0.48565  0.97257  0.27774  1.0000
  C   C58       1.0  0.50539  0.99084  0.35282  1.0000
  C   C59       1.0  0.52321  0.02665  0.35360  1.0000
  C   C60       1.0  0.51026  0.04514  0.31183  1.0000
  C   C61       1.0  0.52766  0.08003  0.31178  1.0000
  C   C62       1.0  0.55897  0.09861  0.35422  1.0000
  H   H31       1.0  0.48750  0.03336  0.28160  1.0000
  H   H32       1.0  0.51719  0.09177  0.27862  1.0000
  H   H33       1.0  0.48465  0.98487  0.22146  1.0000
  N   N5        1.0  0.44850  0.92016  0.19923  1.0000
  O   O11       1.0  0.46602  0.92678  0.12908  1.0000
  C   C63       1.0  0.48630  0.77880  0.28143  1.0000
  C   C64       1.0  0.48047  0.80559  0.28635  1.0000
  H   H34       1.0  0.49361  0.77405  0.22048  1.0000
  H   H35       1.0  0.48270  0.81865  0.22834  1.0000
  C   C65       1.0  0.45722  0.67318  0.26496  1.0000
  C   C66       1.0  0.46402  0.70612  0.26869  1.0000
  H   H36       1.0  0.45506  0.71420  0.21736  1.0000
  C   C67       1.0  0.71606  0.48132  0.28109  1.0000
  C   C68       1.0  0.68335  0.47522  0.28596  1.0000
  H   H37       1.0  0.72813  0.48875  0.22018  1.0000
  H   H38       1.0  0.67248  0.47733  0.22790  1.0000
  C   C69       1.0  0.79347  0.45348  0.26386  1.0000
  C   C70       1.0  0.76710  0.45992  0.26785  1.0000
  H   H39       1.0  0.79470  0.44035  0.20975  1.0000
  H   H40       1.0  0.75016  0.45098  0.21628  1.0000
  C   C71       1.0  0.54195  0.23942  0.28104  1.0000
  C   C72       1.0  0.54804  0.21281  0.28600  1.0000
  H   H41       1.0  0.53454  0.24405  0.22008  1.0000
  H   H42       1.0  0.54597  0.19984  0.22791  1.0000
  C   C73       1.0  0.56976  0.34465  0.26385  1.0000
  C   C74       1.0  0.56333  0.31185  0.26791  1.0000
  H   H43       1.0  0.58299  0.35903  0.20988  1.0000
  H   H44       1.0  0.57231  0.30385  0.21641  1.0000
  C   C75       1.0  0.78379  0.30721  0.28092  1.0000
  C   C76       1.0  0.81039  0.33993  0.28583  1.0000
  H   H45       1.0  0.77916  0.29516  0.21999  1.0000
  H   H46       1.0  0.82343  0.35082  0.22783  1.0000
  C   C77       1.0  0.67854  0.22982  0.26385  1.0000
  C   C78       1.0  0.71137  0.25617  0.26780  1.0000
  H   H47       1.0  0.66419  0.22859  0.20973  1.0000
  H   H48       1.0  0.71937  0.27315  0.21630  1.0000
  C   C79       1.0  0.44987  0.62394  0.34503  1.0000
  C   C80       1.0  0.45060  0.57144  0.35309  1.0000
  C   C81       1.0  0.46741  0.60650  0.34692  1.0000
  H   H49       1.0  0.49268  0.61950  0.34254  1.0000
  C   C82       1.0  0.45217  0.83118  0.36033  1.0000
  C   C83       1.0  0.46917  0.86615  0.35995  1.0000
  C   C84       1.0  0.45179  0.88382  0.35301  1.0000
  H   H50       1.0  0.49445  0.87881  0.36428  1.0000
  C   C85       1.0  0.83528  0.44602  0.34429  1.0000
  C   C86       1.0  0.81858  0.41126  0.35111  1.0000
  C   C87       1.0  0.83580  0.39378  0.35990  1.0000
  C   C88       1.0  0.87074  0.41179  0.36058  1.0000
  C   C89       1.0  0.88884  0.44695  0.35416  1.0000
  C   C90       1.0  0.87027  0.46351  0.34702  1.0000
  H   H51       1.0  0.88300  0.39891  0.36845  1.0000
  H   H52       1.0  0.88225  0.48868  0.34018  1.0000
  H   H53       1.0  0.79319  0.39831  0.35038  1.0000
  C   C91       1.0  0.57720  0.39390  0.34426  1.0000
  C   C92       1.0  0.61197  0.41196  0.35112  1.0000
  C   C93       1.0  0.62944  0.44665  0.35997  1.0000
  C   C94       1.0  0.61145  0.46360  0.36060  1.0000
  C   C95       1.0  0.57629  0.44654  0.35417  1.0000
  C   C96       1.0  0.55972  0.41141  0.34700  1.0000
  H   H54       1.0  0.62433  0.48874  0.36847  1.0000
  H   H55       1.0  0.53455  0.39822  0.34016  1.0000
  H   H56       1.0  0.62491  0.39951  0.35039  1.0000
  C   C97       1.0  0.62932  0.18798  0.34427  1.0000
  C   C98       1.0  0.61124  0.20466  0.35119  1.0000
  C   C99       1.0  0.57655  0.18743  0.36001  1.0000
  C   C100      1.0  0.55962  0.15248  0.36067  1.0000
  C   C101      1.0  0.57669  0.13440  0.35413  1.0000
  C   C102      1.0  0.61183  0.15298  0.34695  1.0000
  H   H57       1.0  0.53448  0.14021  0.36849  1.0000
  H   H58       1.0  0.62502  0.14101  0.34005  1.0000
  H   H59       1.0  0.62367  0.23005  0.35049  1.0000
  C   C103      1.0  0.94310  0.49635  0.39657  1.0000
  C   C104      1.0  0.97802  0.51396  0.39607  1.0000
  H   H60       1.0  0.93125  0.50671  0.42972  1.0000
  H   H61       1.0  0.98979  0.53674  0.42619  1.0000
  C   C105      1.0  0.48410  0.51663  0.42704  1.0000
  C   C106      1.0  0.46658  0.53398  0.42606  1.0000
  H   H62       1.0  0.48255  0.50348  0.48415  1.0000
  H   H63       1.0  0.45280  0.53248  0.48185  1.0000
  C   C107      1.0  0.52687  0.45139  0.39652  1.0000
  C   C108      1.0  0.50927  0.46871  0.39600  1.0000
  H   H64       1.0  0.51651  0.42918  0.42964  1.0000
  H   H65       1.0  0.48649  0.45770  0.42613  1.0000
  C   C109      1.0  0.50664  0.97212  0.42691  1.0000
  C   C110      1.0  0.48929  0.93725  0.42594  1.0000
  H   H66       1.0  0.51981  0.98373  0.48401  1.0000
  H   H67       1.0  0.49079  0.92497  0.48173  1.0000
  C   C111      1.0  0.57188  0.08014  0.39638  1.0000
  C   C112      1.0  0.55456  0.04522  0.39588  1.0000
  H   H68       1.0  0.59409  0.09199  0.42947  1.0000
  H   H69       1.0  0.56559  0.03345  0.42594  1.0000
  C   C113      1.0  0.46812  0.81201  0.36672  1.0000
  C   C114      1.0  0.46304  0.79181  0.44398  1.0000
  C   C115      1.0  0.46920  0.76505  0.43792  1.0000
  C   C116      1.0  0.47969  0.75720  0.35601  1.0000
  C   C117      1.0  0.47897  0.72617  0.34614  1.0000
  C   C118      1.0  0.48862  0.71228  0.41730  1.0000
  C   C119      1.0  0.48190  0.67928  0.41366  1.0000
  C   C120      1.0  0.46540  0.65901  0.33819  1.0000
  H   H70       1.0  0.49909  0.72559  0.47513  1.0000
  H   H71       1.0  0.48674  0.66941  0.46967  1.0000
  H   H72       1.0  0.46308  0.74950  0.49248  1.0000
  N   N6        1.0  0.45016  0.79776  0.52442  1.0000
  O   O12       1.0  0.46959  0.80407  0.59012  1.0000
  C   C121      1.0  0.66458  0.46265  0.36620  1.0000
  C   C122      1.0  0.67977  0.45772  0.44349  1.0000
  C   C123      1.0  0.71279  0.46417  0.43748  1.0000
  C   C124      1.0  0.73118  0.47485  0.35565  1.0000
  C   C125      1.0  0.76165  0.47442  0.34572  1.0000
  C   C126      1.0  0.78514  0.48409  0.41702  1.0000
  C   C127      1.0  0.81165  0.47771  0.41315  1.0000
  C   C128      1.0  0.81572  0.46155  0.33731  1.0000
  H   H73       1.0  0.78206  0.49421  0.47523  1.0000
  H   H74       1.0  0.82617  0.48233  0.46947  1.0000
  H   H75       1.0  0.72230  0.45816  0.49206  1.0000
  N   N7        1.0  0.66097  0.44482  0.52396  1.0000
  O   O13       1.0  0.65781  0.41730  0.54495  1.0000
  O   O14       1.0  0.67396  0.46438  0.58947  1.0000
  C   C129      1.0  0.56053  0.20653  0.36631  1.0000
  C   C130      1.0  0.56540  0.22667  0.44355  1.0000
  C   C131      1.0  0.55895  0.25324  0.43751  1.0000
  C   C132      1.0  0.54834  0.26098  0.35562  1.0000
  C   C133      1.0  0.54874  0.29186  0.34569  1.0000
  C   C134      1.0  0.53909  0.30569  0.41697  1.0000
  C   C135      1.0  0.54544  0.33858  0.41307  1.0000
  C   C136      1.0  0.56167  0.35882  0.33731  1.0000
  H   H76       1.0  0.52887  0.29247  0.47506  1.0000
  H   H77       1.0  0.54079  0.34848  0.46935  1.0000
  H   H78       1.0  0.56491  0.26874  0.49214  1.0000
  N   N8        1.0  0.57825  0.22075  0.52408  1.0000
  O   O15       1.0  0.60577  0.24511  0.54518  1.0000
  O   O16       1.0  0.55866  0.21416  0.58951  1.0000
  C   C137      1.0  0.81667  0.35866  0.36621  1.0000
  C   C138      1.0  0.79656  0.34343  0.44349  1.0000
  C   C139      1.0  0.76997  0.31042  0.43742  1.0000
  C   C140      1.0  0.76222  0.29208  0.35550  1.0000
  C   C141      1.0  0.73135  0.26159  0.34560  1.0000
  C   C142      1.0  0.71752  0.23810  0.41692  1.0000
  C   C143      1.0  0.68462  0.21162  0.41312  1.0000
  C   C144      1.0  0.66440  0.20756  0.33727  1.0000
  H   H79       1.0  0.73076  0.24113  0.47500  1.0000
  H   H80       1.0  0.67476  0.19699  0.46929  1.0000
  H   H81       1.0  0.75447  0.30089  0.49204  1.0000
  N   N9        1.0  0.80250  0.36221  0.52401  1.0000
  O   O17       1.0  0.77815  0.36539  0.54512  1.0000
  O   O18       1.0  0.80907  0.34919  0.58944  1.0000
