data_image0
_chemical_formula_structural       C15H12C2HC3N2HC2HC3N2HC2NC2NC5NC3NC17H14C2NC2HNCHC2NC2HNCH
_chemical_formula_sum              "C64 H34 N12"
_cell_length_a       25.6184
_cell_length_b       25.6184
_cell_length_c       15
_cell_angle_alpha    90
_cell_angle_beta     90
_cell_angle_gamma    90

_space_group_name_H-M_alt    "P 1"
_space_group_IT_number       1

loop_
  _space_group_symop_operation_xyz
  'x, y, z'

loop_
  _atom_site_type_symbol
  _atom_site_label
  _atom_site_symmetry_multiplicity
  _atom_site_fract_x
  _atom_site_fract_y
  _atom_site_fract_z
  _atom_site_occupancy
  C   C1        1.0  0.88860  0.95107  0.33441  1.0000
  C   C2        1.0  0.04926  0.88731  0.33457  1.0000
  C   C3        1.0  0.99874  0.13652  0.33393  1.0000
  C   C4        1.0  0.94932  0.11125  0.33413  1.0000
  C   C5        1.0  0.86268  0.09797  0.33291  1.0000
  C   C6        1.0  0.90072  0.13598  0.33495  1.0000
  C   C7        1.0  0.72324  0.98035  0.25975  1.0000
  C   C8        1.0  0.77813  0.98153  0.25913  1.0000
  C   C9        1.0  0.99919  0.19239  0.33349  1.0000
  C   C10       1.0  0.98046  0.27544  0.25923  1.0000
  C   C11       1.0  0.98135  0.22055  0.25857  1.0000
  C   C12       1.0  0.22039  0.01714  0.25927  1.0000
  C   C13       1.0  0.27527  0.01855  0.25991  1.0000
  C   C14       1.0  0.01730  0.77809  0.25871  1.0000
  C   C15       1.0  0.01835  0.72321  0.25931  1.0000
  H   H1        1.0  0.03418  0.70512  0.20499  1.0000
  H   H2        1.0  0.03107  0.79752  0.20387  1.0000
  H   H3        1.0  0.89442  0.82515  0.33197  1.0000
  H   H4        1.0  0.20088  0.03077  0.20442  1.0000
  H   H5        1.0  0.29327  0.03447  0.20557  1.0000
  H   H6        1.0  0.10417  0.17340  0.33183  1.0000
  H   H7        1.0  0.82353  0.10551  0.33179  1.0000
  H   H8        1.0  0.89321  0.17513  0.33582  1.0000
  H   H9        1.0  0.96753  0.20119  0.20370  1.0000
  H   H10       1.0  0.96469  0.29359  0.20491  1.0000
  H   H11       1.0  0.79758  0.96796  0.20418  1.0000
  H   H12       1.0  0.70516  0.96457  0.20538  1.0000
  C   C16       1.0  0.99855  0.55331  0.25287  1.0000
  C   C17       1.0  0.99732  0.60821  0.25221  1.0000
  H   H13       1.0  0.99419  0.62637  0.19182  1.0000
  C   C18       1.0  0.99968  0.36102  0.33249  1.0000
  C   C19       1.0  0.00178  0.39039  0.25215  1.0000
  C   C20       1.0  0.00065  0.44528  0.25284  1.0000
  N   N1        1.0  0.00020  0.47375  0.17639  1.0000
  N   N2        1.0  0.99883  0.52486  0.17641  1.0000
  H   H14       1.0  0.00474  0.37223  0.19173  1.0000
  C   C21       1.0  0.44528  0.99895  0.25321  1.0000
  C   C22       1.0  0.39038  0.99786  0.25258  1.0000
  H   H15       1.0  0.37220  0.99494  0.19217  1.0000
  C   C23       1.0  0.63757  0.99930  0.33292  1.0000
  C   C24       1.0  0.60824  0.00169  0.25256  1.0000
  C   C25       1.0  0.55333  0.00070  0.25319  1.0000
  N   N3        1.0  0.52486  0.00057  0.17675  1.0000
  N   N4        1.0  0.47375  0.99937  0.17675  1.0000
  H   H16       1.0  0.62643  0.00477  0.19219  1.0000
  C   C26       1.0  0.90218  0.86425  0.33324  1.0000
  C   C27       1.0  0.86417  0.90229  0.33524  1.0000
  N   N5        1.0  0.94053  0.94057  0.33441  1.0000
  C   C28       1.0  0.95098  0.88863  0.33420  1.0000
  C   C29       1.0  0.99984  0.86204  0.33426  1.0000
  N   N6        1.0  0.05940  0.93912  0.33455  1.0000
  C   C30       1.0  0.11123  0.94920  0.33442  1.0000
  C   C31       1.0  0.13590  0.90058  0.33348  1.0000
  C   C32       1.0  0.09786  0.86258  0.33549  1.0000
  C   C33       1.0  0.13654  0.99860  0.33451  1.0000
  C   C34       1.0  0.10997  0.04748  0.33452  1.0000
  N   N7        1.0  0.05804  0.05797  0.33433  1.0000
  C   C35       1.0  0.04759  0.10991  0.33400  1.0000
  C   C36       1.0  0.09640  0.13430  0.33305  1.0000
  C   C37       1.0  0.13440  0.09626  0.33534  1.0000
  N   N8        1.0  0.93918  0.05944  0.33418  1.0000
  C   C38       1.0  0.88735  0.04935  0.33404  1.0000
  C   C39       1.0  0.86204  0.99995  0.33424  1.0000
  C   C40       1.0  0.80617  0.99956  0.33405  1.0000
  C   C41       1.0  0.77771  0.01743  0.40863  1.0000
  C   C42       1.0  0.72282  0.01837  0.40726  1.0000
  C   C43       1.0  0.69390  0.99932  0.33329  1.0000
  C   C44       1.0  0.01727  0.22075  0.40803  1.0000
  C   C45       1.0  0.01857  0.27564  0.40665  1.0000
  C   C46       1.0  0.99961  0.30468  0.33276  1.0000
  C   C47       1.0  0.19241  0.99902  0.33421  1.0000
  C   C48       1.0  0.30470  0.99962  0.33337  1.0000
  C   C49       1.0  0.27585  0.98039  0.40728  1.0000
  C   C50       1.0  0.22096  0.98116  0.40870  1.0000
  C   C51       1.0  0.99941  0.80617  0.33369  1.0000
  C   C52       1.0  0.98142  0.77774  0.40822  1.0000
  C   C53       1.0  0.98033  0.72285  0.40681  1.0000
  C   C54       1.0  0.99936  0.69390  0.33287  1.0000
  H   H17       1.0  0.96465  0.70446  0.46097  1.0000
  H   H18       1.0  0.96782  0.79691  0.46345  1.0000
  H   H19       1.0  0.82505  0.89456  0.33636  1.0000
  H   H20       1.0  0.96703  0.96705  0.33445  1.0000
  H   H21       1.0  0.03153  0.03150  0.33434  1.0000
  H   H22       1.0  0.10536  0.82343  0.33643  1.0000
  H   H23       1.0  0.17505  0.89303  0.33232  1.0000
  H   H24       1.0  0.20188  0.96735  0.46385  1.0000
  H   H25       1.0  0.29431  0.96471  0.46137  1.0000
  H   H26       1.0  0.17351  0.10399  0.33663  1.0000
  H   H27       1.0  0.03084  0.20152  0.46322  1.0000
  H   H28       1.0  0.03433  0.29395  0.46082  1.0000
  H   H29       1.0  0.70441  0.03408  0.46137  1.0000
  H   H30       1.0  0.79684  0.03121  0.46375  1.0000
  C   C55       1.0  0.99950  0.63756  0.33256  1.0000
  C   C56       1.0  0.00224  0.60805  0.41267  1.0000
  N   N9        1.0  0.00182  0.55510  0.41183  1.0000
  C   C57       1.0  0.99980  0.52679  0.33555  1.0000
  C   C58       1.0  0.99961  0.47180  0.33554  1.0000
  H   H31       1.0  0.00560  0.62566  0.47339  1.0000
  N   N10       1.0  0.99770  0.44348  0.41181  1.0000
  C   C59       1.0  0.99720  0.39053  0.41263  1.0000
  H   H32       1.0  0.99389  0.37293  0.47336  1.0000
  C   C60       1.0  0.36105  0.99985  0.33297  1.0000
  C   C61       1.0  0.39059  0.00231  0.41307  1.0000
  N   N11       1.0  0.44354  0.00177  0.41219  1.0000
  C   C62       1.0  0.47182  0.99988  0.33589  1.0000
  C   C63       1.0  0.52681  0.99949  0.33588  1.0000
  H   H33       1.0  0.37302  0.00557  0.47383  1.0000
  N   N12       1.0  0.55509  0.99726  0.41216  1.0000
  C   C64       1.0  0.60804  0.99660  0.41300  1.0000
  H   H34       1.0  0.62562  0.99313  0.47373  1.0000
