data_image0
_chemical_formula_structural       C3HC4H2CH3C3HC4H2CH3C3HC4H2CH3C5H3CH3C5H3CH3C5H3CH3C5H3CH3C5H3CH3C5H3CH3NC18H12NC18H12NC18H12NC18H12NC18H12NC18H12C5H3CH3C5H3CH3C5H3CH3C3HC4H2CH3C3HC4H2CH3C3HC4H2CH3C3HC4H2CH3C3HC4H2CH3C3HC4H2CH3
_chemical_formula_sum              "C234 H180 N6"
_cell_length_a       68.5565
_cell_length_b       68.5564
_cell_length_c       14.8816
_cell_angle_alpha    90
_cell_angle_beta     90
_cell_angle_gamma    120

_space_group_name_H-M_alt    "P 1"
_space_group_IT_number       1

loop_
  _space_group_symop_operation_xyz
  'x, y, z'

loop_
  _atom_site_type_symbol
  _atom_site_label
  _atom_site_symmetry_multiplicity
  _atom_site_fract_x
  _atom_site_fract_y
  _atom_site_fract_z
  _atom_site_occupancy
  C   C1        1.0  0.01809  0.50968  0.34207  1.0000
  C   C2        1.0  0.03030  0.53115  0.30156  1.0000
  C   C3        1.0  0.05402  0.54315  0.30164  1.0000
  H   H1        1.0  0.06210  0.55873  0.27226  1.0000
  C   C4        1.0  0.99396  0.49801  0.33810  1.0000
  C   C5        1.0  0.94545  0.47452  0.33913  1.0000
  C   C6        1.0  0.95773  0.47422  0.26300  1.0000
  C   C7        1.0  0.98164  0.48566  0.26104  1.0000
  H   H2        1.0  0.94902  0.46496  0.20812  1.0000
  H   H3        1.0  0.02196  0.53826  0.27114  1.0000
  C   C8        1.0  0.99336  0.48427  0.17915  1.0000
  H   H4        1.0  0.00389  0.47702  0.19626  1.0000
  H   H5        1.0  0.00400  0.50108  0.15139  1.0000
  H   H6        1.0  0.98168  0.47385  0.12655  1.0000
  C   C9        1.0  0.50026  0.51040  0.34214  1.0000
  C   C10       1.0  0.47879  0.50114  0.30167  1.0000
  C   C11       1.0  0.46679  0.51286  0.30178  1.0000
  H   H7        1.0  0.45121  0.50537  0.27239  1.0000
  C   C12       1.0  0.51193  0.49794  0.33814  1.0000
  C   C13       1.0  0.53541  0.47292  0.33915  1.0000
  C   C14       1.0  0.53573  0.48551  0.26303  1.0000
  C   C15       1.0  0.52428  0.49798  0.26108  1.0000
  H   H8        1.0  0.54497  0.48605  0.20814  1.0000
  H   H9        1.0  0.47167  0.48569  0.27124  1.0000
  C   C16       1.0  0.52567  0.51109  0.17920  1.0000
  H   H10       1.0  0.53291  0.52887  0.19632  1.0000
  H   H11       1.0  0.50885  0.50491  0.15144  1.0000
  H   H12       1.0  0.53609  0.50983  0.12660  1.0000
  C   C17       1.0  0.49954  0.99184  0.34220  1.0000
  C   C18       1.0  0.50879  0.97962  0.30166  1.0000
  C   C19       1.0  0.49707  0.95590  0.30176  1.0000
  H   H13       1.0  0.50456  0.94782  0.27230  1.0000
  C   C20       1.0  0.51200  0.01597  0.33820  1.0000
  C   C21       1.0  0.53702  0.06447  0.33919  1.0000
  C   C22       1.0  0.52440  0.05219  0.26312  1.0000
  C   C23       1.0  0.51194  0.02828  0.26117  1.0000
  H   H14       1.0  0.52385  0.06090  0.20824  1.0000
  H   H15       1.0  0.52424  0.98796  0.27118  1.0000
  C   C24       1.0  0.49881  0.01655  0.17932  1.0000
  H   H16       1.0  0.48104  0.00602  0.19651  1.0000
  H   H17       1.0  0.50498  0.00592  0.15151  1.0000
  H   H18       1.0  0.50006  0.02823  0.12675  1.0000
  C   C25       1.0  0.33638  0.56039  0.32353  1.0000
  C   C26       1.0  0.33481  0.58001  0.31067  1.0000
  C   C27       1.0  0.31402  0.57971  0.31653  1.0000
  C   C28       1.0  0.26202  0.55918  0.26349  1.0000
  C   C29       1.0  0.24181  0.55972  0.26753  1.0000
  H   H19       1.0  0.26955  0.56103  0.20219  1.0000
  H   H20       1.0  0.23577  0.56247  0.20892  1.0000
  H   H21       1.0  0.34926  0.59500  0.29908  1.0000
  C   C30       1.0  0.31379  0.60121  0.30627  1.0000
  H   H22       1.0  0.33064  0.61575  0.29760  1.0000
  H   H23       1.0  0.30639  0.60421  0.36587  1.0000
  H   H24       1.0  0.30387  0.60033  0.24754  1.0000
  C   C31       1.0  0.44959  0.77800  0.32354  1.0000
  C   C32       1.0  0.42997  0.75680  0.31090  1.0000
  C   C33       1.0  0.43029  0.73633  0.31683  1.0000
  C   C34       1.0  0.45081  0.70486  0.26352  1.0000
  C   C35       1.0  0.45026  0.68411  0.26754  1.0000
  H   H25       1.0  0.44888  0.71051  0.20227  1.0000
  H   H26       1.0  0.44743  0.67528  0.20898  1.0000
  H   H27       1.0  0.41497  0.75626  0.29953  1.0000
  C   C36       1.0  0.40878  0.71459  0.30686  1.0000
  H   H28       1.0  0.39422  0.71687  0.29834  1.0000
  H   H29       1.0  0.40583  0.70421  0.36654  1.0000
  H   H30       1.0  0.40962  0.70552  0.24816  1.0000
  C   C37       1.0  0.23194  0.67358  0.32338  1.0000
  C   C38       1.0  0.25314  0.67517  0.31053  1.0000
  C   C39       1.0  0.27362  0.69596  0.31642  1.0000
  C   C40       1.0  0.30507  0.74796  0.26343  1.0000
  C   C41       1.0  0.32583  0.76817  0.26750  1.0000
  H   H31       1.0  0.29940  0.74042  0.20215  1.0000
  H   H32       1.0  0.33464  0.77418  0.20892  1.0000
  H   H33       1.0  0.25369  0.66072  0.29896  1.0000
  C   C42       1.0  0.29535  0.69620  0.30619  1.0000
  H   H34       1.0  0.29307  0.67936  0.29748  1.0000
  H   H35       1.0  0.30575  0.70360  0.36582  1.0000
  H   H36       1.0  0.30440  0.70613  0.24749  1.0000
  C   C43       1.0  0.67519  0.44799  0.33999  1.0000
  C   C44       1.0  0.67914  0.43338  0.28564  1.0000
  C   C45       1.0  0.69995  0.43364  0.28692  1.0000
  C   C46       1.0  0.75487  0.46117  0.28236  1.0000
  C   C47       1.0  0.77526  0.46092  0.28183  1.0000
  H   H37       1.0  0.75171  0.46917  0.23105  1.0000
  H   H38       1.0  0.78638  0.46896  0.23056  1.0000
  H   H39       1.0  0.66629  0.42174  0.24648  1.0000
  C   C48       1.0  0.70269  0.41716  0.23091  1.0000
  H   H40       1.0  0.68749  0.40592  0.19312  1.0000
  H   H41       1.0  0.70674  0.40675  0.27373  1.0000
  H   H42       1.0  0.71630  0.42608  0.18266  1.0000
  C   C49       1.0  0.56197  0.22919  0.34004  1.0000
  C   C50       1.0  0.57660  0.24776  0.28568  1.0000
  C   C51       1.0  0.57634  0.26830  0.28691  1.0000
  C   C52       1.0  0.54881  0.29570  0.28228  1.0000
  C   C53       1.0  0.54906  0.31634  0.28177  1.0000
  H   H43       1.0  0.54082  0.28455  0.23095  1.0000
  H   H44       1.0  0.54102  0.31941  0.23049  1.0000
  H   H45       1.0  0.58822  0.24653  0.24651  1.0000
  C   C54       1.0  0.59282  0.28751  0.23088  1.0000
  H   H46       1.0  0.60406  0.28356  0.19313  1.0000
  H   H47       1.0  0.60323  0.30198  0.27368  1.0000
  H   H48       1.0  0.58389  0.29219  0.18261  1.0000
  C   C55       1.0  0.78074  0.33474  0.33993  1.0000
  C   C56       1.0  0.76217  0.33079  0.28556  1.0000
  C   C57       1.0  0.74163  0.30999  0.28683  1.0000
  C   C58       1.0  0.71424  0.25506  0.28227  1.0000
  C   C59       1.0  0.69360  0.23468  0.28174  1.0000
  H   H49       1.0  0.72538  0.25823  0.23087  1.0000
  H   H50       1.0  0.69051  0.22357  0.23041  1.0000
  H   H51       1.0  0.76339  0.34364  0.24641  1.0000
  C   C60       1.0  0.72241  0.30725  0.23082  1.0000
  H   H52       1.0  0.72636  0.32244  0.19305  1.0000
  H   H53       1.0  0.70794  0.30318  0.27364  1.0000
  H   H54       1.0  0.71773  0.29363  0.18256  1.0000
  N   N1        1.0  0.16322  0.58275  0.34112  1.0000
  C   C61       1.0  0.17602  0.60647  0.32746  1.0000
  C   C62       1.0  0.13926  0.57079  0.34163  1.0000
  C   C63       1.0  0.17613  0.57187  0.35294  1.0000
  C   C64       1.0  0.19088  0.57758  0.42693  1.0000
  C   C65       1.0  0.20822  0.57225  0.42719  1.0000
  C   C66       1.0  0.21118  0.56049  0.35480  1.0000
  C   C67       1.0  0.19510  0.55333  0.28423  1.0000
  C   C68       1.0  0.17802  0.55909  0.28276  1.0000
  C   C69       1.0  0.17965  0.62134  0.39939  1.0000
  C   C70       1.0  0.19719  0.64396  0.39577  1.0000
  C   C71       1.0  0.21178  0.65216  0.32060  1.0000
  C   C72       1.0  0.20723  0.63753  0.24660  1.0000
  C   C73       1.0  0.18950  0.61506  0.24971  1.0000
  C   C74       1.0  0.12716  0.56001  0.42027  1.0000
  C   C75       1.0  0.10339  0.54804  0.42059  1.0000
  C   C76       1.0  0.09082  0.54656  0.34258  1.0000
  C   C77       1.0  0.10319  0.55756  0.26409  1.0000
  C   C78       1.0  0.12696  0.56937  0.26348  1.0000
  H   H55       1.0  0.20049  0.65377  0.45184  1.0000
  H   H56       1.0  0.17082  0.61525  0.45792  1.0000
  H   H57       1.0  0.18777  0.60444  0.19817  1.0000
  H   H58       1.0  0.21758  0.64277  0.19157  1.0000
  H   H59       1.0  0.19049  0.58760  0.47695  1.0000
  H   H60       1.0  0.21974  0.57871  0.47816  1.0000
  H   H61       1.0  0.13566  0.56086  0.47795  1.0000
  H   H62       1.0  0.09530  0.54071  0.47939  1.0000
  H   H63       1.0  0.09496  0.55669  0.20557  1.0000
  H   H64       1.0  0.13531  0.57693  0.20542  1.0000
  H   H65       1.0  0.16797  0.55530  0.22723  1.0000
  H   H66       1.0  0.19625  0.54467  0.23051  1.0000
  N   N2        1.0  0.42720  0.58248  0.34132  1.0000
  C   C79       1.0  0.40349  0.57156  0.32766  1.0000
  C   C80       1.0  0.43916  0.57047  0.34179  1.0000
  C   C81       1.0  0.43810  0.60628  0.35297  1.0000
  C   C82       1.0  0.43239  0.61533  0.42689  1.0000
  C   C83       1.0  0.43778  0.63801  0.42728  1.0000
  C   C84       1.0  0.44951  0.65272  0.35482  1.0000
  C   C85       1.0  0.45662  0.64377  0.28416  1.0000
  C   C86       1.0  0.45087  0.62094  0.28276  1.0000
  C   C87       1.0  0.38862  0.56034  0.39964  1.0000
  C   C88       1.0  0.36602  0.55532  0.39604  1.0000
  C   C89       1.0  0.35779  0.56163  0.32075  1.0000
  C   C90       1.0  0.37243  0.57170  0.24675  1.0000
  C   C91       1.0  0.39489  0.57644  0.24987  1.0000
  C   C92       1.0  0.44996  0.56916  0.42041  1.0000
  C   C93       1.0  0.46192  0.55736  0.42072  1.0000
  C   C94       1.0  0.46339  0.54626  0.34271  1.0000
  C   C95       1.0  0.45237  0.54762  0.26425  1.0000
  C   C96       1.0  0.44057  0.55958  0.26365  1.0000
  H   H67       1.0  0.35619  0.54876  0.45203  1.0000
  H   H68       1.0  0.39471  0.55761  0.45817  1.0000
  H   H69       1.0  0.40551  0.58531  0.19831  1.0000
  H   H70       1.0  0.36718  0.57679  0.19167  1.0000
  H   H71       1.0  0.42245  0.60494  0.47716  1.0000
  H   H72       1.0  0.43136  0.64309  0.47835  1.0000
  H   H73       1.0  0.44911  0.57682  0.47809  1.0000
  H   H74       1.0  0.46925  0.55660  0.47950  1.0000
  H   H75       1.0  0.45324  0.54025  0.20573  1.0000
  H   H76       1.0  0.43300  0.56037  0.20561  1.0000
  H   H77       1.0  0.45462  0.61467  0.22713  1.0000
  H   H78       1.0  0.46526  0.65358  0.23037  1.0000
  N   N3        1.0  0.42748  0.84670  0.34130  1.0000
  C   C97       1.0  0.43841  0.83391  0.32763  1.0000
  C   C98       1.0  0.43947  0.87066  0.34179  1.0000
  C   C99       1.0  0.40368  0.83378  0.35297  1.0000
  C   C100      1.0  0.39464  0.81901  0.42687  1.0000
  C   C101      1.0  0.37197  0.80169  0.42715  1.0000
  C   C102      1.0  0.35726  0.79876  0.35478  1.0000
  C   C103      1.0  0.36619  0.81485  0.28425  1.0000
  C   C104      1.0  0.38902  0.83193  0.28281  1.0000
  C   C105      1.0  0.44965  0.83030  0.39960  1.0000
  C   C106      1.0  0.45467  0.81272  0.39601  1.0000
  C   C107      1.0  0.44834  0.79816  0.32076  1.0000
  C   C108      1.0  0.43825  0.80271  0.24675  1.0000
  C   C109      1.0  0.43352  0.82044  0.24984  1.0000
  C   C110      1.0  0.44079  0.88276  0.42042  1.0000
  C   C111      1.0  0.45258  0.90653  0.42073  1.0000
  C   C112      1.0  0.46368  0.91910  0.34273  1.0000
  C   C113      1.0  0.46232  0.90673  0.26425  1.0000
  C   C114      1.0  0.45036  0.88297  0.26364  1.0000
  H   H79       1.0  0.46126  0.80946  0.45197  1.0000
  H   H80       1.0  0.45239  0.83913  0.45810  1.0000
  H   H81       1.0  0.42462  0.82217  0.19831  1.0000
  H   H82       1.0  0.43316  0.79236  0.19172  1.0000
  H   H83       1.0  0.40504  0.81946  0.47711  1.0000
  H   H84       1.0  0.36688  0.79022  0.47829  1.0000
  H   H85       1.0  0.43314  0.87426  0.47810  1.0000
  H   H86       1.0  0.45335  0.91462  0.47953  1.0000
  H   H87       1.0  0.46968  0.91496  0.20573  1.0000
  H   H88       1.0  0.44957  0.87461  0.20559  1.0000
  H   H89       1.0  0.39528  0.84197  0.22725  1.0000
  H   H90       1.0  0.35637  0.81370  0.23051  1.0000
  N   N4        1.0  0.84875  0.42628  0.34040  1.0000
  C   C115      1.0  0.83612  0.40235  0.34270  1.0000
  C   C116      1.0  0.87269  0.43840  0.34058  1.0000
  C   C117      1.0  0.83577  0.43724  0.33922  1.0000
  C   C118      1.0  0.83008  0.44376  0.42051  1.0000
  C   C119      1.0  0.81261  0.44894  0.42330  1.0000
  C   C120      1.0  0.80017  0.44765  0.34516  1.0000
  C   C121      1.0  0.80682  0.44219  0.26309  1.0000
  C   C122      1.0  0.82428  0.43702  0.26020  1.0000
  C   C123      1.0  0.82901  0.39014  0.26145  1.0000
  C   C124      1.0  0.81143  0.36755  0.26078  1.0000
  C   C125      1.0  0.80063  0.35643  0.34144  1.0000
  C   C126      1.0  0.80866  0.36839  0.42321  1.0000
  C   C127      1.0  0.82599  0.39109  0.42368  1.0000
  C   C128      1.0  0.88497  0.43835  0.41662  1.0000
  C   C129      1.0  0.90874  0.45026  0.41626  1.0000
  C   C130      1.0  0.92117  0.46260  0.33986  1.0000
  C   C131      1.0  0.90860  0.46254  0.26396  1.0000
  C   C132      1.0  0.88483  0.45070  0.26430  1.0000
  H   H91       1.0  0.80588  0.35958  0.20022  1.0000
  H   H92       1.0  0.83540  0.39818  0.20165  1.0000
  H   H93       1.0  0.83008  0.39987  0.48280  1.0000
  H   H94       1.0  0.80076  0.36125  0.48255  1.0000
  H   H95       1.0  0.83758  0.44324  0.47918  1.0000
  H   H96       1.0  0.80843  0.45276  0.48418  1.0000
  H   H97       1.0  0.87660  0.42954  0.47276  1.0000
  H   H98       1.0  0.91692  0.44937  0.47226  1.0000
  H   H99       1.0  0.91668  0.47146  0.20757  1.0000
  H   H100      1.0  0.87636  0.45103  0.20828  1.0000
  H   H101      1.0  0.82743  0.43149  0.20115  1.0000
  H   H102      1.0  0.79785  0.44015  0.20548  1.0000
  N   N5        1.0  0.58365  0.42445  0.34033  1.0000
  C   C133      1.0  0.60759  0.43577  0.34270  1.0000
  C   C134      1.0  0.57154  0.43628  0.34055  1.0000
  C   C135      1.0  0.57270  0.40052  0.33921  1.0000
  C   C136      1.0  0.56618  0.38831  0.42048  1.0000
  C   C137      1.0  0.56101  0.36566  0.42329  1.0000
  C   C138      1.0  0.56232  0.35452  0.34516  1.0000
  C   C139      1.0  0.56780  0.36664  0.26311  1.0000
  C   C140      1.0  0.57294  0.38925  0.26021  1.0000
  C   C141      1.0  0.61981  0.44090  0.26147  1.0000
  C   C142      1.0  0.64240  0.44589  0.26084  1.0000
  C   C143      1.0  0.65351  0.44620  0.34152  1.0000
  C   C144      1.0  0.64154  0.44227  0.42326  1.0000
  C   C145      1.0  0.61884  0.43689  0.42370  1.0000
  C   C146      1.0  0.57158  0.44860  0.41660  1.0000
  C   C147      1.0  0.55969  0.46048  0.41624  1.0000
  C   C148      1.0  0.54734  0.46056  0.33985  1.0000
  C   C149      1.0  0.54741  0.44806  0.26394  1.0000
  C   C150      1.0  0.55924  0.43613  0.26427  1.0000
  H   H103      1.0  0.65037  0.44830  0.20028  1.0000
  H   H104      1.0  0.61178  0.43921  0.20164  1.0000
  H   H105      1.0  0.61005  0.43219  0.48280  1.0000
  H   H106      1.0  0.64867  0.44150  0.48262  1.0000
  H   H107      1.0  0.56669  0.39632  0.47915  1.0000
  H   H108      1.0  0.55718  0.35765  0.48415  1.0000
  H   H109      1.0  0.58039  0.44904  0.47275  1.0000
  H   H110      1.0  0.56056  0.46952  0.47228  1.0000
  H   H111      1.0  0.53847  0.44721  0.20757  1.0000
  H   H112      1.0  0.55890  0.42733  0.20825  1.0000
  H   H113      1.0  0.57847  0.39794  0.20116  1.0000
  H   H114      1.0  0.56983  0.35970  0.20548  1.0000
  N   N6        1.0  0.58549  0.16118  0.34032  1.0000
  C   C151      1.0  0.57417  0.17380  0.34271  1.0000
  C   C152      1.0  0.57365  0.13723  0.34056  1.0000
  C   C153      1.0  0.60942  0.17416  0.33914  1.0000
  C   C154      1.0  0.62163  0.17982  0.42041  1.0000
  C   C155      1.0  0.64427  0.19730  0.42322  1.0000
  C   C156      1.0  0.65541  0.20977  0.34511  1.0000
  C   C157      1.0  0.64328  0.20315  0.26307  1.0000
  C   C158      1.0  0.62069  0.18566  0.26011  1.0000
  C   C159      1.0  0.56903  0.18088  0.26149  1.0000
  C   C160      1.0  0.56404  0.19848  0.26087  1.0000
  C   C161      1.0  0.56375  0.20929  0.34155  1.0000
  C   C162      1.0  0.56767  0.20124  0.42330  1.0000
  C   C163      1.0  0.57305  0.18393  0.42371  1.0000
  C   C164      1.0  0.56135  0.12496  0.41664  1.0000
  C   C165      1.0  0.54948  0.10119  0.41629  1.0000
  C   C166      1.0  0.54938  0.08876  0.33989  1.0000
  C   C167      1.0  0.56187  0.10132  0.26395  1.0000
  C   C168      1.0  0.57379  0.12508  0.26426  1.0000
  H   H115      1.0  0.56164  0.20405  0.20032  1.0000
  H   H116      1.0  0.57072  0.17454  0.20165  1.0000
  H   H117      1.0  0.57776  0.17985  0.48279  1.0000
  H   H118      1.0  0.56846  0.20917  0.48262  1.0000
  H   H119      1.0  0.61360  0.17232  0.47907  1.0000
  H   H120      1.0  0.65229  0.20147  0.48408  1.0000
  H   H121      1.0  0.56092  0.13333  0.47280  1.0000
  H   H122      1.0  0.54045  0.09302  0.47236  1.0000
  H   H123      1.0  0.56270  0.09323  0.20755  1.0000
  H   H124      1.0  0.58258  0.13355  0.20821  1.0000
  H   H125      1.0  0.61198  0.18252  0.20111  1.0000
  H   H126      1.0  0.65023  0.21210  0.20542  1.0000
  C   C169      1.0  0.06657  0.53432  0.34288  1.0000
  C   C170      1.0  0.05421  0.51287  0.38395  1.0000
  C   C171      1.0  0.03029  0.50039  0.38411  1.0000
  C   C172      1.0  0.98185  0.49852  0.41409  1.0000
  C   C173      1.0  0.95813  0.48698  0.41462  1.0000
  H   H127      1.0  0.99027  0.50735  0.47025  1.0000
  H   H128      1.0  0.95016  0.48811  0.47084  1.0000
  H   H129      1.0  0.06287  0.50590  0.41275  1.0000
  C   C174      1.0  0.01845  0.47773  0.42687  1.0000
  H   H130      1.0  0.03005  0.47273  0.45444  1.0000
  H   H131      1.0  0.00785  0.46510  0.37737  1.0000
  H   H132      1.0  0.00787  0.47766  0.48179  1.0000
  C   C175      1.0  0.47562  0.53424  0.34300  1.0000
  C   C176      1.0  0.49708  0.54333  0.38408  1.0000
  C   C177      1.0  0.50955  0.53189  0.38419  1.0000
  C   C178      1.0  0.51142  0.48531  0.41412  1.0000
  C   C179      1.0  0.52296  0.47314  0.41464  1.0000
  H   H133      1.0  0.50259  0.48491  0.47029  1.0000
  H   H134      1.0  0.52183  0.46403  0.47085  1.0000
  H   H135      1.0  0.50405  0.55897  0.41281  1.0000
  C   C180      1.0  0.53222  0.54271  0.42689  1.0000
  H   H136      1.0  0.53722  0.55932  0.45449  1.0000
  H   H137      1.0  0.54485  0.54475  0.37737  1.0000
  H   H138      1.0  0.53230  0.53221  0.48180  1.0000
  C   C181      1.0  0.47570  0.94336  0.34302  1.0000
  C   C182      1.0  0.46661  0.95572  0.38416  1.0000
  C   C183      1.0  0.47805  0.97964  0.38430  1.0000
  C   C184      1.0  0.52464  0.02808  0.41414  1.0000
  C   C185      1.0  0.53682  0.05180  0.41465  1.0000
  H   H139      1.0  0.52506  0.01966  0.47029  1.0000
  H   H140      1.0  0.54593  0.05977  0.47084  1.0000
  H   H141      1.0  0.45099  0.94705  0.41296  1.0000
  C   C186      1.0  0.46724  0.99148  0.42711  1.0000
  H   H142      1.0  0.45064  0.97988  0.45474  1.0000
  H   H143      1.0  0.46520  0.00208  0.37763  1.0000
  H   H144      1.0  0.47776  0.00206  0.48200  1.0000
  C   C187      1.0  0.29399  0.55891  0.33467  1.0000
  C   C188      1.0  0.29554  0.53927  0.34710  1.0000
  C   C189      1.0  0.31642  0.54004  0.34282  1.0000
  H   H145      1.0  0.31690  0.52551  0.35265  1.0000
  C   C190      1.0  0.27244  0.55732  0.34237  1.0000
  C   C191      1.0  0.23077  0.55786  0.35023  1.0000
  C   C192      1.0  0.24093  0.55507  0.42857  1.0000
  C   C193      1.0  0.26162  0.55508  0.42652  1.0000
  H   H146      1.0  0.23322  0.55330  0.48927  1.0000
  H   H147      1.0  0.28138  0.52415  0.36022  1.0000
  C   C194      1.0  0.27202  0.55377  0.51253  1.0000
  H   H148      1.0  0.28880  0.56850  0.51938  1.0000
  H   H149      1.0  0.27342  0.53862  0.51343  1.0000
  H   H150      1.0  0.26222  0.55321  0.57133  1.0000
  C   C195      1.0  0.45109  0.73711  0.33474  1.0000
  C   C196      1.0  0.47074  0.75830  0.34692  1.0000
  C   C197      1.0  0.46996  0.77841  0.34268  1.0000
  H   H151      1.0  0.48450  0.79343  0.35228  1.0000
  C   C198      1.0  0.45271  0.71716  0.34240  1.0000
  C   C199      1.0  0.45216  0.67495  0.35022  1.0000
  C   C200      1.0  0.45500  0.68791  0.42854  1.0000
  C   C201      1.0  0.45500  0.70860  0.42651  1.0000
  H   H152      1.0  0.45680  0.68198  0.48922  1.0000
  H   H153      1.0  0.48588  0.75928  0.35986  1.0000
  C   C202      1.0  0.45636  0.72033  0.51253  1.0000
  H   H154      1.0  0.44164  0.72238  0.51953  1.0000
  H   H155      1.0  0.47152  0.73689  0.51326  1.0000
  H   H156      1.0  0.45696  0.71111  0.57130  1.0000
  C   C203      1.0  0.27284  0.71598  0.33460  1.0000
  C   C204      1.0  0.25164  0.71442  0.34701  1.0000
  C   C205      1.0  0.23154  0.69353  0.34272  1.0000
  H   H157      1.0  0.21653  0.69304  0.35252  1.0000
  C   C206      1.0  0.29279  0.73753  0.34231  1.0000
  C   C207      1.0  0.33501  0.77919  0.35021  1.0000
  C   C208      1.0  0.32207  0.76903  0.42854  1.0000
  C   C209      1.0  0.30138  0.74834  0.42647  1.0000
  H   H158      1.0  0.32801  0.77673  0.48926  1.0000
  H   H159      1.0  0.25067  0.72857  0.36014  1.0000
  C   C210      1.0  0.28967  0.73794  0.51248  1.0000
  H   H160      1.0  0.28761  0.72115  0.51928  1.0000
  H   H161      1.0  0.27311  0.73653  0.51339  1.0000
  H   H162      1.0  0.29891  0.74773  0.57129  1.0000
  C   C211      1.0  0.71755  0.44931  0.34377  1.0000
  C   C212      1.0  0.71373  0.46408  0.39754  1.0000
  C   C213      1.0  0.69281  0.46326  0.39639  1.0000
  H   H163      1.0  0.69058  0.47405  0.43696  1.0000
  C   C214      1.0  0.73870  0.45007  0.35061  1.0000
  C   C215      1.0  0.78031  0.44964  0.34957  1.0000
  C   C216      1.0  0.76419  0.43896  0.41879  1.0000
  C   C217      1.0  0.74351  0.43896  0.42064  1.0000
  H   H164      1.0  0.76714  0.43014  0.46716  1.0000
  H   H165      1.0  0.72610  0.47536  0.43940  1.0000
  C   C218      1.0  0.72705  0.42682  0.49400  1.0000
  H   H166      1.0  0.71121  0.41369  0.46558  1.0000
  H   H167      1.0  0.72387  0.43860  0.53163  1.0000
  H   H168      1.0  0.73302  0.41882  0.54152  1.0000
  C   C219      1.0  0.56066  0.27023  0.34373  1.0000
  C   C220      1.0  0.54589  0.25165  0.39751  1.0000
  C   C221      1.0  0.54669  0.23154  0.39638  1.0000
  H   H169      1.0  0.53590  0.21852  0.43693  1.0000
  C   C222      1.0  0.55991  0.29062  0.35054  1.0000
  C   C223      1.0  0.56031  0.33265  0.34957  1.0000
  C   C224      1.0  0.57098  0.32721  0.41883  1.0000
  C   C225      1.0  0.57100  0.30654  0.42064  1.0000
  H   H170      1.0  0.57981  0.33899  0.46718  1.0000
  H   H171      1.0  0.53460  0.25274  0.43932  1.0000
  C   C226      1.0  0.58314  0.30222  0.49398  1.0000
  H   H172      1.0  0.59628  0.29952  0.46556  1.0000
  H   H173      1.0  0.57136  0.28724  0.53157  1.0000
  H   H174      1.0  0.59112  0.31618  0.54154  1.0000
  C   C227      1.0  0.73971  0.29239  0.34367  1.0000
  C   C228      1.0  0.75829  0.29620  0.39746  1.0000
  C   C229      1.0  0.77839  0.31712  0.39630  1.0000
  H   H175      1.0  0.79141  0.31935  0.43686  1.0000
  C   C230      1.0  0.71932  0.27124  0.35051  1.0000
  C   C231      1.0  0.67728  0.22961  0.34955  1.0000
  C   C232      1.0  0.68273  0.24572  0.41881  1.0000
  C   C233      1.0  0.70340  0.26642  0.42061  1.0000
  H   H176      1.0  0.67095  0.24278  0.46716  1.0000
  H   H177      1.0  0.75721  0.28383  0.43927  1.0000
  C   C234      1.0  0.70772  0.28287  0.49395  1.0000
  H   H178      1.0  0.71042  0.29871  0.46553  1.0000
  H   H179      1.0  0.72270  0.28607  0.53154  1.0000
  H   H180      1.0  0.69377  0.27690  0.54152  1.0000
