data_image0
_chemical_formula_structural       C5H3CH3C5H3CH3C2H2C2H2C2H2C2H2C5H3CH3C5H3CH3C5H3CH3C5H3CH3C2H2C2H2C2H2C2H2C5H3CH3C5H3CH3C5H3CH3C5H3CH3CNCNCNCNCNCNCNCNCNCNCNCNCNCNCNCNCNCNCNCNCNCNCNCNCNCNCNCNCNCNCNCNCNCNCNCNC2H2C2H2C5H3CH3C5H3CH3C5H3CH3C5H3CH3C2H2C2H2C2H2C2H2C5H3CH3C5H3CH3C5H3CH3C5H3CH3C2H2C2H2C2H2C2H2
_chemical_formula_sum              "C180 H144 N36"
_cell_length_a       33.9906
_cell_length_b       33.8301
_cell_length_c       14.8525
_cell_angle_alpha    90
_cell_angle_beta     90
_cell_angle_gamma    90.2784

_space_group_name_H-M_alt    "P 1"
_space_group_IT_number       1

loop_
  _space_group_symop_operation_xyz
  'x, y, z'

loop_
  _atom_site_type_symbol
  _atom_site_label
  _atom_site_symmetry_multiplicity
  _atom_site_fract_x
  _atom_site_fract_y
  _atom_site_fract_z
  _atom_site_occupancy
  C   C1        1.0  0.97311  0.53320  0.32687  1.0000
  C   C2        1.0  0.03247  0.47313  0.33133  1.0000
  C   C3        1.0  0.00730  0.47657  0.25459  1.0000
  C   C4        1.0  0.97806  0.50720  0.25174  1.0000
  C   C5        1.0  0.01213  0.44943  0.17547  1.0000
  H   H1        1.0  0.03465  0.42699  0.18366  1.0000
  H   H2        1.0  0.02042  0.46639  0.11591  1.0000
  H   H3        1.0  0.98450  0.43392  0.16234  1.0000
  C   C6        1.0  0.95423  0.51298  0.16794  1.0000
  H   H4        1.0  0.93679  0.53979  0.16813  1.0000
  H   H5        1.0  0.93433  0.48793  0.15845  1.0000
  H   H6        1.0  0.97341  0.51560  0.10940  1.0000
  C   C7        1.0  0.47204  0.97304  0.32610  1.0000
  C   C8        1.0  0.53313  0.03187  0.33141  1.0000
  C   C9        1.0  0.52967  0.00632  0.25509  1.0000
  C   C10       1.0  0.49855  0.97732  0.25182  1.0000
  C   C11       1.0  0.55726  0.01052  0.17675  1.0000
  H   H7        1.0  0.58005  0.03287  0.18520  1.0000
  H   H8        1.0  0.54093  0.01884  0.11651  1.0000
  H   H9        1.0  0.57214  0.98252  0.16465  1.0000
  C   C12       1.0  0.49285  0.95307  0.16836  1.0000
  H   H10       1.0  0.46575  0.93594  0.16792  1.0000
  H   H11       1.0  0.51737  0.93268  0.16032  1.0000
  H   H12       1.0  0.49113  0.97209  0.10928  1.0000
  C   C13       1.0  0.07547  0.26982  0.28820  1.0000
  C   C14       1.0  0.08416  0.31036  0.28875  1.0000
  H   H13       1.0  0.10023  0.32168  0.23628  1.0000
  H   H14       1.0  0.08546  0.25319  0.23531  1.0000
  C   C15       1.0  0.92906  0.73689  0.29065  1.0000
  C   C16       1.0  0.92030  0.69638  0.29023  1.0000
  H   H15       1.0  0.90373  0.68547  0.23808  1.0000
  H   H16       1.0  0.91861  0.75387  0.23882  1.0000
  C   C17       1.0  0.73602  0.07602  0.28978  1.0000
  C   C18       1.0  0.69575  0.08478  0.29039  1.0000
  H   H17       1.0  0.68472  0.10127  0.23839  1.0000
  H   H18       1.0  0.75272  0.08641  0.23735  1.0000
  C   C19       1.0  0.26888  0.93019  0.28818  1.0000
  C   C20       1.0  0.30907  0.92112  0.28798  1.0000
  H   H19       1.0  0.31983  0.90486  0.23528  1.0000
  H   H20       1.0  0.25197  0.92022  0.23565  1.0000
  C   C21       1.0  0.45317  0.75175  0.33230  1.0000
  C   C22       1.0  0.43368  0.83404  0.32689  1.0000
  C   C23       1.0  0.45273  0.81601  0.25158  1.0000
  C   C24       1.0  0.46294  0.77478  0.25459  1.0000
  C   C25       1.0  0.46036  0.83933  0.16754  1.0000
  H   H21       1.0  0.44802  0.86886  0.16850  1.0000
  H   H22       1.0  0.44700  0.82474  0.10959  1.0000
  H   H23       1.0  0.49198  0.84215  0.15647  1.0000
  C   C26       1.0  0.48214  0.75598  0.17443  1.0000
  H   H24       1.0  0.48829  0.72467  0.18184  1.0000
  H   H25       1.0  0.51011  0.77071  0.16040  1.0000
  H   H26       1.0  0.46311  0.75848  0.11563  1.0000
  C   C27       1.0  0.55189  0.25309  0.33393  1.0000
  C   C28       1.0  0.57042  0.17053  0.33280  1.0000
  C   C29       1.0  0.54894  0.18735  0.25943  1.0000
  C   C30       1.0  0.53961  0.22884  0.26003  1.0000
  C   C31       1.0  0.53772  0.16258  0.17953  1.0000
  H   H27       1.0  0.54770  0.13214  0.18225  1.0000
  H   H28       1.0  0.55055  0.17497  0.11839  1.0000
  H   H29       1.0  0.50576  0.16183  0.17265  1.0000
  C   C32       1.0  0.51871  0.24664  0.18090  1.0000
  H   H30       1.0  0.51451  0.27840  0.18491  1.0000
  H   H31       1.0  0.48966  0.23314  0.17370  1.0000
  H   H32       1.0  0.53553  0.24166  0.11946  1.0000
  C   C33       1.0  0.75184  0.55255  0.33156  1.0000
  C   C34       1.0  0.83437  0.57059  0.32733  1.0000
  C   C35       1.0  0.81623  0.55104  0.25254  1.0000
  C   C36       1.0  0.77489  0.54160  0.25497  1.0000
  C   C37       1.0  0.83956  0.54212  0.16945  1.0000
  H   H33       1.0  0.86937  0.55369  0.17067  1.0000
  H   H34       1.0  0.82582  0.55548  0.11061  1.0000
  H   H35       1.0  0.84126  0.51022  0.15969  1.0000
  C   C38       1.0  0.75599  0.52199  0.17518  1.0000
  H   H36       1.0  0.72458  0.51673  0.18180  1.0000
  H   H37       1.0  0.76973  0.49339  0.16309  1.0000
  H   H38       1.0  0.75951  0.54044  0.11549  1.0000
  C   C39       1.0  0.25336  0.45276  0.33390  1.0000
  C   C40       1.0  0.17060  0.43598  0.33348  1.0000
  C   C41       1.0  0.18794  0.45703  0.25978  1.0000
  C   C42       1.0  0.22951  0.46547  0.26003  1.0000
  C   C43       1.0  0.16355  0.46872  0.17994  1.0000
  H   H39       1.0  0.13289  0.45963  0.18320  1.0000
  H   H40       1.0  0.17526  0.45524  0.11894  1.0000
  H   H41       1.0  0.16403  0.50080  0.17241  1.0000
  C   C44       1.0  0.24782  0.48587  0.18054  1.0000
  H   H42       1.0  0.27958  0.48922  0.18420  1.0000
  H   H43       1.0  0.23543  0.51539  0.17326  1.0000
  H   H44       1.0  0.24213  0.46902  0.11928  1.0000
  C   C45       1.0  0.13741  0.06797  0.27548  1.0000
  C   C46       1.0  0.11429  0.10218  0.27502  1.0000
  H   H45       1.0  0.10849  0.11547  0.21446  1.0000
  H   H46       1.0  0.14765  0.05743  0.21522  1.0000
  C   C47       1.0  0.86764  0.93781  0.27695  1.0000
  C   C48       1.0  0.89071  0.90354  0.27721  1.0000
  H   H47       1.0  0.89615  0.88979  0.21702  1.0000
  H   H48       1.0  0.85708  0.94789  0.21656  1.0000
  C   C49       1.0  0.93918  0.13549  0.27236  1.0000
  C   C50       1.0  0.90449  0.11288  0.27229  1.0000
  H   H49       1.0  0.89179  0.10607  0.21162  1.0000
  H   H50       1.0  0.95052  0.14447  0.21173  1.0000
  C   C51       1.0  0.06618  0.87060  0.27420  1.0000
  C   C52       1.0  0.10081  0.89329  0.27388  1.0000
  H   H51       1.0  0.11353  0.89997  0.21316  1.0000
  H   H52       1.0  0.05486  0.86145  0.21368  1.0000
  C   C53       1.0  0.36324  0.54500  0.33591  1.0000
  C   C54       1.0  0.40980  0.61508  0.33614  1.0000
  C   C55       1.0  0.40252  0.59493  0.25321  1.0000
  C   C56       1.0  0.37916  0.55947  0.25314  1.0000
  C   C57       1.0  0.41979  0.61010  0.16686  1.0000
  H   H53       1.0  0.43558  0.63803  0.17351  1.0000
  H   H54       1.0  0.39650  0.61520  0.11780  1.0000
  H   H55       1.0  0.44040  0.58854  0.13965  1.0000
  C   C58       1.0  0.37239  0.53747  0.16680  1.0000
  H   H56       1.0  0.35364  0.51147  0.17351  1.0000
  H   H57       1.0  0.40044  0.52758  0.13933  1.0000
  H   H58       1.0  0.35806  0.55666  0.11793  1.0000
  C   C59       1.0  0.64226  0.45986  0.33483  1.0000
  C   C60       1.0  0.59553  0.38986  0.33570  1.0000
  C   C61       1.0  0.60266  0.40998  0.25267  1.0000
  C   C62       1.0  0.62612  0.44538  0.25228  1.0000
  C   C63       1.0  0.58510  0.39487  0.16657  1.0000
  H   H59       1.0  0.56919  0.36703  0.17345  1.0000
  H   H60       1.0  0.60825  0.38964  0.11721  1.0000
  H   H61       1.0  0.56453  0.41653  0.13959  1.0000
  C   C64       1.0  0.63279  0.46730  0.16581  1.0000
  H   H62       1.0  0.65169  0.49320  0.17226  1.0000
  H   H63       1.0  0.60473  0.47731  0.13864  1.0000
  H   H64       1.0  0.64693  0.44801  0.11681  1.0000
  C   C65       1.0  0.54631  0.64313  0.33444  1.0000
  C   C66       1.0  0.61618  0.59704  0.33445  1.0000
  C   C67       1.0  0.59574  0.60371  0.25181  1.0000
  C   C68       1.0  0.56043  0.62682  0.25185  1.0000
  C   C69       1.0  0.61044  0.58598  0.16566  1.0000
  H   H65       1.0  0.63828  0.57046  0.17215  1.0000
  H   H66       1.0  0.61529  0.60913  0.11574  1.0000
  H   H67       1.0  0.58887  0.56489  0.13962  1.0000
  C   C70       1.0  0.53819  0.63294  0.16580  1.0000
  H   H68       1.0  0.51241  0.65164  0.17252  1.0000
  H   H69       1.0  0.52816  0.60452  0.13943  1.0000
  H   H70       1.0  0.55712  0.64719  0.11606  1.0000
  C   C71       1.0  0.45896  0.36191  0.33613  1.0000
  C   C72       1.0  0.38898  0.40775  0.33626  1.0000
  C   C73       1.0  0.40896  0.40049  0.25330  1.0000
  C   C74       1.0  0.44433  0.37746  0.25327  1.0000
  C   C75       1.0  0.39377  0.41756  0.16690  1.0000
  H   H71       1.0  0.36596  0.43314  0.17358  1.0000
  H   H72       1.0  0.38866  0.39402  0.11805  1.0000
  H   H73       1.0  0.41518  0.43844  0.13940  1.0000
  C   C76       1.0  0.46611  0.37072  0.16685  1.0000
  H   H74       1.0  0.49202  0.35219  0.17360  1.0000
  H   H75       1.0  0.47587  0.39895  0.13896  1.0000
  H   H76       1.0  0.44696  0.35598  0.11830  1.0000
  C   C77       1.0  0.12986  0.42596  0.33995  1.0000
  N   N1        1.0  0.10105  0.45386  0.33711  1.0000
  C   C78       1.0  0.06220  0.44379  0.34032  1.0000
  N   N2        1.0  0.05245  0.40477  0.34693  1.0000
  C   C79       1.0  0.08045  0.37615  0.35153  1.0000
  N   N3        1.0  0.11889  0.38735  0.34710  1.0000
  C   C80       1.0  0.87523  0.58051  0.33270  1.0000
  N   N4        1.0  0.90410  0.55268  0.32774  1.0000
  C   C81       1.0  0.94304  0.56255  0.33311  1.0000
  N   N5        1.0  0.95266  0.60143  0.34389  1.0000
  C   C82       1.0  0.92468  0.63005  0.34954  1.0000
  N   N6        1.0  0.88625  0.61893  0.34339  1.0000
  C   C83       1.0  0.58061  0.12978  0.33966  1.0000
  N   N7        1.0  0.55278  0.10066  0.33685  1.0000
  C   C84       1.0  0.56263  0.06172  0.34038  1.0000
  N   N8        1.0  0.60141  0.05216  0.34741  1.0000
  C   C85       1.0  0.63003  0.08045  0.35216  1.0000
  N   N9        1.0  0.61901  0.11902  0.34731  1.0000
  C   C86       1.0  0.42381  0.87495  0.33218  1.0000
  N   N10       1.0  0.45177  0.90393  0.32715  1.0000
  C   C87       1.0  0.44235  0.94303  0.33228  1.0000
  N   N11       1.0  0.40374  0.95273  0.34299  1.0000
  C   C88       1.0  0.37497  0.92461  0.34857  1.0000
  N   N12       1.0  0.38563  0.88596  0.34266  1.0000
  C   C89       1.0  0.99845  0.15817  0.34468  1.0000
  N   N13       1.0  0.00652  0.19757  0.34759  1.0000
  C   C90       1.0  0.04439  0.21119  0.34871  1.0000
  N   N14       1.0  0.07429  0.18440  0.34806  1.0000
  C   C91       1.0  0.06675  0.14486  0.34518  1.0000
  N   N15       1.0  0.02880  0.13231  0.34567  1.0000
  C   C92       1.0  0.00692  0.84806  0.34679  1.0000
  N   N16       1.0  0.99884  0.80866  0.34971  1.0000
  C   C93       1.0  0.96097  0.79505  0.35116  1.0000
  N   N17       1.0  0.93108  0.82188  0.35048  1.0000
  C   C94       1.0  0.93863  0.86141  0.34762  1.0000
  N   N18       1.0  0.97660  0.87394  0.34794  1.0000
  C   C95       1.0  0.84671  0.99846  0.34639  1.0000
  N   N19       1.0  0.80751  0.00637  0.34923  1.0000
  C   C96       1.0  0.79408  0.04436  0.34945  1.0000
  N   N20       1.0  0.82090  0.07454  0.34771  1.0000
  C   C97       1.0  0.86021  0.06714  0.34458  1.0000
  N   N21       1.0  0.87253  0.02911  0.34618  1.0000
  C   C98       1.0  0.15875  0.00787  0.34668  1.0000
  N   N22       1.0  0.19794  0.99984  0.34921  1.0000
  C   C99       1.0  0.21121  0.96179  0.34964  1.0000
  N   N23       1.0  0.18428  0.93171  0.34841  1.0000
  C   C100      1.0  0.14500  0.93924  0.34576  1.0000
  N   N24       1.0  0.13281  0.97732  0.34695  1.0000
  C   C101      1.0  0.50778  0.65832  0.34387  1.0000
  N   N25       1.0  0.49966  0.69766  0.34144  1.0000
  C   C102      1.0  0.46174  0.71079  0.34163  1.0000
  N   N26       1.0  0.43186  0.68371  0.34254  1.0000
  C   C103      1.0  0.43949  0.64428  0.34504  1.0000
  N   N27       1.0  0.47745  0.63214  0.34355  1.0000
  C   C104      1.0  0.49752  0.34674  0.34498  1.0000
  N   N28       1.0  0.50558  0.30740  0.34258  1.0000
  C   C105      1.0  0.54347  0.29418  0.34195  1.0000
  N   N29       1.0  0.57337  0.32125  0.34255  1.0000
  C   C106      1.0  0.56581  0.36070  0.34497  1.0000
  N   N30       1.0  0.52787  0.37289  0.34402  1.0000
  C   C107      1.0  0.65792  0.49851  0.34357  1.0000
  N   N31       1.0  0.69719  0.50644  0.34112  1.0000
  C   C108      1.0  0.71086  0.54445  0.34065  1.0000
  N   N32       1.0  0.68435  0.57464  0.34114  1.0000
  C   C109      1.0  0.64497  0.56719  0.34370  1.0000
  N   N33       1.0  0.63233  0.52912  0.34279  1.0000
  C   C110      1.0  0.34754  0.50639  0.34479  1.0000
  N   N34       1.0  0.30826  0.49860  0.34242  1.0000
  C   C111      1.0  0.29444  0.46065  0.34192  1.0000
  N   N35       1.0  0.32087  0.43038  0.34270  1.0000
  C   C112      1.0  0.36028  0.43770  0.34512  1.0000
  N   N36       1.0  0.37305  0.47572  0.34412  1.0000
  C   C113      1.0  0.99918  0.52969  0.40042  1.0000
  C   C114      1.0  0.02840  0.50051  0.40232  1.0000
  H   H77       1.0  0.04612  0.49877  0.45799  1.0000
  H   H78       1.0  0.99661  0.54800  0.45504  1.0000
  C   C115      1.0  0.47561  0.99949  0.39919  1.0000
  C   C116      1.0  0.50529  0.02848  0.40146  1.0000
  H   H79       1.0  0.50699  0.04653  0.45674  1.0000
  H   H80       1.0  0.45698  0.99736  0.45323  1.0000
  C   C117      1.0  0.05264  0.25239  0.35697  1.0000
  C   C118      1.0  0.07030  0.33530  0.35789  1.0000
  C   C119      1.0  0.04813  0.31831  0.43013  1.0000
  C   C120      1.0  0.03946  0.27660  0.42994  1.0000
  C   C121      1.0  0.03539  0.34327  0.50831  1.0000
  H   H81       1.0  0.04417  0.37415  0.50425  1.0000
  H   H82       1.0  0.04820  0.33204  0.57052  1.0000
  H   H83       1.0  0.00338  0.34257  0.51394  1.0000
  C   C122      1.0  0.01834  0.25856  0.50867  1.0000
  H   H84       1.0  0.01523  0.22662  0.50571  1.0000
  H   H85       1.0  0.98883  0.27091  0.51384  1.0000
  H   H86       1.0  0.03437  0.26469  0.57075  1.0000
  C   C123      1.0  0.95265  0.75381  0.35872  1.0000
  C   C124      1.0  0.93478  0.67089  0.35766  1.0000
  C   C125      1.0  0.95773  0.68736  0.42928  1.0000
  C   C126      1.0  0.96650  0.72906  0.43009  1.0000
  C   C127      1.0  0.97115  0.66185  0.50587  1.0000
  H   H87       1.0  0.96209  0.63105  0.50134  1.0000
  H   H88       1.0  0.95912  0.67276  0.56917  1.0000
  H   H89       1.0  0.00321  0.66230  0.50965  1.0000
  C   C128      1.0  0.98846  0.74651  0.50832  1.0000
  H   H90       1.0  0.99159  0.77847  0.50639  1.0000
  H   H91       1.0  0.01799  0.73409  0.51144  1.0000
  H   H92       1.0  0.97305  0.73998  0.57102  1.0000
  C   C129      1.0  0.75308  0.05257  0.35776  1.0000
  C   C130      1.0  0.67065  0.07037  0.35877  1.0000
  C   C131      1.0  0.68729  0.04758  0.43029  1.0000
  C   C132      1.0  0.72873  0.03888  0.43010  1.0000
  C   C133      1.0  0.66222  0.03423  0.50782  1.0000
  H   H93       1.0  0.63159  0.04314  0.50401  1.0000
  H   H94       1.0  0.67346  0.04661  0.57060  1.0000
  H   H95       1.0  0.66256  0.00204  0.51219  1.0000
  C   C134      1.0  0.74636  0.01722  0.50837  1.0000
  H   H96       1.0  0.77814  0.01422  0.50583  1.0000
  H   H97       1.0  0.73386  0.98749  0.51241  1.0000
  H   H98       1.0  0.74022  0.03291  0.57091  1.0000
  C   C135      1.0  0.25217  0.95336  0.35709  1.0000
  C   C136      1.0  0.33444  0.93488  0.35650  1.0000
  C   C137      1.0  0.31818  0.95740  0.42889  1.0000
  C   C138      1.0  0.27681  0.96646  0.42949  1.0000
  C   C139      1.0  0.34358  0.97008  0.50640  1.0000
  H   H99       1.0  0.37412  0.96091  0.50170  1.0000
  H   H100      1.0  0.33240  0.95742  0.56896  1.0000
  H   H101      1.0  0.34355  0.00224  0.51176  1.0000
  C   C140      1.0  0.25954  0.98790  0.50848  1.0000
  H   H102      1.0  0.22779  0.99137  0.50608  1.0000
  H   H103      1.0  0.27243  0.01741  0.51337  1.0000
  H   H104      1.0  0.26553  0.97174  0.57047  1.0000
  C   C141      1.0  0.43270  0.76986  0.40372  1.0000
  C   C142      1.0  0.42337  0.81017  0.40126  1.0000
  H   H105      1.0  0.40940  0.82215  0.45592  1.0000
  H   H106      1.0  0.42509  0.75396  0.45987  1.0000
  C   C143      1.0  0.57434  0.23596  0.40343  1.0000
  C   C144      1.0  0.58337  0.19558  0.40289  1.0000
  H   H107      1.0  0.59902  0.18444  0.45607  1.0000
  H   H108      1.0  0.58374  0.25267  0.45692  1.0000
  C   C145      1.0  0.77012  0.57339  0.40247  1.0000
  C   C146      1.0  0.81050  0.58203  0.40055  1.0000
  H   H109      1.0  0.82250  0.59642  0.45479  1.0000
  H   H110      1.0  0.75427  0.58180  0.45790  1.0000
  C   C147      1.0  0.23568  0.43080  0.40385  1.0000
  C   C148      1.0  0.19523  0.42260  0.40360  1.0000
  H   H111      1.0  0.18373  0.40718  0.45693  1.0000
  H   H112      1.0  0.25207  0.42114  0.45737  1.0000
  C   C149      1.0  0.14338  0.04650  0.35564  1.0000
  C   C150      1.0  0.09647  0.11597  0.35468  1.0000
  C   C151      1.0  0.10325  0.09566  0.43755  1.0000
  C   C152      1.0  0.12681  0.06055  0.43798  1.0000
  C   C153      1.0  0.08521  0.11025  0.52344  1.0000
  H   H113      1.0  0.06924  0.13791  0.51662  1.0000
  H   H114      1.0  0.10810  0.11564  0.57347  1.0000
  H   H115      1.0  0.06460  0.08824  0.54953  1.0000
  C   C154      1.0  0.13313  0.03843  0.52426  1.0000
  H   H116      1.0  0.15226  0.01287  0.51794  1.0000
  H   H117      1.0  0.10498  0.02786  0.55038  1.0000
  H   H118      1.0  0.14686  0.05777  0.57403  1.0000
  C   C155      1.0  0.86218  0.95992  0.35637  1.0000
  C   C156      1.0  0.90893  0.89033  0.35691  1.0000
  C   C157      1.0  0.90265  0.91132  0.43910  1.0000
  C   C158      1.0  0.87915  0.94647  0.43880  1.0000
  C   C159      1.0  0.92109  0.89733  0.52506  1.0000
  H   H119      1.0  0.93692  0.86956  0.51889  1.0000
  H   H120      1.0  0.89846  0.89241  0.57593  1.0000
  H   H121      1.0  0.94192  0.91947  0.54969  1.0000
  C   C160      1.0  0.87327  0.96921  0.52441  1.0000
  H   H122      1.0  0.85411  0.99473  0.51765  1.0000
  H   H123      1.0  0.90155  0.97994  0.54938  1.0000
  H   H124      1.0  0.85979  0.95024  0.57525  1.0000
  C   C161      1.0  0.95983  0.14273  0.35303  1.0000
  C   C162      1.0  0.88929  0.09701  0.35292  1.0000
  C   C163      1.0  0.90889  0.10502  0.43611  1.0000
  C   C164      1.0  0.94456  0.12793  0.43613  1.0000
  C   C165      1.0  0.89299  0.08879  0.52283  1.0000
  H   H125      1.0  0.86503  0.07322  0.51606  1.0000
  H   H126      1.0  0.88792  0.11279  0.57039  1.0000
  H   H127      1.0  0.91398  0.06810  0.55195  1.0000
  C   C166      1.0  0.96597  0.13530  0.52284  1.0000
  H   H128      1.0  0.99228  0.15351  0.51600  1.0000
  H   H129      1.0  0.97506  0.10726  0.55238  1.0000
  H   H130      1.0  0.94682  0.15066  0.57009  1.0000
  C   C167      1.0  0.04553  0.86351  0.35495  1.0000
  C   C168      1.0  0.11589  0.90941  0.35436  1.0000
  C   C169      1.0  0.09631  0.90160  0.43765  1.0000
  C   C170      1.0  0.06075  0.87852  0.43791  1.0000
  C   C171      1.0  0.11210  0.91815  0.52416  1.0000
  H   H131      1.0  0.13994  0.93391  0.51721  1.0000
  H   H132      1.0  0.11734  0.89431  0.57203  1.0000
  H   H133      1.0  0.09096  0.93876  0.55301  1.0000
  C   C172      1.0  0.03939  0.87118  0.52472  1.0000
  H   H134      1.0  0.01326  0.85270  0.51809  1.0000
  H   H135      1.0  0.03007  0.89921  0.55389  1.0000
  H   H136      1.0  0.05868  0.85611  0.57216  1.0000
  C   C173      1.0  0.36967  0.56630  0.41617  1.0000
  C   C174      1.0  0.39267  0.60081  0.41630  1.0000
  H   H137      1.0  0.39884  0.61401  0.47683  1.0000
  H   H138      1.0  0.35982  0.55551  0.47663  1.0000
  C   C175      1.0  0.63597  0.43857  0.41517  1.0000
  C   C176      1.0  0.61290  0.40410  0.41561  1.0000
  H   H139      1.0  0.60686  0.39092  0.47623  1.0000
  H   H140      1.0  0.64596  0.44937  0.47551  1.0000
  C   C177      1.0  0.56789  0.63731  0.41436  1.0000
  C   C178      1.0  0.60227  0.61455  0.41438  1.0000
  H   H141      1.0  0.61560  0.60876  0.47483  1.0000
  H   H142      1.0  0.55736  0.64736  0.47480  1.0000
  C   C179      1.0  0.43786  0.36835  0.41646  1.0000
  C   C180      1.0  0.40342  0.39102  0.41656  1.0000
  H   H143      1.0  0.39044  0.39731  0.47714  1.0000
  H   H144      1.0  0.44877  0.35884  0.47700  1.0000
