data_image0
_chemical_formula_structural       C15H12C4HC6HO2C4HC6HO2C2NC2NC5NC3NC17H14CNCHNHCNCHNH
_chemical_formula_sum              "C68 H34 O4 N8"
_cell_length_a       25.6533
_cell_length_b       25.6533
_cell_length_c       14.9656
_cell_angle_alpha    90
_cell_angle_beta     90
_cell_angle_gamma    90

_space_group_name_H-M_alt    "P 1"
_space_group_IT_number       1

loop_
  _space_group_symop_operation_xyz
  'x, y, z'

loop_
  _atom_site_type_symbol
  _atom_site_label
  _atom_site_symmetry_multiplicity
  _atom_site_fract_x
  _atom_site_fract_y
  _atom_site_fract_z
  _atom_site_occupancy
  C   C1        1.0  0.89003  0.95195  0.34047  1.0000
  C   C2        1.0  0.05068  0.88877  0.34051  1.0000
  C   C3        1.0  0.99948  0.13762  0.33975  1.0000
  C   C4        1.0  0.95023  0.11213  0.34007  1.0000
  C   C5        1.0  0.86373  0.09856  0.33834  1.0000
  C   C6        1.0  0.90160  0.13663  0.34034  1.0000
  C   C7        1.0  0.72544  0.98068  0.26111  1.0000
  C   C8        1.0  0.78026  0.98179  0.26250  1.0000
  C   C9        1.0  0.99975  0.19349  0.33774  1.0000
  C   C10       1.0  0.98082  0.27557  0.26055  1.0000
  C   C11       1.0  0.98167  0.22075  0.26189  1.0000
  C   C12       1.0  0.22060  0.01922  0.26266  1.0000
  C   C13       1.0  0.27541  0.02054  0.26128  1.0000
  C   C14       1.0  0.01936  0.78023  0.26212  1.0000
  C   C15       1.0  0.02037  0.72542  0.26074  1.0000
  H   H1        1.0  0.03637  0.70806  0.20577  1.0000
  H   H2        1.0  0.03326  0.80026  0.20794  1.0000
  H   H3        1.0  0.89625  0.82621  0.33717  1.0000
  H   H4        1.0  0.20049  0.03302  0.20848  1.0000
  H   H5        1.0  0.29268  0.03664  0.20633  1.0000
  H   H6        1.0  0.10468  0.17467  0.33704  1.0000
  H   H7        1.0  0.82463  0.10599  0.33671  1.0000
  H   H8        1.0  0.89398  0.17571  0.34073  1.0000
  H   H9        1.0  0.96773  0.20077  0.20767  1.0000
  H   H10       1.0  0.96490  0.29298  0.20558  1.0000
  H   H11       1.0  0.80033  0.96805  0.20824  1.0000
  H   H12       1.0  0.70809  0.96472  0.20611  1.0000
  C   C16       1.0  0.00075  0.63886  0.33012  1.0000
  C   C17       1.0  0.00090  0.52799  0.32668  1.0000
  C   C18       1.0  0.99956  0.55583  0.24478  1.0000
  C   C19       1.0  0.99827  0.61091  0.24830  1.0000
  H   H13       1.0  0.99478  0.63085  0.18954  1.0000
  C   C20       1.0  0.00082  0.47291  0.32666  1.0000
  C   C21       1.0  0.00076  0.36204  0.32999  1.0000
  C   C22       1.0  0.00327  0.39001  0.24820  1.0000
  C   C23       1.0  0.00207  0.44510  0.24473  1.0000
  C   C24       1.0  0.00189  0.47304  0.16320  1.0000
  C   C25       1.0  0.99971  0.52792  0.16323  1.0000
  H   H14       1.0  0.00666  0.37008  0.18941  1.0000
  O   O1        1.0  0.00250  0.44780  0.08366  1.0000
  O   O2        1.0  0.99902  0.55318  0.08371  1.0000
  C   C26       1.0  0.36207  0.00101  0.33046  1.0000
  C   C27       1.0  0.47294  0.00093  0.32697  1.0000
  C   C28       1.0  0.44510  0.99989  0.24507  1.0000
  C   C29       1.0  0.39000  0.99870  0.24860  1.0000
  H   H15       1.0  0.37005  0.99541  0.18982  1.0000
  C   C30       1.0  0.52801  0.00071  0.32696  1.0000
  C   C31       1.0  0.63887  0.00042  0.33039  1.0000
  C   C32       1.0  0.61094  0.00314  0.24857  1.0000
  C   C33       1.0  0.55585  0.00208  0.24505  1.0000
  C   C34       1.0  0.52791  0.00219  0.16353  1.0000
  C   C35       1.0  0.47302  0.00017  0.16353  1.0000
  H   H16       1.0  0.63091  0.00662  0.18983  1.0000
  O   O3        1.0  0.55316  0.00295  0.08400  1.0000
  O   O4        1.0  0.44776  0.99977  0.08401  1.0000
  C   C36       1.0  0.90389  0.86528  0.33888  1.0000
  C   C37       1.0  0.86581  0.90315  0.34086  1.0000
  N   N1        1.0  0.94194  0.94160  0.34090  1.0000
  C   C38       1.0  0.95256  0.88974  0.34029  1.0000
  C   C39       1.0  0.00143  0.86328  0.34011  1.0000
  N   N2        1.0  0.06069  0.94057  0.34085  1.0000
  C   C40       1.0  0.11244  0.95083  0.34037  1.0000
  C   C41       1.0  0.13718  0.90233  0.33889  1.0000
  C   C42       1.0  0.09931  0.86427  0.34091  1.0000
  C   C43       1.0  0.13764  0.00022  0.34032  1.0000
  C   C44       1.0  0.11088  0.04894  0.34055  1.0000
  N   N3        1.0  0.05897  0.05929  0.34080  1.0000
  C   C45       1.0  0.04835  0.11114  0.34007  1.0000
  C   C46       1.0  0.09702  0.13561  0.33872  1.0000
  C   C47       1.0  0.13509  0.09774  0.34095  1.0000
  N   N4        1.0  0.94022  0.06033  0.34051  1.0000
  C   C48       1.0  0.88848  0.05006  0.34003  1.0000
  C   C49       1.0  0.86328  0.00067  0.34008  1.0000
  C   C50       1.0  0.80741  0.00011  0.33832  1.0000
  C   C51       1.0  0.77797  0.01820  0.41178  1.0000
  C   C52       1.0  0.72314  0.01914  0.40844  1.0000
  C   C53       1.0  0.69517  0.00005  0.33334  1.0000
  C   C54       1.0  0.01798  0.22281  0.41124  1.0000
  C   C55       1.0  0.01925  0.27764  0.40789  1.0000
  C   C56       1.0  0.00030  0.30574  0.33283  1.0000
  C   C57       1.0  0.19351  0.00081  0.33846  1.0000
  C   C58       1.0  0.30577  0.00119  0.33344  1.0000
  C   C59       1.0  0.27785  0.98193  0.40847  1.0000
  C   C60       1.0  0.22301  0.98272  0.41186  1.0000
  C   C61       1.0  0.00119  0.80742  0.33799  1.0000
  C   C62       1.0  0.98304  0.77802  0.41147  1.0000
  C   C63       1.0  0.98197  0.72318  0.40810  1.0000
  C   C64       1.0  0.00101  0.69517  0.33302  1.0000
  H   H17       1.0  0.96621  0.70410  0.46157  1.0000
  H   H18       1.0  0.96928  0.79647  0.46736  1.0000
  H   H19       1.0  0.82677  0.89531  0.34156  1.0000
  H   H20       1.0  0.96832  0.96812  0.34125  1.0000
  H   H21       1.0  0.03258  0.03277  0.34103  1.0000
  H   H22       1.0  0.10693  0.82519  0.34140  1.0000
  H   H23       1.0  0.17629  0.89490  0.33726  1.0000
  H   H24       1.0  0.20464  0.96873  0.46766  1.0000
  H   H25       1.0  0.29700  0.96614  0.46185  1.0000
  H   H26       1.0  0.17413  0.10559  0.34181  1.0000
  H   H27       1.0  0.03168  0.20430  0.46712  1.0000
  H   H28       1.0  0.03506  0.29666  0.46139  1.0000
  H   H29       1.0  0.70403  0.03496  0.46183  1.0000
  H   H30       1.0  0.79639  0.03217  0.46756  1.0000
  C   C65       1.0  0.00329  0.60794  0.40858  1.0000
  N   N5        1.0  0.00284  0.55514  0.40447  1.0000
  C   C66       1.0  0.99837  0.39295  0.40849  1.0000
  H   H31       1.0  0.00656  0.62437  0.47041  1.0000
  N   N6        1.0  0.99888  0.44574  0.40441  1.0000
  H   H32       1.0  0.99504  0.37651  0.47030  1.0000
  C   C67       1.0  0.39302  0.00333  0.40892  1.0000
  N   N7        1.0  0.44581  0.00277  0.40477  1.0000
  C   C68       1.0  0.60794  0.99787  0.40884  1.0000
  H   H33       1.0  0.37661  0.00648  0.47078  1.0000
  N   N8        1.0  0.55515  0.99851  0.40473  1.0000
  H   H34       1.0  0.62437  0.99441  0.47065  1.0000
