data_image0
_chemical_formula_structural       C2HC2H3N2C3HNO2CHC3HNO2CHC4NC4NH4N2C3HNO2CHC3HNO2CHC2HC2H3N2C3HNO2CHC3HNO2CHC4NC4NH4N2C3HNO2CHC3HNO2CHC2HC2H3N2C3HNO2CHC3HNO2CHC4NC4NH4N2C3HNO2CHC3HNO2CHC2HC2H3N2C3HNO2CHC3HNO2CHC4NC4NH4N2C3HNO2CHC3HNO2CH
_chemical_formula_sum              "C112 H64 N40 O32"
_cell_length_a       31.5098
_cell_length_b       31.5098
_cell_length_c       14.9529
_cell_angle_alpha    90
_cell_angle_beta     90
_cell_angle_gamma    90

_space_group_name_H-M_alt    "P 1"
_space_group_IT_number       1

loop_
  _space_group_symop_operation_xyz
  'x, y, z'

loop_
  _atom_site_type_symbol
  _atom_site_label
  _atom_site_symmetry_multiplicity
  _atom_site_fract_x
  _atom_site_fract_y
  _atom_site_fract_z
  _atom_site_occupancy
  C   C1        1.0  0.49462  0.44110  0.33523  1.0000
  C   C2        1.0  0.46332  0.40890  0.33547  1.0000
  H   H1        1.0  0.02510  0.43084  0.33329  1.0000
  C   C3        1.0  0.03960  0.09446  0.33420  1.0000
  C   C4        1.0  0.00830  0.06226  0.33391  1.0000
  H   H2        1.0  0.47782  0.07251  0.33147  1.0000
  H   H3        1.0  0.10719  0.14417  0.33420  1.0000
  H   H4        1.0  0.39573  0.35919  0.33627  1.0000
  N   N1        1.0  0.02970  0.13636  0.33323  1.0000
  N   N2        1.0  0.47322  0.36700  0.33468  1.0000
  C   C5        1.0  0.99773  0.20607  0.33184  1.0000
  C   C6        1.0  0.96092  0.23203  0.32919  1.0000
  C   C7        1.0  0.96522  0.27676  0.33019  1.0000
  H   H5        1.0  0.93804  0.29439  0.32800  1.0000
  N   N3        1.0  0.92008  0.21320  0.32531  1.0000
  O   O1        1.0  0.90060  0.22347  0.25522  1.0000
  O   O2        1.0  0.89782  0.22308  0.39187  1.0000
  C   C8        1.0  0.99478  0.16118  0.33137  1.0000
  H   H6        1.0  0.96579  0.14671  0.32968  1.0000
  C   C9        1.0  0.29708  0.00545  0.33881  1.0000
  C   C10       1.0  0.27112  0.04225  0.33595  1.0000
  C   C11       1.0  0.22638  0.03795  0.33686  1.0000
  H   H7        1.0  0.20875  0.06512  0.33440  1.0000
  N   N4        1.0  0.28995  0.08308  0.33159  1.0000
  O   O3        1.0  0.27970  0.10237  0.26125  1.0000
  O   O4        1.0  0.28004  0.10551  0.39787  1.0000
  C   C12       1.0  0.34196  0.00838  0.33784  1.0000
  H   H8        1.0  0.35644  0.03736  0.33582  1.0000
  C   C13       1.0  0.48519  0.48543  0.33627  1.0000
  C   C14       1.0  0.41969  0.41992  0.33649  1.0000
  C   C15       1.0  0.40867  0.46355  0.33731  1.0000
  C   C16       1.0  0.44087  0.49485  0.33735  1.0000
  N   N5        1.0  0.38898  0.38920  0.33663  1.0000
  C   C17       1.0  0.01771  0.01794  0.33620  1.0000
  C   C18       1.0  0.06203  0.00853  0.33843  1.0000
  C   C19       1.0  0.09423  0.03982  0.33793  1.0000
  C   C20       1.0  0.08321  0.08344  0.33597  1.0000
  N   N6        1.0  0.11393  0.11416  0.33582  1.0000
  H   H9        1.0  0.14394  0.10741  0.33727  1.0000
  H   H10       1.0  0.35896  0.39596  0.33718  1.0000
  H   H11       1.0  0.43061  0.02533  0.33917  1.0000
  H   H12       1.0  0.07228  0.47806  0.34099  1.0000
  N   N7        1.0  0.13613  0.02993  0.33894  1.0000
  N   N8        1.0  0.36677  0.47344  0.33806  1.0000
  C   C21       1.0  0.00522  0.29731  0.33368  1.0000
  C   C22       1.0  0.04202  0.27135  0.33617  1.0000
  C   C23       1.0  0.03772  0.22661  0.33523  1.0000
  H   H13       1.0  0.06491  0.20898  0.33741  1.0000
  N   N9        1.0  0.08286  0.29017  0.34016  1.0000
  O   O5        1.0  0.10515  0.28029  0.27365  1.0000
  O   O6        1.0  0.10231  0.27990  0.41029  1.0000
  C   C24       1.0  0.00815  0.34219  0.33468  1.0000
  H   H14       1.0  0.03714  0.35666  0.33646  1.0000
  C   C25       1.0  0.20584  0.99795  0.34058  1.0000
  C   C26       1.0  0.23180  0.96116  0.34361  1.0000
  C   C27       1.0  0.27653  0.96546  0.34264  1.0000
  H   H15       1.0  0.29417  0.93828  0.34511  1.0000
  N   N10       1.0  0.21297  0.92033  0.34786  1.0000
  O   O7        1.0  0.22322  0.90100  0.41815  1.0000
  O   O8        1.0  0.22288  0.89792  0.28153  1.0000
  C   C28       1.0  0.16095  0.99501  0.34103  1.0000
  H   H16       1.0  0.14648  0.96603  0.34296  1.0000
  C   C29       1.0  0.49462  0.94110  0.33523  1.0000
  C   C30       1.0  0.46332  0.90890  0.33547  1.0000
  H   H17       1.0  0.02510  0.93084  0.33329  1.0000
  C   C31       1.0  0.03960  0.59446  0.33420  1.0000
  C   C32       1.0  0.00830  0.56226  0.33391  1.0000
  H   H18       1.0  0.47782  0.57251  0.33147  1.0000
  H   H19       1.0  0.10719  0.64416  0.33420  1.0000
  H   H20       1.0  0.39573  0.85919  0.33627  1.0000
  N   N11       1.0  0.02970  0.63636  0.33323  1.0000
  N   N12       1.0  0.47322  0.86700  0.33468  1.0000
  C   C33       1.0  0.99773  0.70607  0.33184  1.0000
  C   C34       1.0  0.96092  0.73203  0.32919  1.0000
  C   C35       1.0  0.96522  0.77677  0.33019  1.0000
  H   H21       1.0  0.93804  0.79439  0.32800  1.0000
  N   N13       1.0  0.92008  0.71320  0.32531  1.0000
  O   O9        1.0  0.90060  0.72347  0.25522  1.0000
  O   O10       1.0  0.89782  0.72308  0.39187  1.0000
  C   C36       1.0  0.99478  0.66118  0.33137  1.0000
  H   H22       1.0  0.96579  0.64671  0.32968  1.0000
  C   C37       1.0  0.29708  0.50545  0.33881  1.0000
  C   C38       1.0  0.27112  0.54225  0.33595  1.0000
  C   C39       1.0  0.22638  0.53795  0.33686  1.0000
  H   H23       1.0  0.20875  0.56512  0.33440  1.0000
  N   N14       1.0  0.28995  0.58308  0.33159  1.0000
  O   O11       1.0  0.27970  0.60237  0.26125  1.0000
  O   O12       1.0  0.28004  0.60552  0.39787  1.0000
  C   C40       1.0  0.34196  0.50838  0.33784  1.0000
  H   H24       1.0  0.35644  0.53736  0.33582  1.0000
  C   C41       1.0  0.48519  0.98543  0.33627  1.0000
  C   C42       1.0  0.41969  0.91992  0.33649  1.0000
  C   C43       1.0  0.40867  0.96354  0.33731  1.0000
  C   C44       1.0  0.44087  0.99485  0.33735  1.0000
  N   N15       1.0  0.38898  0.88920  0.33663  1.0000
  C   C45       1.0  0.01771  0.51794  0.33620  1.0000
  C   C46       1.0  0.06203  0.50853  0.33843  1.0000
  C   C47       1.0  0.09423  0.53982  0.33793  1.0000
  C   C48       1.0  0.08321  0.58344  0.33597  1.0000
  N   N16       1.0  0.11393  0.61416  0.33582  1.0000
  H   H25       1.0  0.14394  0.60741  0.33727  1.0000
  H   H26       1.0  0.35896  0.89595  0.33718  1.0000
  H   H27       1.0  0.43061  0.52533  0.33917  1.0000
  H   H28       1.0  0.07228  0.97806  0.34099  1.0000
  N   N17       1.0  0.13613  0.52993  0.33894  1.0000
  N   N18       1.0  0.36677  0.97344  0.33806  1.0000
  C   C49       1.0  0.00522  0.79731  0.33368  1.0000
  C   C50       1.0  0.04202  0.77135  0.33617  1.0000
  C   C51       1.0  0.03772  0.72661  0.33523  1.0000
  H   H29       1.0  0.06491  0.70898  0.33741  1.0000
  N   N19       1.0  0.08286  0.79017  0.34016  1.0000
  O   O13       1.0  0.10515  0.78029  0.27365  1.0000
  O   O14       1.0  0.10231  0.77990  0.41029  1.0000
  C   C52       1.0  0.00815  0.84219  0.33468  1.0000
  H   H30       1.0  0.03714  0.85666  0.33646  1.0000
  C   C53       1.0  0.20584  0.49796  0.34058  1.0000
  C   C54       1.0  0.23180  0.46116  0.34361  1.0000
  C   C55       1.0  0.27653  0.46546  0.34264  1.0000
  H   H31       1.0  0.29417  0.43828  0.34511  1.0000
  N   N20       1.0  0.21297  0.42033  0.34786  1.0000
  O   O15       1.0  0.22322  0.40100  0.41815  1.0000
  O   O16       1.0  0.22288  0.39792  0.28153  1.0000
  C   C56       1.0  0.16095  0.49501  0.34103  1.0000
  H   H32       1.0  0.14648  0.46603  0.34296  1.0000
  C   C57       1.0  0.99462  0.44110  0.33523  1.0000
  C   C58       1.0  0.96332  0.40890  0.33547  1.0000
  H   H33       1.0  0.52510  0.43084  0.33329  1.0000
  C   C59       1.0  0.53959  0.09446  0.33420  1.0000
  C   C60       1.0  0.50830  0.06226  0.33391  1.0000
  H   H34       1.0  0.97782  0.07251  0.33147  1.0000
  H   H35       1.0  0.60719  0.14417  0.33420  1.0000
  H   H36       1.0  0.89573  0.35919  0.33627  1.0000
  N   N21       1.0  0.52970  0.13636  0.33323  1.0000
  N   N22       1.0  0.97322  0.36700  0.33468  1.0000
  C   C61       1.0  0.49772  0.20607  0.33184  1.0000
  C   C62       1.0  0.46092  0.23203  0.32919  1.0000
  C   C63       1.0  0.46522  0.27676  0.33019  1.0000
  H   H37       1.0  0.43804  0.29439  0.32800  1.0000
  N   N23       1.0  0.42008  0.21320  0.32531  1.0000
  O   O17       1.0  0.40060  0.22347  0.25522  1.0000
  O   O18       1.0  0.39782  0.22308  0.39187  1.0000
  C   C64       1.0  0.49478  0.16118  0.33137  1.0000
  H   H38       1.0  0.46580  0.14671  0.32968  1.0000
  C   C65       1.0  0.79708  0.00545  0.33881  1.0000
  C   C66       1.0  0.77112  0.04225  0.33595  1.0000
  C   C67       1.0  0.72638  0.03795  0.33686  1.0000
  H   H39       1.0  0.70875  0.06512  0.33440  1.0000
  N   N24       1.0  0.78995  0.08308  0.33159  1.0000
  O   O19       1.0  0.77969  0.10237  0.26125  1.0000
  O   O20       1.0  0.78004  0.10551  0.39787  1.0000
  C   C68       1.0  0.84196  0.00838  0.33784  1.0000
  H   H40       1.0  0.85643  0.03736  0.33582  1.0000
  C   C69       1.0  0.98520  0.48543  0.33627  1.0000
  C   C70       1.0  0.91970  0.41992  0.33649  1.0000
  C   C71       1.0  0.90867  0.46355  0.33731  1.0000
  C   C72       1.0  0.94087  0.49485  0.33735  1.0000
  N   N25       1.0  0.88897  0.38920  0.33663  1.0000
  C   C73       1.0  0.51771  0.01794  0.33620  1.0000
  C   C74       1.0  0.56203  0.00853  0.33843  1.0000
  C   C75       1.0  0.59423  0.03982  0.33793  1.0000
  C   C76       1.0  0.58322  0.08344  0.33597  1.0000
  N   N26       1.0  0.61393  0.11416  0.33582  1.0000
  H   H41       1.0  0.64394  0.10741  0.33727  1.0000
  H   H42       1.0  0.85896  0.39596  0.33718  1.0000
  H   H43       1.0  0.93061  0.02533  0.33917  1.0000
  H   H44       1.0  0.57228  0.47806  0.34099  1.0000
  N   N27       1.0  0.63613  0.02993  0.33894  1.0000
  N   N28       1.0  0.86677  0.47344  0.33806  1.0000
  C   C77       1.0  0.50522  0.29731  0.33368  1.0000
  C   C78       1.0  0.54202  0.27135  0.33617  1.0000
  C   C79       1.0  0.53773  0.22661  0.33523  1.0000
  H   H45       1.0  0.56490  0.20898  0.33741  1.0000
  N   N29       1.0  0.58286  0.29017  0.34016  1.0000
  O   O21       1.0  0.60515  0.28029  0.27365  1.0000
  O   O22       1.0  0.60231  0.27990  0.41029  1.0000
  C   C80       1.0  0.50815  0.34219  0.33468  1.0000
  H   H46       1.0  0.53714  0.35666  0.33646  1.0000
  C   C81       1.0  0.70584  0.99795  0.34058  1.0000
  C   C82       1.0  0.73179  0.96116  0.34361  1.0000
  C   C83       1.0  0.77654  0.96546  0.34264  1.0000
  H   H47       1.0  0.79417  0.93828  0.34511  1.0000
  N   N30       1.0  0.71297  0.92033  0.34786  1.0000
  O   O23       1.0  0.72322  0.90100  0.41815  1.0000
  O   O24       1.0  0.72288  0.89792  0.28153  1.0000
  C   C84       1.0  0.66095  0.99501  0.34103  1.0000
  H   H48       1.0  0.64648  0.96603  0.34296  1.0000
  C   C85       1.0  0.99462  0.94110  0.33523  1.0000
  C   C86       1.0  0.96332  0.90890  0.33547  1.0000
  H   H49       1.0  0.52510  0.93084  0.33329  1.0000
  C   C87       1.0  0.53959  0.59446  0.33420  1.0000
  C   C88       1.0  0.50830  0.56226  0.33391  1.0000
  H   H50       1.0  0.97782  0.57251  0.33147  1.0000
  H   H51       1.0  0.60719  0.64416  0.33420  1.0000
  H   H52       1.0  0.89573  0.85919  0.33627  1.0000
  N   N31       1.0  0.52970  0.63636  0.33323  1.0000
  N   N32       1.0  0.97322  0.86700  0.33468  1.0000
  C   C89       1.0  0.49772  0.70607  0.33184  1.0000
  C   C90       1.0  0.46092  0.73203  0.32919  1.0000
  C   C91       1.0  0.46522  0.77677  0.33019  1.0000
  H   H53       1.0  0.43804  0.79439  0.32800  1.0000
  N   N33       1.0  0.42008  0.71320  0.32531  1.0000
  O   O25       1.0  0.40060  0.72347  0.25522  1.0000
  O   O26       1.0  0.39782  0.72308  0.39187  1.0000
  C   C92       1.0  0.49478  0.66118  0.33137  1.0000
  H   H54       1.0  0.46580  0.64671  0.32968  1.0000
  C   C93       1.0  0.79708  0.50545  0.33881  1.0000
  C   C94       1.0  0.77112  0.54225  0.33595  1.0000
  C   C95       1.0  0.72638  0.53795  0.33686  1.0000
  H   H55       1.0  0.70875  0.56512  0.33440  1.0000
  N   N34       1.0  0.78995  0.58308  0.33159  1.0000
  O   O27       1.0  0.77969  0.60237  0.26125  1.0000
  O   O28       1.0  0.78004  0.60552  0.39787  1.0000
  C   C96       1.0  0.84196  0.50838  0.33784  1.0000
  H   H56       1.0  0.85643  0.53736  0.33582  1.0000
  C   C97       1.0  0.98520  0.98543  0.33627  1.0000
  C   C98       1.0  0.91970  0.91992  0.33649  1.0000
  C   C99       1.0  0.90867  0.96354  0.33731  1.0000
  C   C100      1.0  0.94087  0.99485  0.33735  1.0000
  N   N35       1.0  0.88897  0.88920  0.33663  1.0000
  C   C101      1.0  0.51771  0.51794  0.33620  1.0000
  C   C102      1.0  0.56203  0.50853  0.33843  1.0000
  C   C103      1.0  0.59423  0.53982  0.33793  1.0000
  C   C104      1.0  0.58322  0.58344  0.33597  1.0000
  N   N36       1.0  0.61393  0.61416  0.33582  1.0000
  H   H57       1.0  0.64394  0.60741  0.33727  1.0000
  H   H58       1.0  0.85896  0.89595  0.33718  1.0000
  H   H59       1.0  0.93061  0.52533  0.33917  1.0000
  H   H60       1.0  0.57228  0.97806  0.34099  1.0000
  N   N37       1.0  0.63613  0.52993  0.33894  1.0000
  N   N38       1.0  0.86677  0.97344  0.33806  1.0000
  C   C105      1.0  0.50522  0.79731  0.33368  1.0000
  C   C106      1.0  0.54202  0.77135  0.33617  1.0000
  C   C107      1.0  0.53773  0.72661  0.33523  1.0000
  H   H61       1.0  0.56490  0.70898  0.33741  1.0000
  N   N39       1.0  0.58286  0.79017  0.34016  1.0000
  O   O29       1.0  0.60515  0.78029  0.27365  1.0000
  O   O30       1.0  0.60231  0.77990  0.41029  1.0000
  C   C108      1.0  0.50815  0.84219  0.33468  1.0000
  H   H62       1.0  0.53714  0.85666  0.33646  1.0000
  C   C109      1.0  0.70584  0.49796  0.34058  1.0000
  C   C110      1.0  0.73179  0.46116  0.34361  1.0000
  C   C111      1.0  0.77654  0.46546  0.34264  1.0000
  H   H63       1.0  0.79417  0.43828  0.34511  1.0000
  N   N40       1.0  0.71297  0.42033  0.34786  1.0000
  O   O31       1.0  0.72322  0.40100  0.41815  1.0000
  O   O32       1.0  0.72288  0.39792  0.28153  1.0000
  C   C112      1.0  0.66095  0.49501  0.34103  1.0000
  H   H64       1.0  0.64648  0.46603  0.34296  1.0000
