data_image0
_chemical_formula_structural       C2HC3H2C2O2C4HC5HO2NHC4HC5HO2NHC4H2C3HC2O2CNC2HNHNHCNC2HNHNHC2HC3H2C2O2C4HC5HO2NHC4HC5HO2NHC4H2C3HC2O2CNC2HNHNHCNC2HNHNHC2HC3H2C2O2C4HC5HO2NHC4HC5HO2NHC4H2C3HC2O2CNC2HNHNHCNC2HNHNHC2HC3H2C2O2C4HC5HO2NHC4HC5HO2NHC4H2C3HC2O2CNC2HNHNHCNC2HNHNH
_chemical_formula_sum              "C160 H72 O32 N32"
_cell_length_a       38.7294
_cell_length_b       38.7294
_cell_length_c       14.9921
_cell_angle_alpha    90
_cell_angle_beta     90
_cell_angle_gamma    90

_space_group_name_H-M_alt    "P 1"
_space_group_IT_number       1

loop_
  _space_group_symop_operation_xyz
  'x, y, z'

loop_
  _atom_site_type_symbol
  _atom_site_label
  _atom_site_symmetry_multiplicity
  _atom_site_fract_x
  _atom_site_fract_y
  _atom_site_fract_z
  _atom_site_occupancy
  C   C1        1.0  0.06839  0.47675  0.24266  1.0000
  C   C2        1.0  0.04552  0.49895  0.28887  1.0000
  H   H1        1.0  0.05367  0.02371  0.29626  1.0000
  C   C3        1.0  0.45206  0.00507  0.36999  1.0000
  C   C4        1.0  0.42848  0.02676  0.41580  1.0000
  C   C5        1.0  0.44176  0.05767  0.45241  1.0000
  H   H2        1.0  0.44238  0.48269  0.34499  1.0000
  H   H3        1.0  0.42496  0.07450  0.48198  1.0000
  C   C6        1.0  0.39228  0.02022  0.42060  1.0000
  C   C7        1.0  0.10342  0.48541  0.22399  1.0000
  O   O1        1.0  0.12011  0.46531  0.16363  1.0000
  O   O2        1.0  0.37411  0.03941  0.48008  1.0000
  C   C8        1.0  0.00280  0.15927  0.37325  1.0000
  C   C9        1.0  0.99923  0.23157  0.34409  1.0000
  C   C10       1.0  0.00548  0.20938  0.27048  1.0000
  C   C11       1.0  0.00803  0.17353  0.28707  1.0000
  H   H4        1.0  0.01149  0.15719  0.23416  1.0000
  C   C12       1.0  0.99647  0.26757  0.33114  1.0000
  C   C13       1.0  0.99845  0.31804  0.23531  1.0000
  C   C14       1.0  0.99990  0.28175  0.24432  1.0000
  C   C15       1.0  0.00545  0.25950  0.17082  1.0000
  C   C16       1.0  0.00837  0.22360  0.18387  1.0000
  H   H5        1.0  0.99966  0.32835  0.17277  1.0000
  O   O3        1.0  0.00883  0.27218  0.08703  1.0000
  O   O4        1.0  0.01401  0.20317  0.11195  1.0000
  N   N1        1.0  0.00143  0.12401  0.38221  1.0000
  H   H6        1.0  0.00933  0.11095  0.33049  1.0000
  C   C17       1.0  0.33909  0.00070  0.34591  1.0000
  C   C18       1.0  0.26682  0.00323  0.31585  1.0000
  C   C19       1.0  0.28916  0.99693  0.24260  1.0000
  C   C20       1.0  0.32507  0.99514  0.25955  1.0000
  H   H7        1.0  0.34157  0.99186  0.20690  1.0000
  C   C21       1.0  0.23086  0.00597  0.30270  1.0000
  C   C22       1.0  0.18025  0.00336  0.20741  1.0000
  C   C23       1.0  0.21660  0.00184  0.21620  1.0000
  C   C24       1.0  0.23892  0.99574  0.14310  1.0000
  C   C25       1.0  0.27490  0.99336  0.15618  1.0000
  H   H8        1.0  0.16983  0.00140  0.14514  1.0000
  O   O5        1.0  0.22624  0.99171  0.05951  1.0000
  O   O6        1.0  0.29540  0.98747  0.08453  1.0000
  N   N2        1.0  0.37431  0.00272  0.35601  1.0000
  H   H9        1.0  0.38780  0.99550  0.30451  1.0000
  C   C26       1.0  0.01162  0.48919  0.31654  1.0000
  C   C27       1.0  0.00354  0.45359  0.30327  1.0000
  C   C28       1.0  0.02500  0.43019  0.25623  1.0000
  C   C29       1.0  0.05596  0.44360  0.22024  1.0000
  H   H10       1.0  0.48111  0.44392  0.32798  1.0000
  H   H11       1.0  0.07249  0.42699  0.18892  1.0000
  C   C30       1.0  0.48776  0.01298  0.35781  1.0000
  C   C31       1.0  0.47496  0.06996  0.43000  1.0000
  C   C32       1.0  0.49741  0.04689  0.38528  1.0000
  H   H12       1.0  0.02214  0.05514  0.37785  1.0000
  C   C33       1.0  0.48324  0.10537  0.44424  1.0000
  C   C34       1.0  0.01787  0.39421  0.24760  1.0000
  O   O7        1.0  0.46351  0.12273  0.50412  1.0000
  O   O8        1.0  0.03770  0.37641  0.18871  1.0000
  C   C35       1.0  0.99789  0.18333  0.44332  1.0000
  N   N3        1.0  0.99632  0.21770  0.42691  1.0000
  C   C36       1.0  0.98889  0.32393  0.39300  1.0000
  C   C37       1.0  0.99495  0.34029  0.30994  1.0000
  H   H13       1.0  0.99632  0.17564  0.50817  1.0000
  N   N4        1.0  0.99064  0.28910  0.40105  1.0000
  H   H14       1.0  0.98596  0.33813  0.44997  1.0000
  N   N5        1.0  0.99828  0.37559  0.30674  1.0000
  H   H15       1.0  0.99088  0.38796  0.35992  1.0000
  C   C38       1.0  0.31476  0.00488  0.41571  1.0000
  N   N6        1.0  0.28046  0.00621  0.39883  1.0000
  C   C39       1.0  0.17474  0.01498  0.36435  1.0000
  C   C40       1.0  0.15815  0.00832  0.28186  1.0000
  H   H16       1.0  0.32215  0.00623  0.48080  1.0000
  N   N7        1.0  0.20950  0.01275  0.37233  1.0000
  H   H17       1.0  0.16071  0.01876  0.42125  1.0000
  N   N8        1.0  0.12278  0.00562  0.28012  1.0000
  H   H18       1.0  0.11091  0.01381  0.33339  1.0000
  C   C41       1.0  0.06839  0.97675  0.24266  1.0000
  C   C42       1.0  0.04552  0.99895  0.28887  1.0000
  H   H19       1.0  0.05367  0.52371  0.29626  1.0000
  C   C43       1.0  0.45206  0.50507  0.36999  1.0000
  C   C44       1.0  0.42848  0.52676  0.41580  1.0000
  C   C45       1.0  0.44176  0.55767  0.45241  1.0000
  H   H20       1.0  0.44238  0.98269  0.34499  1.0000
  H   H21       1.0  0.42496  0.57450  0.48198  1.0000
  C   C46       1.0  0.39228  0.52022  0.42060  1.0000
  C   C47       1.0  0.10342  0.98541  0.22399  1.0000
  O   O9        1.0  0.12011  0.96532  0.16363  1.0000
  O   O10       1.0  0.37411  0.53941  0.48008  1.0000
  C   C48       1.0  0.00280  0.65927  0.37325  1.0000
  C   C49       1.0  0.99923  0.73157  0.34409  1.0000
  C   C50       1.0  0.00548  0.70938  0.27048  1.0000
  C   C51       1.0  0.00803  0.67353  0.28707  1.0000
  H   H22       1.0  0.01149  0.65719  0.23416  1.0000
  C   C52       1.0  0.99647  0.76757  0.33114  1.0000
  C   C53       1.0  0.99845  0.81804  0.23531  1.0000
  C   C54       1.0  0.99990  0.78175  0.24432  1.0000
  C   C55       1.0  0.00545  0.75950  0.17082  1.0000
  C   C56       1.0  0.00837  0.72360  0.18387  1.0000
  H   H23       1.0  0.99966  0.82835  0.17277  1.0000
  O   O11       1.0  0.00883  0.77219  0.08703  1.0000
  O   O12       1.0  0.01401  0.70317  0.11195  1.0000
  N   N9        1.0  0.00143  0.62401  0.38221  1.0000
  H   H24       1.0  0.00933  0.61095  0.33049  1.0000
  C   C57       1.0  0.33909  0.50070  0.34591  1.0000
  C   C58       1.0  0.26682  0.50323  0.31585  1.0000
  C   C59       1.0  0.28916  0.49693  0.24260  1.0000
  C   C60       1.0  0.32507  0.49514  0.25955  1.0000
  H   H25       1.0  0.34157  0.49186  0.20690  1.0000
  C   C61       1.0  0.23086  0.50597  0.30270  1.0000
  C   C62       1.0  0.18025  0.50336  0.20741  1.0000
  C   C63       1.0  0.21660  0.50184  0.21620  1.0000
  C   C64       1.0  0.23892  0.49574  0.14310  1.0000
  C   C65       1.0  0.27490  0.49336  0.15618  1.0000
  H   H26       1.0  0.16983  0.50140  0.14514  1.0000
  O   O13       1.0  0.22624  0.49171  0.05951  1.0000
  O   O14       1.0  0.29540  0.48746  0.08453  1.0000
  N   N10       1.0  0.37431  0.50272  0.35601  1.0000
  H   H27       1.0  0.38780  0.49550  0.30451  1.0000
  C   C66       1.0  0.01162  0.98919  0.31654  1.0000
  C   C67       1.0  0.00354  0.95359  0.30327  1.0000
  C   C68       1.0  0.02500  0.93019  0.25623  1.0000
  C   C69       1.0  0.05596  0.94360  0.22024  1.0000
  H   H28       1.0  0.48111  0.94392  0.32798  1.0000
  H   H29       1.0  0.07249  0.92699  0.18892  1.0000
  C   C70       1.0  0.48776  0.51298  0.35781  1.0000
  C   C71       1.0  0.47496  0.56996  0.43000  1.0000
  C   C72       1.0  0.49741  0.54689  0.38528  1.0000
  H   H30       1.0  0.02214  0.55514  0.37785  1.0000
  C   C73       1.0  0.48324  0.60538  0.44424  1.0000
  C   C74       1.0  0.01787  0.89421  0.24760  1.0000
  O   O15       1.0  0.46351  0.62273  0.50412  1.0000
  O   O16       1.0  0.03770  0.87641  0.18871  1.0000
  C   C75       1.0  0.99789  0.68333  0.44332  1.0000
  N   N11       1.0  0.99632  0.71770  0.42691  1.0000
  C   C76       1.0  0.98889  0.82393  0.39300  1.0000
  C   C77       1.0  0.99495  0.84029  0.30994  1.0000
  H   H31       1.0  0.99632  0.67564  0.50817  1.0000
  N   N12       1.0  0.99064  0.78910  0.40105  1.0000
  H   H32       1.0  0.98596  0.83813  0.44997  1.0000
  N   N13       1.0  0.99828  0.87559  0.30674  1.0000
  H   H33       1.0  0.99088  0.88797  0.35992  1.0000
  C   C78       1.0  0.31476  0.50488  0.41571  1.0000
  N   N14       1.0  0.28046  0.50621  0.39883  1.0000
  C   C79       1.0  0.17474  0.51498  0.36435  1.0000
  C   C80       1.0  0.15815  0.50832  0.28186  1.0000
  H   H34       1.0  0.32215  0.50623  0.48080  1.0000
  N   N15       1.0  0.20950  0.51275  0.37233  1.0000
  H   H35       1.0  0.16071  0.51876  0.42125  1.0000
  N   N16       1.0  0.12278  0.50562  0.28012  1.0000
  H   H36       1.0  0.11091  0.51381  0.33339  1.0000
  C   C81       1.0  0.56839  0.47675  0.24266  1.0000
  C   C82       1.0  0.54552  0.49895  0.28887  1.0000
  H   H37       1.0  0.55367  0.02371  0.29626  1.0000
  C   C83       1.0  0.95206  0.00507  0.36999  1.0000
  C   C84       1.0  0.92848  0.02676  0.41580  1.0000
  C   C85       1.0  0.94176  0.05767  0.45241  1.0000
  H   H38       1.0  0.94238  0.48269  0.34499  1.0000
  H   H39       1.0  0.92496  0.07450  0.48198  1.0000
  C   C86       1.0  0.89228  0.02022  0.42060  1.0000
  C   C87       1.0  0.60342  0.48541  0.22399  1.0000
  O   O17       1.0  0.62011  0.46531  0.16363  1.0000
  O   O18       1.0  0.87411  0.03941  0.48008  1.0000
  C   C88       1.0  0.50280  0.15927  0.37325  1.0000
  C   C89       1.0  0.49923  0.23157  0.34409  1.0000
  C   C90       1.0  0.50548  0.20938  0.27048  1.0000
  C   C91       1.0  0.50803  0.17353  0.28707  1.0000
  H   H40       1.0  0.51150  0.15719  0.23416  1.0000
  C   C92       1.0  0.49648  0.26757  0.33114  1.0000
  C   C93       1.0  0.49845  0.31804  0.23531  1.0000
  C   C94       1.0  0.49990  0.28175  0.24432  1.0000
  C   C95       1.0  0.50545  0.25950  0.17082  1.0000
  C   C96       1.0  0.50837  0.22360  0.18387  1.0000
  H   H41       1.0  0.49966  0.32835  0.17277  1.0000
  O   O19       1.0  0.50883  0.27218  0.08703  1.0000
  O   O20       1.0  0.51401  0.20317  0.11195  1.0000
  N   N17       1.0  0.50143  0.12401  0.38221  1.0000
  H   H42       1.0  0.50934  0.11095  0.33049  1.0000
  C   C97       1.0  0.83909  0.00070  0.34591  1.0000
  C   C98       1.0  0.76683  0.00323  0.31585  1.0000
  C   C99       1.0  0.78916  0.99693  0.24260  1.0000
  C   C100      1.0  0.82507  0.99514  0.25955  1.0000
  H   H43       1.0  0.84157  0.99186  0.20690  1.0000
  C   C101      1.0  0.73086  0.00597  0.30270  1.0000
  C   C102      1.0  0.68025  0.00336  0.20741  1.0000
  C   C103      1.0  0.71659  0.00184  0.21620  1.0000
  C   C104      1.0  0.73892  0.99574  0.14310  1.0000
  C   C105      1.0  0.77490  0.99336  0.15618  1.0000
  H   H44       1.0  0.66983  0.00140  0.14514  1.0000
  O   O21       1.0  0.72624  0.99171  0.05951  1.0000
  O   O22       1.0  0.79539  0.98747  0.08453  1.0000
  N   N18       1.0  0.87431  0.00272  0.35601  1.0000
  H   H45       1.0  0.88780  0.99550  0.30451  1.0000
  C   C106      1.0  0.51163  0.48919  0.31654  1.0000
  C   C107      1.0  0.50354  0.45359  0.30327  1.0000
  C   C108      1.0  0.52500  0.43019  0.25623  1.0000
  C   C109      1.0  0.55596  0.44360  0.22024  1.0000
  H   H46       1.0  0.98111  0.44392  0.32798  1.0000
  H   H47       1.0  0.57249  0.42699  0.18892  1.0000
  C   C110      1.0  0.98776  0.01298  0.35781  1.0000
  C   C111      1.0  0.97496  0.06996  0.43000  1.0000
  C   C112      1.0  0.99741  0.04689  0.38528  1.0000
  H   H48       1.0  0.52214  0.05514  0.37785  1.0000
  C   C113      1.0  0.98324  0.10537  0.44424  1.0000
  C   C114      1.0  0.51787  0.39421  0.24760  1.0000
  O   O23       1.0  0.96351  0.12273  0.50412  1.0000
  O   O24       1.0  0.53770  0.37641  0.18871  1.0000
  C   C115      1.0  0.49789  0.18333  0.44332  1.0000
  N   N19       1.0  0.49632  0.21770  0.42691  1.0000
  C   C116      1.0  0.48888  0.32393  0.39300  1.0000
  C   C117      1.0  0.49495  0.34029  0.30994  1.0000
  H   H49       1.0  0.49632  0.17564  0.50817  1.0000
  N   N20       1.0  0.49064  0.28910  0.40105  1.0000
  H   H50       1.0  0.48596  0.33813  0.44997  1.0000
  N   N21       1.0  0.49828  0.37559  0.30674  1.0000
  H   H51       1.0  0.49088  0.38796  0.35992  1.0000
  C   C118      1.0  0.81476  0.00488  0.41571  1.0000
  N   N22       1.0  0.78046  0.00621  0.39883  1.0000
  C   C119      1.0  0.67474  0.01498  0.36435  1.0000
  C   C120      1.0  0.65815  0.00832  0.28186  1.0000
  H   H52       1.0  0.82215  0.00623  0.48080  1.0000
  N   N23       1.0  0.70950  0.01275  0.37233  1.0000
  H   H53       1.0  0.66071  0.01876  0.42125  1.0000
  N   N24       1.0  0.62278  0.00562  0.28012  1.0000
  H   H54       1.0  0.61091  0.01381  0.33339  1.0000
  C   C121      1.0  0.56839  0.97675  0.24266  1.0000
  C   C122      1.0  0.54552  0.99895  0.28887  1.0000
  H   H55       1.0  0.55367  0.52371  0.29626  1.0000
  C   C123      1.0  0.95206  0.50507  0.36999  1.0000
  C   C124      1.0  0.92848  0.52676  0.41580  1.0000
  C   C125      1.0  0.94176  0.55767  0.45241  1.0000
  H   H56       1.0  0.94238  0.98269  0.34499  1.0000
  H   H57       1.0  0.92496  0.57450  0.48198  1.0000
  C   C126      1.0  0.89228  0.52022  0.42060  1.0000
  C   C127      1.0  0.60342  0.98541  0.22399  1.0000
  O   O25       1.0  0.62011  0.96532  0.16363  1.0000
  O   O26       1.0  0.87411  0.53941  0.48008  1.0000
  C   C128      1.0  0.50280  0.65927  0.37325  1.0000
  C   C129      1.0  0.49923  0.73157  0.34409  1.0000
  C   C130      1.0  0.50548  0.70938  0.27048  1.0000
  C   C131      1.0  0.50803  0.67353  0.28707  1.0000
  H   H58       1.0  0.51150  0.65719  0.23416  1.0000
  C   C132      1.0  0.49648  0.76757  0.33114  1.0000
  C   C133      1.0  0.49845  0.81804  0.23531  1.0000
  C   C134      1.0  0.49990  0.78175  0.24432  1.0000
  C   C135      1.0  0.50545  0.75950  0.17082  1.0000
  C   C136      1.0  0.50837  0.72360  0.18387  1.0000
  H   H59       1.0  0.49966  0.82835  0.17277  1.0000
  O   O27       1.0  0.50883  0.77219  0.08703  1.0000
  O   O28       1.0  0.51401  0.70317  0.11195  1.0000
  N   N25       1.0  0.50143  0.62401  0.38221  1.0000
  H   H60       1.0  0.50934  0.61095  0.33049  1.0000
  C   C137      1.0  0.83909  0.50070  0.34591  1.0000
  C   C138      1.0  0.76683  0.50323  0.31585  1.0000
  C   C139      1.0  0.78916  0.49693  0.24260  1.0000
  C   C140      1.0  0.82507  0.49514  0.25955  1.0000
  H   H61       1.0  0.84157  0.49186  0.20690  1.0000
  C   C141      1.0  0.73086  0.50597  0.30270  1.0000
  C   C142      1.0  0.68025  0.50336  0.20741  1.0000
  C   C143      1.0  0.71659  0.50184  0.21620  1.0000
  C   C144      1.0  0.73892  0.49574  0.14310  1.0000
  C   C145      1.0  0.77490  0.49336  0.15618  1.0000
  H   H62       1.0  0.66983  0.50140  0.14514  1.0000
  O   O29       1.0  0.72624  0.49171  0.05951  1.0000
  O   O30       1.0  0.79539  0.48746  0.08453  1.0000
  N   N26       1.0  0.87431  0.50272  0.35601  1.0000
  H   H63       1.0  0.88780  0.49550  0.30451  1.0000
  C   C146      1.0  0.51163  0.98919  0.31654  1.0000
  C   C147      1.0  0.50354  0.95359  0.30327  1.0000
  C   C148      1.0  0.52500  0.93019  0.25623  1.0000
  C   C149      1.0  0.55596  0.94360  0.22024  1.0000
  H   H64       1.0  0.98111  0.94392  0.32798  1.0000
  H   H65       1.0  0.57249  0.92699  0.18892  1.0000
  C   C150      1.0  0.98776  0.51298  0.35781  1.0000
  C   C151      1.0  0.97496  0.56996  0.43000  1.0000
  C   C152      1.0  0.99741  0.54689  0.38528  1.0000
  H   H66       1.0  0.52214  0.55514  0.37785  1.0000
  C   C153      1.0  0.98324  0.60538  0.44424  1.0000
  C   C154      1.0  0.51787  0.89421  0.24760  1.0000
  O   O31       1.0  0.96351  0.62273  0.50412  1.0000
  O   O32       1.0  0.53770  0.87641  0.18871  1.0000
  C   C155      1.0  0.49789  0.68333  0.44332  1.0000
  N   N27       1.0  0.49632  0.71770  0.42691  1.0000
  C   C156      1.0  0.48888  0.82393  0.39300  1.0000
  C   C157      1.0  0.49495  0.84029  0.30994  1.0000
  H   H67       1.0  0.49632  0.67564  0.50817  1.0000
  N   N28       1.0  0.49064  0.78910  0.40105  1.0000
  H   H68       1.0  0.48596  0.83813  0.44997  1.0000
  N   N29       1.0  0.49828  0.87559  0.30674  1.0000
  H   H69       1.0  0.49088  0.88797  0.35992  1.0000
  C   C158      1.0  0.81476  0.50488  0.41571  1.0000
  N   N30       1.0  0.78046  0.50621  0.39883  1.0000
  C   C159      1.0  0.67474  0.51498  0.36435  1.0000
  C   C160      1.0  0.65815  0.50832  0.28186  1.0000
  H   H70       1.0  0.82215  0.50623  0.48080  1.0000
  N   N31       1.0  0.70950  0.51275  0.37233  1.0000
  H   H71       1.0  0.66071  0.51876  0.42125  1.0000
  N   N32       1.0  0.62278  0.50562  0.28012  1.0000
  H   H72       1.0  0.61091  0.51381  0.33339  1.0000
