data_image0
_chemical_formula_structural       C4HCH3C4HCH3C4HCH3C2H2C2H2C2H2C2H2C2H2C2H2NC18H12NC18H12NC18H12NC18H12NC18H12NC18H12C2H2C2H2C2H2C4HCH3C4HCH3C4HCH3C4HCH3C4HCH3C4HCH3
_chemical_formula_sum              "C171 H126 N6"
_cell_length_a       52.5453
_cell_length_b       52.5453
_cell_length_c       14.8806
_cell_angle_alpha    90
_cell_angle_beta     90
_cell_angle_gamma    120

_space_group_name_H-M_alt    "P 1"
_space_group_IT_number       1

loop_
  _space_group_symop_operation_xyz
  'x, y, z'

loop_
  _atom_site_type_symbol
  _atom_site_label
  _atom_site_symmetry_multiplicity
  _atom_site_fract_x
  _atom_site_fract_y
  _atom_site_fract_z
  _atom_site_occupancy
  C   C1        1.0  0.97383  0.48655  0.33288  1.0000
  C   C2        1.0  0.98931  0.50901  0.26879  1.0000
  C   C3        1.0  0.02051  0.52555  0.26561  1.0000
  C   C4        1.0  0.03725  0.51918  0.32801  1.0000
  H   H1        1.0  0.97747  0.51397  0.22464  1.0000
  C   C5        1.0  0.03470  0.55012  0.19968  1.0000
  H   H2        1.0  0.01891  0.55447  0.16534  1.0000
  H   H3        1.0  0.04615  0.54491  0.14826  1.0000
  H   H4        1.0  0.05040  0.57031  0.23395  1.0000
  C   C6        1.0  0.52346  0.48944  0.33251  1.0000
  C   C7        1.0  0.50121  0.48273  0.26783  1.0000
  C   C8        1.0  0.48469  0.49740  0.26476  1.0000
  C   C9        1.0  0.49081  0.52023  0.32801  1.0000
  H   H5        1.0  0.49644  0.46613  0.22303  1.0000
  C   C10       1.0  0.46039  0.48732  0.19799  1.0000
  H   H6        1.0  0.45614  0.46729  0.16303  1.0000
  H   H7        1.0  0.46580  0.50418  0.14712  1.0000
  H   H8        1.0  0.44006  0.48270  0.23165  1.0000
  C   C11       1.0  0.52041  0.03606  0.33237  1.0000
  C   C12       1.0  0.52693  0.02050  0.26728  1.0000
  C   C13       1.0  0.51225  0.98930  0.26426  1.0000
  C   C14       1.0  0.48960  0.97261  0.32805  1.0000
  H   H9        1.0  0.54344  0.03230  0.22221  1.0000
  C   C15       1.0  0.52217  0.97507  0.19702  1.0000
  H   H10       1.0  0.54211  0.99083  0.16171  1.0000
  H   H11       1.0  0.50519  0.96364  0.14645  1.0000
  H   H12       1.0  0.52685  0.95935  0.23031  1.0000
  C   C16       1.0  0.26559  0.55420  0.26928  1.0000
  C   C17       1.0  0.29244  0.55468  0.25959  1.0000
  H   H13       1.0  0.25697  0.55842  0.21329  1.0000
  H   H14       1.0  0.30114  0.55791  0.19640  1.0000
  C   C18       1.0  0.45658  0.71380  0.27212  1.0000
  C   C19       1.0  0.45620  0.74021  0.26225  1.0000
  H   H15       1.0  0.45269  0.70111  0.21595  1.0000
  H   H16       1.0  0.45336  0.74586  0.19885  1.0000
  C   C20       1.0  0.29648  0.74446  0.27201  1.0000
  C   C21       1.0  0.27005  0.71770  0.26192  1.0000
  H   H17       1.0  0.30916  0.75332  0.21586  1.0000
  H   H18       1.0  0.26437  0.70932  0.19841  1.0000
  C   C22       1.0  0.74878  0.45524  0.26961  1.0000
  C   C23       1.0  0.72219  0.45528  0.25977  1.0000
  H   H19       1.0  0.75731  0.45088  0.21367  1.0000
  H   H20       1.0  0.71361  0.45230  0.19647  1.0000
  C   C24       1.0  0.55532  0.29586  0.26892  1.0000
  C   C25       1.0  0.55529  0.26924  0.25918  1.0000
  H   H21       1.0  0.55969  0.30873  0.21294  1.0000
  H   H22       1.0  0.55834  0.26364  0.19595  1.0000
  C   C26       1.0  0.71438  0.26126  0.26984  1.0000
  C   C27       1.0  0.74100  0.28787  0.26016  1.0000
  H   H23       1.0  0.70154  0.25274  0.21380  1.0000
  H   H24       1.0  0.74662  0.29651  0.19693  1.0000
  N   N1        1.0  0.16335  0.58171  0.33861  1.0000
  C   C28       1.0  0.18009  0.61276  0.32450  1.0000
  C   C29       1.0  0.13203  0.56600  0.33619  1.0000
  C   C30       1.0  0.18010  0.56753  0.35493  1.0000
  C   C31       1.0  0.20108  0.57769  0.42501  1.0000
  C   C32       1.0  0.22404  0.57122  0.42528  1.0000
  C   C33       1.0  0.22575  0.55257  0.35966  1.0000
  C   C34       1.0  0.20321  0.54056  0.29389  1.0000
  C   C35       1.0  0.18113  0.54831  0.29058  1.0000
  C   C36       1.0  0.18059  0.63246  0.38979  1.0000
  C   C37       1.0  0.20297  0.66219  0.38997  1.0000
  C   C38       1.0  0.22658  0.67333  0.32746  1.0000
  C   C39       1.0  0.22470  0.65357  0.25905  1.0000
  C   C40       1.0  0.20167  0.62417  0.25634  1.0000
  C   C41       1.0  0.11536  0.56425  0.41277  1.0000
  C   C42       1.0  0.08436  0.54909  0.40980  1.0000
  C   C43       1.0  0.06887  0.53477  0.33047  1.0000
  C   C44       1.0  0.08575  0.53583  0.25486  1.0000
  C   C45       1.0  0.11674  0.55158  0.25717  1.0000
  H   H25       1.0  0.20245  0.67524  0.44000  1.0000
  H   H26       1.0  0.16586  0.62487  0.44160  1.0000
  H   H27       1.0  0.20267  0.61026  0.21018  1.0000
  H   H28       1.0  0.24132  0.65954  0.21366  1.0000
  H   H29       1.0  0.20191  0.59284  0.46987  1.0000
  H   H30       1.0  0.24057  0.58178  0.47121  1.0000
  H   H31       1.0  0.12576  0.57412  0.47138  1.0000
  H   H32       1.0  0.07310  0.54876  0.46635  1.0000
  H   H33       1.0  0.07558  0.52489  0.19716  1.0000
  H   H34       1.0  0.12816  0.55239  0.20059  1.0000
  H   H35       1.0  0.16708  0.54144  0.23709  1.0000
  H   H36       1.0  0.20375  0.52745  0.24394  1.0000
  N   N2        1.0  0.42821  0.58373  0.33978  1.0000
  C   C46       1.0  0.39722  0.56951  0.32453  1.0000
  C   C47       1.0  0.44391  0.56811  0.33700  1.0000
  C   C48       1.0  0.44242  0.61464  0.35687  1.0000
  C   C49       1.0  0.43188  0.62529  0.42636  1.0000
  C   C50       1.0  0.43852  0.65478  0.42733  1.0000
  C   C51       1.0  0.45757  0.67530  0.36276  1.0000
  C   C52       1.0  0.46990  0.66492  0.29758  1.0000
  C   C53       1.0  0.46208  0.63508  0.29372  1.0000
  C   C54       1.0  0.37727  0.54989  0.38858  1.0000
  C   C55       1.0  0.34752  0.54247  0.38794  1.0000
  C   C56       1.0  0.33658  0.55525  0.32583  1.0000
  C   C57       1.0  0.35661  0.57356  0.25863  1.0000
  C   C58       1.0  0.38604  0.58002  0.25668  1.0000
  C   C59       1.0  0.44546  0.55291  0.41317  1.0000
  C   C60       1.0  0.46064  0.53710  0.40990  1.0000
  C   C61       1.0  0.47518  0.53623  0.33072  1.0000
  C   C62       1.0  0.47432  0.55232  0.25556  1.0000
  C   C63       1.0  0.45854  0.56753  0.25812  1.0000
  H   H37       1.0  0.33427  0.52853  0.43697  1.0000
  H   H38       1.0  0.38467  0.54245  0.44010  1.0000
  H   H39       1.0  0.40012  0.59522  0.21144  1.0000
  H   H40       1.0  0.35080  0.58445  0.21363  1.0000
  H   H41       1.0  0.41654  0.61087  0.47062  1.0000
  H   H42       1.0  0.42775  0.66064  0.47276  1.0000
  H   H43       1.0  0.43543  0.55323  0.47169  1.0000
  H   H44       1.0  0.46082  0.52597  0.46615  1.0000
  H   H45       1.0  0.48543  0.55332  0.19802  1.0000
  H   H46       1.0  0.45786  0.57833  0.20182  1.0000
  H   H47       1.0  0.46920  0.62805  0.24047  1.0000
  H   H48       1.0  0.48333  0.67870  0.24836  1.0000
  N   N3        1.0  0.42648  0.84650  0.34091  1.0000
  C   C64       1.0  0.44090  0.82989  0.32609  1.0000
  C   C65       1.0  0.44196  0.87782  0.33791  1.0000
  C   C66       1.0  0.39555  0.82959  0.35757  1.0000
  C   C67       1.0  0.38494  0.80837  0.42695  1.0000
  C   C68       1.0  0.35552  0.78538  0.42752  1.0000
  C   C69       1.0  0.33498  0.78386  0.36289  1.0000
  C   C70       1.0  0.34531  0.80664  0.29793  1.0000
  C   C71       1.0  0.37512  0.82875  0.29427  1.0000
  C   C72       1.0  0.46030  0.82952  0.39090  1.0000
  C   C73       1.0  0.46775  0.80722  0.39068  1.0000
  C   C74       1.0  0.45525  0.78360  0.32818  1.0000
  C   C75       1.0  0.43720  0.78540  0.26019  1.0000
  C   C76       1.0  0.43069  0.80833  0.25788  1.0000
  C   C77       1.0  0.45726  0.89467  0.41380  1.0000
  C   C78       1.0  0.47299  0.92566  0.41025  1.0000
  C   C79       1.0  0.47366  0.94098  0.33105  1.0000
  C   C80       1.0  0.45745  0.92392  0.25619  1.0000
  C   C81       1.0  0.44235  0.89294  0.25900  1.0000
  H   H49       1.0  0.48148  0.80782  0.44031  1.0000
  H   H50       1.0  0.46748  0.84425  0.44271  1.0000
  H   H51       1.0  0.41564  0.80725  0.21212  1.0000
  H   H52       1.0  0.42651  0.76875  0.21488  1.0000
  H   H53       1.0  0.39936  0.80752  0.47138  1.0000
  H   H54       1.0  0.34968  0.76875  0.47297  1.0000
  H   H55       1.0  0.45709  0.88441  0.47234  1.0000
  H   H56       1.0  0.48421  0.93704  0.46629  1.0000
  H   H57       1.0  0.45630  0.93395  0.19866  1.0000
  H   H58       1.0  0.43152  0.88140  0.20284  1.0000
  H   H59       1.0  0.38212  0.84295  0.24114  1.0000
  H   H60       1.0  0.33153  0.80626  0.24867  1.0000
  N   N4        1.0  0.84784  0.42340  0.34059  1.0000
  C   C82       1.0  0.83083  0.39249  0.32526  1.0000
  C   C83       1.0  0.87911  0.43875  0.33893  1.0000
  C   C84       1.0  0.83163  0.43809  0.35681  1.0000
  C   C85       1.0  0.81027  0.42807  0.42566  1.0000
  C   C86       1.0  0.78814  0.43572  0.42565  1.0000
  C   C87       1.0  0.78765  0.45520  0.36071  1.0000
  C   C88       1.0  0.81053  0.46687  0.29593  1.0000
  C   C89       1.0  0.83189  0.45811  0.29310  1.0000
  C   C90       1.0  0.83064  0.37263  0.38933  1.0000
  C   C91       1.0  0.80829  0.34288  0.38876  1.0000
  C   C92       1.0  0.78456  0.33194  0.32664  1.0000
  C   C93       1.0  0.78620  0.35196  0.25953  1.0000
  C   C94       1.0  0.80915  0.38138  0.25744  1.0000
  C   C95       1.0  0.89552  0.45004  0.41864  1.0000
  C   C96       1.0  0.92653  0.46538  0.41683  1.0000
  C   C97       1.0  0.94223  0.47037  0.33512  1.0000
  C   C98       1.0  0.92548  0.45899  0.25543  1.0000
  C   C99       1.0  0.89448  0.44330  0.25734  1.0000
  H   H61       1.0  0.80895  0.32963  0.43788  1.0000
  H   H62       1.0  0.84563  0.38020  0.44057  1.0000
  H   H63       1.0  0.80802  0.39551  0.21244  1.0000
  H   H64       1.0  0.76945  0.34615  0.21470  1.0000
  H   H65       1.0  0.80871  0.41251  0.47016  1.0000
  H   H66       1.0  0.77134  0.42547  0.47088  1.0000
  H   H67       1.0  0.88488  0.44708  0.47862  1.0000
  H   H68       1.0  0.93760  0.47357  0.47596  1.0000
  H   H69       1.0  0.93577  0.46167  0.19491  1.0000
  H   H70       1.0  0.88308  0.43538  0.19860  1.0000
  H   H71       1.0  0.84637  0.46482  0.24057  1.0000
  H   H72       1.0  0.81077  0.48048  0.24636  1.0000
  N   N5        1.0  0.58667  0.42665  0.33957  1.0000
  C   C100      1.0  0.61759  0.44059  0.32430  1.0000
  C   C101      1.0  0.57127  0.44252  0.33807  1.0000
  C   C102      1.0  0.57204  0.39575  0.35585  1.0000
  C   C103      1.0  0.58207  0.38444  0.42480  1.0000
  C   C104      1.0  0.57451  0.35470  0.42484  1.0000
  C   C105      1.0  0.55512  0.33469  0.35979  1.0000
  C   C106      1.0  0.54348  0.34587  0.29481  1.0000
  C   C107      1.0  0.55211  0.37595  0.29202  1.0000
  C   C108      1.0  0.63741  0.46025  0.38843  1.0000
  C   C109      1.0  0.66716  0.46763  0.38802  1.0000
  C   C110      1.0  0.67813  0.45486  0.32592  1.0000
  C   C111      1.0  0.65814  0.43652  0.25867  1.0000
  C   C112      1.0  0.62872  0.43006  0.25647  1.0000
  C   C113      1.0  0.55987  0.44748  0.41780  1.0000
  C   C114      1.0  0.54449  0.46312  0.41613  1.0000
  C   C115      1.0  0.53964  0.47402  0.33458  1.0000
  C   C116      1.0  0.55115  0.46881  0.25488  1.0000
  C   C117      1.0  0.56684  0.45351  0.25664  1.0000
  H   H73       1.0  0.68037  0.48149  0.43726  1.0000
  H   H74       1.0  0.62982  0.46760  0.43979  1.0000
  H   H75       1.0  0.61461  0.41481  0.21141  1.0000
  H   H76       1.0  0.66396  0.42559  0.21385  1.0000
  H   H77       1.0  0.59758  0.39847  0.46940  1.0000
  H   H78       1.0  0.58476  0.34819  0.47021  1.0000
  H   H79       1.0  0.56274  0.43968  0.47768  1.0000
  H   H80       1.0  0.53624  0.46589  0.47528  1.0000
  H   H81       1.0  0.54858  0.47657  0.19448  1.0000
  H   H82       1.0  0.57486  0.45016  0.19790  1.0000
  H   H83       1.0  0.54541  0.38369  0.23939  1.0000
  H   H84       1.0  0.52991  0.33247  0.24519  1.0000
  N   N6        1.0  0.58352  0.16209  0.33969  1.0000
  C   C118      1.0  0.56969  0.17916  0.32422  1.0000
  C   C119      1.0  0.56755  0.13082  0.33812  1.0000
  C   C120      1.0  0.61441  0.17826  0.35628  1.0000
  C   C121      1.0  0.62568  0.19956  0.42533  1.0000
  C   C122      1.0  0.65544  0.22172  0.42549  1.0000
  C   C123      1.0  0.67547  0.22229  0.36062  1.0000
  C   C124      1.0  0.66431  0.19946  0.29568  1.0000
  C   C125      1.0  0.63423  0.17804  0.29273  1.0000
  C   C126      1.0  0.54996  0.17935  0.38804  1.0000
  C   C127      1.0  0.54266  0.20177  0.38749  1.0000
  C   C128      1.0  0.55558  0.22554  0.32552  1.0000
  C   C129      1.0  0.57399  0.22388  0.25855  1.0000
  C   C130      1.0  0.58037  0.20087  0.25651  1.0000
  C   C131      1.0  0.56254  0.11442  0.41780  1.0000
  C   C132      1.0  0.54684  0.08341  0.41607  1.0000
  C   C133      1.0  0.53589  0.06768  0.33450  1.0000
  C   C134      1.0  0.54113  0.08443  0.25486  1.0000
  C   C135      1.0  0.55653  0.11542  0.25666  1.0000
  H   H85       1.0  0.52875  0.20114  0.43650  1.0000
  H   H86       1.0  0.54250  0.16437  0.43932  1.0000
  H   H87       1.0  0.59567  0.20199  0.21167  1.0000
  H   H88       1.0  0.58501  0.24066  0.21388  1.0000
  H   H89       1.0  0.61161  0.20109  0.46959  1.0000
  H   H90       1.0  0.66193  0.23849  0.47079  1.0000
  H   H91       1.0  0.57037  0.12507  0.47770  1.0000
  H   H92       1.0  0.54406  0.07236  0.47518  1.0000
  H   H93       1.0  0.53335  0.07413  0.19442  1.0000
  H   H94       1.0  0.55991  0.12681  0.19795  1.0000
  H   H95       1.0  0.62649  0.16361  0.24005  1.0000
  H   H96       1.0  0.67775  0.19924  0.24626  1.0000
  C   C136      1.0  0.02170  0.49683  0.39252  1.0000
  C   C137      1.0  0.99077  0.48099  0.39518  1.0000
  H   H97       1.0  0.03290  0.49159  0.43834  1.0000
  H   H98       1.0  0.98066  0.46478  0.44233  1.0000
  C   C138      1.0  0.51293  0.52677  0.39312  1.0000
  C   C139      1.0  0.52878  0.51168  0.39558  1.0000
  H   H99       1.0  0.51800  0.54301  0.43955  1.0000
  H   H100      1.0  0.54483  0.51760  0.44320  1.0000
  C   C140      1.0  0.48321  0.98822  0.39347  1.0000
  C   C141      1.0  0.49830  0.01916  0.39582  1.0000
  H   H101      1.0  0.46710  0.97707  0.44027  1.0000
  H   H102      1.0  0.49251  0.02930  0.44376  1.0000
  C   C142      1.0  0.30747  0.55170  0.33421  1.0000
  C   C143      1.0  0.29290  0.54643  0.41830  1.0000
  C   C144      1.0  0.26498  0.54416  0.42894  1.0000
  C   C145      1.0  0.25134  0.54931  0.35360  1.0000
  H   H103      1.0  0.30294  0.54454  0.47471  1.0000
  C   C146      1.0  0.25122  0.53540  0.51958  1.0000
  H   H104      1.0  0.25206  0.51617  0.54339  1.0000
  H   H105      1.0  0.22817  0.52944  0.52001  1.0000
  H   H106      1.0  0.26319  0.55339  0.56696  1.0000
  C   C147      1.0  0.45875  0.75803  0.33694  1.0000
  C   C148      1.0  0.46350  0.74851  0.42139  1.0000
  C   C149      1.0  0.46565  0.72281  0.43230  1.0000
  C   C150      1.0  0.46094  0.70420  0.35678  1.0000
  H   H107      1.0  0.46505  0.76030  0.47782  1.0000
  C   C151      1.0  0.47381  0.71753  0.52352  1.0000
  H   H108      1.0  0.49290  0.73752  0.54841  1.0000
  H   H109      1.0  0.47972  0.70041  0.52441  1.0000
  H   H110      1.0  0.45552  0.71141  0.56979  1.0000
  C   C152      1.0  0.25222  0.70234  0.33651  1.0000
  C   C153      1.0  0.26178  0.71648  0.42112  1.0000
  C   C154      1.0  0.28750  0.74430  0.43228  1.0000
  C   C155      1.0  0.30611  0.75829  0.35681  1.0000
  H   H111      1.0  0.24999  0.70616  0.47749  1.0000
  C   C156      1.0  0.29278  0.75761  0.52368  1.0000
  H   H112      1.0  0.27278  0.75663  0.54882  1.0000
  H   H113      1.0  0.30986  0.78067  0.52478  1.0000
  H   H114      1.0  0.29897  0.74542  0.56964  1.0000
  C   C157      1.0  0.70717  0.45828  0.33441  1.0000
  C   C158      1.0  0.72158  0.46322  0.41866  1.0000
  C   C159      1.0  0.74923  0.46491  0.42951  1.0000
  C   C160      1.0  0.76275  0.45957  0.35421  1.0000
  H   H115      1.0  0.71155  0.46516  0.47503  1.0000
  C   C161      1.0  0.76285  0.47317  0.52045  1.0000
  H   H116      1.0  0.76259  0.49269  0.54444  1.0000
  H   H117      1.0  0.78571  0.47846  0.52125  1.0000
  H   H118      1.0  0.75039  0.45519  0.56747  1.0000
  C   C162      1.0  0.55221  0.25120  0.33388  1.0000
  C   C163      1.0  0.54716  0.26065  0.41801  1.0000
  C   C164      1.0  0.54545  0.28660  0.42872  1.0000
  C   C165      1.0  0.55087  0.30546  0.35339  1.0000
  H   H119      1.0  0.54515  0.24866  0.47440  1.0000
  C   C166      1.0  0.53705  0.29191  0.51951  1.0000
  H   H120      1.0  0.51751  0.27213  0.54329  1.0000
  H   H121      1.0  0.53174  0.30947  0.52016  1.0000
  H   H122      1.0  0.55497  0.29744  0.56677  1.0000
  C   C167      1.0  0.75896  0.30287  0.33493  1.0000
  C   C168      1.0  0.74947  0.28840  0.41908  1.0000
  C   C169      1.0  0.72353  0.26073  0.42974  1.0000
  C   C170      1.0  0.70472  0.24723  0.35433  1.0000
  H   H123      1.0  0.76140  0.29842  0.47553  1.0000
  C   C171      1.0  0.71815  0.24706  0.52061  1.0000
  H   H124      1.0  0.73792  0.24733  0.54466  1.0000
  H   H125      1.0  0.70060  0.22418  0.52126  1.0000
  H   H126      1.0  0.71257  0.25946  0.56765  1.0000
