data_image0
_chemical_formula_structural       C6H4C4HC3NHNO2C2NC3HC5NH3N2O3C6SiC12H12CNC2H2NO3C6H4C4HC3NHNO2C2NC3HC5NH3N2O3C6SiC12H12CNC2H2NO3C6H4C4HC3NHNO2C2NC3HC5NH3N2O3C6SiC12H12CNC2H2NO3C6H4C4HC3NHNO2C2NC3HC5NH3N2O3C6SiC12H12CNC2H2NO3
_chemical_formula_sum              "C176 H96 N32 O32 Si4"
_cell_length_a       32.5976
_cell_length_b       32.598
_cell_length_c       15.011
_cell_angle_alpha    90
_cell_angle_beta     90
_cell_angle_gamma    90.0517

_space_group_name_H-M_alt    "P 1"
_space_group_IT_number       1

loop_
  _space_group_symop_operation_xyz
  'x, y, z'

loop_
  _atom_site_type_symbol
  _atom_site_label
  _atom_site_symmetry_multiplicity
  _atom_site_fract_x
  _atom_site_fract_y
  _atom_site_fract_z
  _atom_site_occupancy
  C   C1        1.0  0.09363  0.03022  0.04854  1.0000
  C   C2        1.0  0.10765  0.49142  0.07801  1.0000
  C   C3        1.0  0.08419  0.45659  0.05397  1.0000
  C   C4        1.0  0.40893  0.46512  0.04844  1.0000
  C   C5        1.0  0.39367  0.00264  0.08238  1.0000
  C   C6        1.0  0.41449  0.03911  0.05856  1.0000
  H   H1        1.0  0.10955  0.05636  0.06373  1.0000
  H   H2        1.0  0.09255  0.42796  0.07526  1.0000
  H   H3        1.0  0.39449  0.43798  0.06245  1.0000
  H   H4        1.0  0.40476  0.06688  0.08237  1.0000
  C   C7        1.0  0.50640  0.35683  0.31507  1.0000
  C   C8        1.0  0.49846  0.27392  0.26385  1.0000
  C   C9        1.0  0.47326  0.30365  0.22222  1.0000
  C   C10       1.0  0.47794  0.34518  0.24840  1.0000
  H   H5        1.0  0.95847  0.36666  0.22229  1.0000
  C   C11       1.0  0.48950  0.23164  0.26683  1.0000
  C   C12       1.0  0.48907  0.14880  0.32393  1.0000
  C   C13       1.0  0.02036  0.16501  0.26882  1.0000
  N   N1        1.0  0.02032  0.20528  0.24614  1.0000
  H   H6        1.0  0.04532  0.14785  0.25152  1.0000
  N   N2        1.0  0.44357  0.29107  0.15914  1.0000
  O   O1        1.0  0.95067  0.30696  0.08447  1.0000
  O   O2        1.0  0.40798  0.30119  0.18256  1.0000
  C   C14       1.0  0.14695  0.48703  0.11926  1.0000
  C   C15       1.0  0.16285  0.51617  0.17996  1.0000
  N   N3        1.0  0.20323  0.51594  0.20178  1.0000
  C   C16       1.0  0.23007  0.48692  0.17321  1.0000
  C   C17       1.0  0.21613  0.45604  0.11395  1.0000
  C   C18       1.0  0.17442  0.45653  0.08851  1.0000
  H   H7        1.0  0.16523  0.93619  0.04053  1.0000
  C   C19       1.0  0.27230  0.49575  0.17918  1.0000
  C   C20       1.0  0.30165  0.46849  0.21560  1.0000
  C   C21       1.0  0.34315  0.47333  0.18953  1.0000
  C   C22       1.0  0.35512  0.50378  0.12741  1.0000
  C   C23       1.0  0.32450  0.03138  0.09837  1.0000
  N   N4        1.0  0.28497  0.02544  0.12212  1.0000
  H   H8        1.0  0.36433  0.45259  0.21198  1.0000
  H   H9        1.0  0.33032  0.05291  0.05048  1.0000
  H   H10       1.0  0.14508  0.53963  0.20330  1.0000
  N   N5        1.0  0.28861  0.43656  0.27283  1.0000
  N   N6        1.0  0.24422  0.42830  0.07441  1.0000
  O   O3        1.0  0.30495  0.44007  0.34824  1.0000
  O   O4        1.0  0.23417  0.39168  0.08887  1.0000
  O   O5        1.0  0.29773  0.40188  0.24213  1.0000
  C   C24       1.0  0.50464  0.39562  0.35887  1.0000
  C   C25       1.0  0.46658  0.41143  0.38844  1.0000
  C   C26       1.0  0.46489  0.44466  0.44805  1.0000
  C   C27       1.0  0.50123  0.46238  0.48248  1.0000
  C   C28       1.0  0.03909  0.44921  0.44599  1.0000
  C   C29       1.0  0.04079  0.41598  0.38644  1.0000
  Si  Si1       1.0  0.49999  0.00097  0.55505  1.0000
  C   C30       1.0  0.49810  0.04113  0.48673  1.0000
  C   C31       1.0  0.03382  0.06173  0.45729  1.0000
  C   C32       1.0  0.03108  0.09612  0.40100  1.0000
  C   C33       1.0  0.49280  0.10990  0.36778  1.0000
  C   C34       1.0  0.45775  0.08619  0.38919  1.0000
  C   C35       1.0  0.46031  0.05249  0.44726  1.0000
  C   C36       1.0  0.46060  0.00115  0.62552  1.0000
  C   C37       1.0  0.03926  0.49835  0.62571  1.0000
  C   C38       1.0  0.05940  0.03370  0.65862  1.0000
  C   C39       1.0  0.05053  0.45999  0.66271  1.0000
  C   C40       1.0  0.44229  0.46433  0.65579  1.0000
  C   C41       1.0  0.44768  0.03834  0.66547  1.0000
  H   H11       1.0  0.05063  0.06246  0.63923  1.0000
  H   H12       1.0  0.03554  0.43355  0.64529  1.0000
  H   H13       1.0  0.45192  0.43638  0.63288  1.0000
  H   H14       1.0  0.46126  0.06571  0.64946  1.0000
  H   H15       1.0  0.43370  0.03722  0.46216  1.0000
  H   H16       1.0  0.42948  0.09405  0.36493  1.0000
  H   H17       1.0  0.05744  0.11210  0.38816  1.0000
  H   H18       1.0  0.06232  0.05298  0.47849  1.0000
  H   H19       1.0  0.06625  0.46237  0.46505  1.0000
  H   H20       1.0  0.43660  0.45449  0.46842  1.0000
  H   H21       1.0  0.43963  0.39726  0.37159  1.0000
  H   H22       1.0  0.06894  0.40582  0.36579  1.0000
  C   C42       1.0  0.53230  0.32583  0.34916  1.0000
  N   N7        1.0  0.52636  0.28633  0.32528  1.0000
  C   C43       1.0  0.45606  0.21712  0.31829  1.0000
  C   C44       1.0  0.45640  0.17563  0.34561  1.0000
  H   H23       1.0  0.43399  0.16630  0.38886  1.0000
  H   H24       1.0  0.55208  0.33144  0.40059  1.0000
  N   N8        1.0  0.42552  0.24462  0.34900  1.0000
  O   O6        1.0  0.42592  0.24788  0.43242  1.0000
  O   O7        1.0  0.39034  0.23339  0.32493  1.0000
  O   O8        1.0  0.24684  0.93366  0.65836  1.0000
  C   C45       1.0  0.09363  0.53022  0.04854  1.0000
  C   C46       1.0  0.10765  0.99142  0.07801  1.0000
  C   C47       1.0  0.08419  0.95659  0.05397  1.0000
  C   C48       1.0  0.40893  0.96512  0.04844  1.0000
  C   C49       1.0  0.39367  0.50264  0.08238  1.0000
  C   C50       1.0  0.41449  0.53911  0.05856  1.0000
  H   H25       1.0  0.10955  0.55636  0.06373  1.0000
  H   H26       1.0  0.09255  0.92796  0.07526  1.0000
  H   H27       1.0  0.39449  0.93798  0.06245  1.0000
  H   H28       1.0  0.40476  0.56688  0.08237  1.0000
  C   C51       1.0  0.50640  0.85683  0.31507  1.0000
  C   C52       1.0  0.49846  0.77392  0.26385  1.0000
  C   C53       1.0  0.47326  0.80365  0.22222  1.0000
  C   C54       1.0  0.47794  0.84518  0.24840  1.0000
  H   H29       1.0  0.95847  0.86667  0.22229  1.0000
  C   C55       1.0  0.48950  0.73164  0.26683  1.0000
  C   C56       1.0  0.48907  0.64880  0.32393  1.0000
  C   C57       1.0  0.02036  0.66502  0.26882  1.0000
  N   N9        1.0  0.02032  0.70528  0.24614  1.0000
  H   H30       1.0  0.04532  0.64785  0.25152  1.0000
  N   N10       1.0  0.44357  0.79107  0.15914  1.0000
  O   O9        1.0  0.95067  0.80696  0.08447  1.0000
  O   O10       1.0  0.40798  0.80119  0.18256  1.0000
  C   C58       1.0  0.14695  0.98703  0.11926  1.0000
  C   C59       1.0  0.16285  0.01617  0.17996  1.0000
  N   N11       1.0  0.20323  0.01594  0.20178  1.0000
  C   C60       1.0  0.23007  0.98691  0.17321  1.0000
  C   C61       1.0  0.21613  0.95604  0.11395  1.0000
  C   C62       1.0  0.17442  0.95653  0.08851  1.0000
  H   H31       1.0  0.16523  0.43618  0.04053  1.0000
  C   C63       1.0  0.27230  0.99575  0.17918  1.0000
  C   C64       1.0  0.30165  0.96850  0.21560  1.0000
  C   C65       1.0  0.34315  0.97333  0.18953  1.0000
  C   C66       1.0  0.35512  0.00377  0.12741  1.0000
  C   C67       1.0  0.32450  0.53138  0.09837  1.0000
  N   N12       1.0  0.28497  0.52544  0.12212  1.0000
  H   H32       1.0  0.36433  0.95259  0.21198  1.0000
  H   H33       1.0  0.33032  0.55291  0.05048  1.0000
  H   H34       1.0  0.14508  0.03963  0.20330  1.0000
  N   N13       1.0  0.28861  0.93656  0.27283  1.0000
  N   N14       1.0  0.24422  0.92829  0.07441  1.0000
  O   O11       1.0  0.30495  0.94007  0.34824  1.0000
  O   O12       1.0  0.23417  0.89168  0.08887  1.0000
  O   O13       1.0  0.29773  0.90189  0.24213  1.0000
  C   C68       1.0  0.50464  0.89562  0.35887  1.0000
  C   C69       1.0  0.46658  0.91143  0.38844  1.0000
  C   C70       1.0  0.46489  0.94466  0.44805  1.0000
  C   C71       1.0  0.50123  0.96238  0.48248  1.0000
  C   C72       1.0  0.03909  0.94922  0.44599  1.0000
  C   C73       1.0  0.04079  0.91599  0.38644  1.0000
  Si  Si2       1.0  0.49999  0.50097  0.55505  1.0000
  C   C74       1.0  0.49810  0.54113  0.48673  1.0000
  C   C75       1.0  0.03382  0.56174  0.45729  1.0000
  C   C76       1.0  0.03108  0.59612  0.40100  1.0000
  C   C77       1.0  0.49280  0.60990  0.36778  1.0000
  C   C78       1.0  0.45775  0.58619  0.38919  1.0000
  C   C79       1.0  0.46031  0.55249  0.44726  1.0000
  C   C80       1.0  0.46060  0.50115  0.62552  1.0000
  C   C81       1.0  0.03926  0.99835  0.62571  1.0000
  C   C82       1.0  0.05940  0.53370  0.65862  1.0000
  C   C83       1.0  0.05053  0.95999  0.66271  1.0000
  C   C84       1.0  0.44229  0.96432  0.65579  1.0000
  C   C85       1.0  0.44768  0.53834  0.66547  1.0000
  H   H35       1.0  0.05063  0.56246  0.63923  1.0000
  H   H36       1.0  0.03554  0.93355  0.64529  1.0000
  H   H37       1.0  0.45192  0.93638  0.63288  1.0000
  H   H38       1.0  0.46126  0.56571  0.64946  1.0000
  H   H39       1.0  0.43370  0.53722  0.46216  1.0000
  H   H40       1.0  0.42948  0.59405  0.36493  1.0000
  H   H41       1.0  0.05744  0.61210  0.38816  1.0000
  H   H42       1.0  0.06232  0.55298  0.47849  1.0000
  H   H43       1.0  0.06625  0.96237  0.46505  1.0000
  H   H44       1.0  0.43660  0.95449  0.46842  1.0000
  H   H45       1.0  0.43963  0.89726  0.37159  1.0000
  H   H46       1.0  0.06894  0.90582  0.36579  1.0000
  C   C86       1.0  0.53230  0.82583  0.34916  1.0000
  N   N15       1.0  0.52636  0.78633  0.32528  1.0000
  C   C87       1.0  0.45606  0.71712  0.31829  1.0000
  C   C88       1.0  0.45640  0.67563  0.34561  1.0000
  H   H47       1.0  0.43399  0.66630  0.38886  1.0000
  H   H48       1.0  0.55209  0.83144  0.40059  1.0000
  N   N16       1.0  0.42552  0.74462  0.34900  1.0000
  O   O14       1.0  0.42592  0.74788  0.43242  1.0000
  O   O15       1.0  0.39034  0.73339  0.32493  1.0000
  O   O16       1.0  0.24684  0.43366  0.65836  1.0000
  C   C89       1.0  0.59363  0.03022  0.04854  1.0000
  C   C90       1.0  0.60765  0.49142  0.07801  1.0000
  C   C91       1.0  0.58419  0.45659  0.05397  1.0000
  C   C92       1.0  0.90894  0.46512  0.04844  1.0000
  C   C93       1.0  0.89367  0.00264  0.08238  1.0000
  C   C94       1.0  0.91448  0.03911  0.05856  1.0000
  H   H49       1.0  0.60955  0.05636  0.06373  1.0000
  H   H50       1.0  0.59255  0.42796  0.07526  1.0000
  H   H51       1.0  0.89449  0.43798  0.06245  1.0000
  H   H52       1.0  0.90476  0.06688  0.08237  1.0000
  C   C95       1.0  0.00640  0.35683  0.31507  1.0000
  C   C96       1.0  0.99846  0.27392  0.26385  1.0000
  C   C97       1.0  0.97326  0.30365  0.22222  1.0000
  C   C98       1.0  0.97794  0.34518  0.24840  1.0000
  H   H53       1.0  0.45847  0.36666  0.22229  1.0000
  C   C99       1.0  0.98951  0.23164  0.26683  1.0000
  C   C100      1.0  0.98907  0.14880  0.32393  1.0000
  C   C101      1.0  0.52036  0.16501  0.26882  1.0000
  N   N17       1.0  0.52033  0.20528  0.24614  1.0000
  H   H54       1.0  0.54532  0.14785  0.25152  1.0000
  N   N18       1.0  0.94357  0.29107  0.15914  1.0000
  O   O17       1.0  0.45067  0.30696  0.08447  1.0000
  O   O18       1.0  0.90798  0.30119  0.18256  1.0000
  C   C102      1.0  0.64695  0.48703  0.11926  1.0000
  C   C103      1.0  0.66285  0.51617  0.17996  1.0000
  N   N19       1.0  0.70323  0.51594  0.20178  1.0000
  C   C104      1.0  0.73007  0.48692  0.17321  1.0000
  C   C105      1.0  0.71613  0.45604  0.11395  1.0000
  C   C106      1.0  0.67441  0.45653  0.08851  1.0000
  H   H55       1.0  0.66522  0.93619  0.04053  1.0000
  C   C107      1.0  0.77230  0.49575  0.17918  1.0000
  C   C108      1.0  0.80165  0.46849  0.21560  1.0000
  C   C109      1.0  0.84316  0.47333  0.18953  1.0000
  C   C110      1.0  0.85512  0.50378  0.12741  1.0000
  C   C111      1.0  0.82450  0.03138  0.09837  1.0000
  N   N20       1.0  0.78497  0.02544  0.12212  1.0000
  H   H56       1.0  0.86433  0.45259  0.21198  1.0000
  H   H57       1.0  0.83032  0.05291  0.05048  1.0000
  H   H58       1.0  0.64508  0.53963  0.20330  1.0000
  N   N21       1.0  0.78861  0.43656  0.27283  1.0000
  N   N22       1.0  0.74422  0.42830  0.07441  1.0000
  O   O19       1.0  0.80495  0.44007  0.34824  1.0000
  O   O20       1.0  0.73417  0.39168  0.08887  1.0000
  O   O21       1.0  0.79773  0.40188  0.24213  1.0000
  C   C112      1.0  0.00464  0.39562  0.35887  1.0000
  C   C113      1.0  0.96658  0.41143  0.38844  1.0000
  C   C114      1.0  0.96489  0.44466  0.44805  1.0000
  C   C115      1.0  0.00123  0.46238  0.48248  1.0000
  C   C116      1.0  0.53909  0.44921  0.44599  1.0000
  C   C117      1.0  0.54079  0.41598  0.38644  1.0000
  Si  Si3       1.0  0.99999  0.00097  0.55505  1.0000
  C   C118      1.0  0.99811  0.04113  0.48673  1.0000
  C   C119      1.0  0.53382  0.06173  0.45729  1.0000
  C   C120      1.0  0.53108  0.09612  0.40100  1.0000
  C   C121      1.0  0.99280  0.10990  0.36778  1.0000
  C   C122      1.0  0.95774  0.08619  0.38919  1.0000
  C   C123      1.0  0.96031  0.05249  0.44726  1.0000
  C   C124      1.0  0.96059  0.00115  0.62552  1.0000
  C   C125      1.0  0.53926  0.49835  0.62571  1.0000
  C   C126      1.0  0.55940  0.03370  0.65862  1.0000
  C   C127      1.0  0.55053  0.45999  0.66271  1.0000
  C   C128      1.0  0.94229  0.46433  0.65579  1.0000
  C   C129      1.0  0.94768  0.03834  0.66547  1.0000
  H   H59       1.0  0.55063  0.06246  0.63923  1.0000
  H   H60       1.0  0.53554  0.43355  0.64529  1.0000
  H   H61       1.0  0.95192  0.43638  0.63288  1.0000
  H   H62       1.0  0.96126  0.06571  0.64946  1.0000
  H   H63       1.0  0.93370  0.03722  0.46216  1.0000
  H   H64       1.0  0.92949  0.09405  0.36493  1.0000
  H   H65       1.0  0.55744  0.11210  0.38816  1.0000
  H   H66       1.0  0.56232  0.05298  0.47849  1.0000
  H   H67       1.0  0.56625  0.46237  0.46505  1.0000
  H   H68       1.0  0.93660  0.45449  0.46842  1.0000
  H   H69       1.0  0.93963  0.39726  0.37159  1.0000
  H   H70       1.0  0.56894  0.40582  0.36579  1.0000
  C   C130      1.0  0.03230  0.32583  0.34916  1.0000
  N   N23       1.0  0.02635  0.28633  0.32528  1.0000
  C   C131      1.0  0.95606  0.21712  0.31829  1.0000
  C   C132      1.0  0.95640  0.17563  0.34561  1.0000
  H   H71       1.0  0.93399  0.16630  0.38886  1.0000
  H   H72       1.0  0.05208  0.33144  0.40059  1.0000
  N   N24       1.0  0.92552  0.24462  0.34900  1.0000
  O   O22       1.0  0.92592  0.24788  0.43242  1.0000
  O   O23       1.0  0.89035  0.23339  0.32493  1.0000
  O   O24       1.0  0.74684  0.93366  0.65836  1.0000
  C   C133      1.0  0.59363  0.53022  0.04854  1.0000
  C   C134      1.0  0.60765  0.99142  0.07801  1.0000
  C   C135      1.0  0.58419  0.95659  0.05397  1.0000
  C   C136      1.0  0.90894  0.96512  0.04844  1.0000
  C   C137      1.0  0.89367  0.50264  0.08238  1.0000
  C   C138      1.0  0.91448  0.53911  0.05856  1.0000
  H   H73       1.0  0.60955  0.55636  0.06373  1.0000
  H   H74       1.0  0.59255  0.92796  0.07526  1.0000
  H   H75       1.0  0.89449  0.93798  0.06245  1.0000
  H   H76       1.0  0.90476  0.56688  0.08237  1.0000
  C   C139      1.0  0.00640  0.85683  0.31507  1.0000
  C   C140      1.0  0.99846  0.77392  0.26385  1.0000
  C   C141      1.0  0.97326  0.80365  0.22222  1.0000
  C   C142      1.0  0.97794  0.84518  0.24840  1.0000
  H   H77       1.0  0.45847  0.86667  0.22229  1.0000
  C   C143      1.0  0.98951  0.73164  0.26683  1.0000
  C   C144      1.0  0.98907  0.64880  0.32393  1.0000
  C   C145      1.0  0.52036  0.66502  0.26882  1.0000
  N   N25       1.0  0.52033  0.70528  0.24614  1.0000
  H   H78       1.0  0.54532  0.64785  0.25152  1.0000
  N   N26       1.0  0.94357  0.79107  0.15914  1.0000
  O   O25       1.0  0.45067  0.80696  0.08447  1.0000
  O   O26       1.0  0.90798  0.80119  0.18256  1.0000
  C   C146      1.0  0.64695  0.98703  0.11926  1.0000
  C   C147      1.0  0.66285  0.01617  0.17996  1.0000
  N   N27       1.0  0.70323  0.01594  0.20178  1.0000
  C   C148      1.0  0.73007  0.98691  0.17321  1.0000
  C   C149      1.0  0.71613  0.95604  0.11395  1.0000
  C   C150      1.0  0.67441  0.95653  0.08851  1.0000
  H   H79       1.0  0.66522  0.43618  0.04053  1.0000
  C   C151      1.0  0.77230  0.99575  0.17918  1.0000
  C   C152      1.0  0.80165  0.96850  0.21560  1.0000
  C   C153      1.0  0.84316  0.97333  0.18953  1.0000
  C   C154      1.0  0.85512  0.00377  0.12741  1.0000
  C   C155      1.0  0.82450  0.53138  0.09837  1.0000
  N   N28       1.0  0.78497  0.52544  0.12212  1.0000
  H   H80       1.0  0.86433  0.95259  0.21198  1.0000
  H   H81       1.0  0.83032  0.55291  0.05048  1.0000
  H   H82       1.0  0.64508  0.03963  0.20330  1.0000
  N   N29       1.0  0.78861  0.93656  0.27283  1.0000
  N   N30       1.0  0.74422  0.92829  0.07441  1.0000
  O   O27       1.0  0.80495  0.94007  0.34824  1.0000
  O   O28       1.0  0.73417  0.89168  0.08887  1.0000
  O   O29       1.0  0.79773  0.90189  0.24213  1.0000
  C   C156      1.0  0.00464  0.89562  0.35887  1.0000
  C   C157      1.0  0.96658  0.91143  0.38844  1.0000
  C   C158      1.0  0.96489  0.94466  0.44805  1.0000
  C   C159      1.0  0.00123  0.96238  0.48248  1.0000
  C   C160      1.0  0.53909  0.94922  0.44599  1.0000
  C   C161      1.0  0.54079  0.91599  0.38644  1.0000
  Si  Si4       1.0  0.99999  0.50097  0.55505  1.0000
  C   C162      1.0  0.99811  0.54113  0.48673  1.0000
  C   C163      1.0  0.53382  0.56174  0.45729  1.0000
  C   C164      1.0  0.53108  0.59612  0.40100  1.0000
  C   C165      1.0  0.99280  0.60990  0.36778  1.0000
  C   C166      1.0  0.95775  0.58619  0.38919  1.0000
  C   C167      1.0  0.96031  0.55249  0.44726  1.0000
  C   C168      1.0  0.96059  0.50115  0.62552  1.0000
  C   C169      1.0  0.53926  0.99835  0.62571  1.0000
  C   C170      1.0  0.55940  0.53370  0.65862  1.0000
  C   C171      1.0  0.55053  0.95999  0.66271  1.0000
  C   C172      1.0  0.94229  0.96432  0.65579  1.0000
  C   C173      1.0  0.94768  0.53834  0.66547  1.0000
  H   H83       1.0  0.55063  0.56246  0.63923  1.0000
  H   H84       1.0  0.53554  0.93355  0.64529  1.0000
  H   H85       1.0  0.95192  0.93638  0.63288  1.0000
  H   H86       1.0  0.96126  0.56571  0.64946  1.0000
  H   H87       1.0  0.93370  0.53722  0.46216  1.0000
  H   H88       1.0  0.92949  0.59405  0.36493  1.0000
  H   H89       1.0  0.55744  0.61210  0.38816  1.0000
  H   H90       1.0  0.56232  0.55298  0.47849  1.0000
  H   H91       1.0  0.56625  0.96237  0.46505  1.0000
  H   H92       1.0  0.93660  0.95449  0.46842  1.0000
  H   H93       1.0  0.93963  0.89726  0.37159  1.0000
  H   H94       1.0  0.56894  0.90582  0.36579  1.0000
  C   C174      1.0  0.03230  0.82583  0.34916  1.0000
  N   N31       1.0  0.02635  0.78633  0.32528  1.0000
  C   C175      1.0  0.95606  0.71712  0.31829  1.0000
  C   C176      1.0  0.95640  0.67563  0.34561  1.0000
  H   H95       1.0  0.93399  0.66630  0.38886  1.0000
  H   H96       1.0  0.05208  0.83144  0.40059  1.0000
  N   N32       1.0  0.92552  0.74462  0.34900  1.0000
  O   O30       1.0  0.92592  0.74788  0.43242  1.0000
  O   O31       1.0  0.89035  0.73339  0.32493  1.0000
  O   O32       1.0  0.74684  0.43366  0.65836  1.0000
