data_image0
_chemical_formula_structural       CHNHC2NCHCH2CNCHCH2NCH2NC18H12NHNHNHNC18H12NHNHNHNC3H3CH2NC3H3CH2C3H2CH2
_chemical_formula_sum              "C57 H54 N14"
_cell_length_a       32.3263
_cell_length_b       32.3275
_cell_length_c       14.927
_cell_angle_alpha    90
_cell_angle_beta     90
_cell_angle_gamma    119.999

_space_group_name_H-M_alt    "P 1"
_space_group_IT_number       1

loop_
  _space_group_symop_operation_xyz
  'x, y, z'

loop_
  _atom_site_type_symbol
  _atom_site_label
  _atom_site_symmetry_multiplicity
  _atom_site_fract_x
  _atom_site_fract_y
  _atom_site_fract_z
  _atom_site_occupancy
  C   C1        1.0  0.02176  0.52626  0.25545  1.0000
  H   H1        1.0  0.03139  0.54433  0.19601  1.0000
  N   N1        1.0  0.03954  0.50030  0.39055  1.0000
  H   H2        1.0  0.01225  0.45388  0.53527  1.0000
  C   C2        1.0  0.05591  0.52580  0.31349  1.0000
  C   C3        1.0  0.46670  0.51414  0.32144  1.0000
  N   N2        1.0  0.50160  0.46711  0.28059  1.0000
  C   C4        1.0  0.47229  0.48437  0.25962  1.0000
  H   H3        1.0  0.45474  0.47558  0.19958  1.0000
  C   C5        1.0  0.43549  0.53445  0.30122  1.0000
  H   H4        1.0  0.40048  0.50544  0.28011  1.0000
  H   H5        1.0  0.45164  0.55922  0.24522  1.0000
  C   C6        1.0  0.47551  0.95416  0.32966  1.0000
  N   N3        1.0  0.53231  0.03457  0.29230  1.0000
  C   C7        1.0  0.50986  0.98762  0.27037  1.0000
  H   H6        1.0  0.51730  0.97744  0.21050  1.0000
  C   C8        1.0  0.44656  0.90253  0.30870  1.0000
  H   H7        1.0  0.45372  0.89562  0.24029  1.0000
  H   H8        1.0  0.40891  0.89261  0.31211  1.0000
  N   N4        1.0  0.97493  0.50091  0.27822  1.0000
  C   C9        1.0  0.10757  0.54969  0.29214  1.0000
  H   H9        1.0  0.11420  0.56434  0.22418  1.0000
  H   H10       1.0  0.11835  0.52257  0.29430  1.0000
  N   N5        1.0  0.33794  0.67165  0.35071  1.0000
  C   C10       1.0  0.36023  0.64349  0.35601  1.0000
  C   C11       1.0  0.28744  0.64960  0.35050  1.0000
  C   C12       1.0  0.36636  0.72212  0.35445  1.0000
  C   C13       1.0  0.39700  0.74761  0.28269  1.0000
  C   C14       1.0  0.42663  0.79753  0.28754  1.0000
  C   C15       1.0  0.42578  0.82302  0.36390  1.0000
  C   C16       1.0  0.39498  0.79748  0.43536  1.0000
  C   C17       1.0  0.36557  0.74751  0.43079  1.0000
  C   C18       1.0  0.38504  0.64390  0.43404  1.0000
  C   C19       1.0  0.40754  0.61630  0.43874  1.0000
  C   C20       1.0  0.40549  0.58715  0.36632  1.0000
  C   C21       1.0  0.38043  0.58691  0.28821  1.0000
  C   C22       1.0  0.35823  0.61483  0.28305  1.0000
  C   C23       1.0  0.26049  0.62373  0.42581  1.0000
  C   C24       1.0  0.21045  0.60307  0.42637  1.0000
  C   C25       1.0  0.18639  0.60798  0.35191  1.0000
  C   C26       1.0  0.21341  0.63395  0.27654  1.0000
  C   C27       1.0  0.26341  0.65429  0.27566  1.0000
  H   H11       1.0  0.42537  0.61733  0.49612  1.0000
  H   H12       1.0  0.38689  0.66441  0.48776  1.0000
  H   H13       1.0  0.34046  0.61414  0.22585  1.0000
  H   H14       1.0  0.37785  0.56629  0.23433  1.0000
  H   H15       1.0  0.39838  0.72978  0.22719  1.0000
  H   H16       1.0  0.44927  0.81521  0.23558  1.0000
  H   H17       1.0  0.27730  0.62035  0.48103  1.0000
  H   H18       1.0  0.19163  0.58491  0.48200  1.0000
  H   H19       1.0  0.19679  0.63861  0.22238  1.0000
  H   H20       1.0  0.28237  0.67321  0.22076  1.0000
  H   H21       1.0  0.34396  0.72958  0.48385  1.0000
  H   H22       1.0  0.39421  0.81517  0.49162  1.0000
  N   N6        1.0  0.42895  0.56008  0.37786  1.0000
  H   H23       1.0  0.41146  0.53571  0.42811  1.0000
  N   N7        1.0  0.45594  0.87307  0.37292  1.0000
  H   H24       1.0  0.49084  0.88098  0.36759  1.0000
  N   N8        1.0  0.13622  0.58827  0.35736  1.0000
  H   H25       1.0  0.12856  0.61538  0.35089  1.0000
  N   N9        1.0  0.67294  0.33716  0.34147  1.0000
  C   C28       1.0  0.64567  0.36048  0.33463  1.0000
  C   C29       1.0  0.72350  0.36424  0.33391  1.0000
  C   C30       1.0  0.64945  0.28650  0.33652  1.0000
  C   C31       1.0  0.62102  0.26200  0.26167  1.0000
  C   C32       1.0  0.59887  0.21197  0.25580  1.0000
  C   C33       1.0  0.60500  0.18498  0.32390  1.0000
  C   C34       1.0  0.63404  0.20985  0.39812  1.0000
  C   C35       1.0  0.65542  0.25987  0.40506  1.0000
  C   C36       1.0  0.64972  0.38833  0.25876  1.0000
  C   C37       1.0  0.62122  0.40972  0.25048  1.0000
  C   C38       1.0  0.58721  0.40319  0.31697  1.0000
  C   C39       1.0  0.58290  0.37468  0.39217  1.0000
  C   C40       1.0  0.61230  0.35430  0.40173  1.0000
  C   C41       1.0  0.75109  0.39776  0.40049  1.0000
  C   C42       1.0  0.80095  0.42651  0.39065  1.0000
  C   C43       1.0  0.82473  0.42161  0.31537  1.0000
  C   C44       1.0  0.79679  0.38763  0.24918  1.0000
  C   C45       1.0  0.74689  0.35960  0.25798  1.0000
  H   H26       1.0  0.62459  0.42916  0.19413  1.0000
  H   H27       1.0  0.67307  0.39269  0.20851  1.0000
  H   H28       1.0  0.60810  0.33345  0.45638  1.0000
  H   H29       1.0  0.55771  0.36796  0.44009  1.0000
  H   H30       1.0  0.61666  0.28058  0.21061  1.0000
  H   H31       1.0  0.57883  0.19535  0.20033  1.0000
  H   H32       1.0  0.73476  0.40226  0.45531  1.0000
  H   H33       1.0  0.81985  0.45159  0.43851  1.0000
  H   H34       1.0  0.81260  0.38369  0.19299  1.0000
  H   H35       1.0  0.72759  0.33606  0.20818  1.0000
  H   H36       1.0  0.67649  0.27700  0.45919  1.0000
  H   H37       1.0  0.64028  0.19164  0.44732  1.0000
  N   N10       1.0  0.55519  0.42119  0.30576  1.0000
  H   H38       1.0  0.55919  0.43571  0.24295  1.0000
  N   N11       1.0  0.58552  0.13457  0.31574  1.0000
  H   H39       1.0  0.57103  0.12358  0.25304  1.0000
  N   N12       1.0  0.87498  0.45258  0.30447  1.0000
  H   H40       1.0  0.88510  0.44873  0.24120  1.0000
  N   N13       1.0  0.49183  0.52407  0.39919  1.0000
  C   C46       1.0  0.52159  0.50715  0.42086  1.0000
  C   C47       1.0  0.52677  0.47684  0.35842  1.0000
  C   C48       1.0  0.54645  0.52115  0.50819  1.0000
  H   H41       1.0  0.53768  0.54502  0.54478  1.0000
  H   H42       1.0  0.58503  0.53963  0.49795  1.0000
  H   H43       1.0  0.53587  0.48949  0.54928  1.0000
  C   C49       1.0  0.55928  0.45716  0.37311  1.0000
  H   H44       1.0  0.59602  0.48704  0.37437  1.0000
  H   H45       1.0  0.55103  0.44011  0.43889  1.0000
  N   N14       1.0  0.46773  0.97127  0.40717  1.0000
  C   C50       1.0  0.49053  0.01833  0.43041  1.0000
  C   C51       1.0  0.52438  0.05205  0.36940  1.0000
  C   C52       1.0  0.47821  0.03154  0.51713  1.0000
  H   H46       1.0  0.45125  0.00007  0.55290  1.0000
  H   H47       1.0  0.46408  0.05551  0.50615  1.0000
  H   H48       1.0  0.50995  0.04936  0.55934  1.0000
  C   C53       1.0  0.54880  0.10475  0.38389  1.0000
  H   H49       1.0  0.52131  0.11504  0.38618  1.0000
  H   H50       1.0  0.56633  0.11230  0.44919  1.0000
  C   C54       1.0  0.99264  0.47511  0.41456  1.0000
  C   C55       1.0  0.95825  0.47496  0.35498  1.0000
  C   C56       1.0  0.98035  0.44901  0.50067  1.0000
  H   H51       1.0  0.95685  0.41088  0.48898  1.0000
  H   H52       1.0  0.96232  0.46212  0.54429  1.0000
  C   C57       1.0  0.90572  0.44601  0.37092  1.0000
  H   H53       1.0  0.89594  0.40836  0.37236  1.0000
  H   H54       1.0  0.89855  0.45560  0.43694  1.0000
