data_image0
_chemical_formula_structural       C4H2NHC2H2NHC2H2NHNCNCNC3O3NCNCNC3O3C4N2O4NHC4N2O4NHC4N2O4NHC4H2NHC2H2NHC2H2NHNCNCNC3O3NCNCNC3O3C4N2O4NHC4N2O4NHC4N2O4NHC4H2NHC2H2NHC2H2NHNCNCNC3O3NCNCNC3O3C4N2O4NHC4N2O4NHC4N2O4NHC4H2NHC2H2NHC2H2NHNCNCNC3O3NCNCNC3O3C4N2O4NHC4N2O4NHC4N2O4NH
_chemical_formula_sum              "C120 H48 N72 O72"
_cell_length_a       43.6159
_cell_length_b       43.6159
_cell_length_c       15.0353
_cell_angle_alpha    90
_cell_angle_beta     90
_cell_angle_gamma    120

_space_group_name_H-M_alt    "P 1"
_space_group_IT_number       1

loop_
  _space_group_symop_operation_xyz
  'x, y, z'

loop_
  _atom_site_type_symbol
  _atom_site_label
  _atom_site_symmetry_multiplicity
  _atom_site_fract_x
  _atom_site_fract_y
  _atom_site_fract_z
  _atom_site_occupancy
  C   C1        1.0  0.12908  0.31920  0.26414  1.0000
  C   C2        1.0  0.36610  0.17299  0.40763  1.0000
  C   C3        1.0  0.27263  0.28405  0.29461  1.0000
  C   C4        1.0  0.28775  0.26428  0.32523  1.0000
  H   H1        1.0  0.30997  0.26786  0.29331  1.0000
  H   H2        1.0  0.28514  0.30179  0.24412  1.0000
  N   N1        1.0  0.22554  0.29663  0.28841  1.0000
  H   H3        1.0  0.24228  0.31957  0.26250  1.0000
  C   C5        1.0  0.21295  0.48799  0.29479  1.0000
  C   C6        1.0  0.23272  0.02289  0.32541  1.0000
  H   H4        1.0  0.22926  0.04155  0.29322  1.0000
  H   H5        1.0  0.19533  0.48280  0.24406  1.0000
  N   N2        1.0  0.20042  0.42834  0.28849  1.0000
  H   H6        1.0  0.17751  0.42214  0.26247  1.0000
  C   C7        1.0  0.00911  0.22437  0.29492  1.0000
  C   C8        1.0  0.47421  0.20925  0.32552  1.0000
  H   H7        1.0  0.45557  0.18712  0.29334  1.0000
  H   H8        1.0  0.01431  0.21193  0.24422  1.0000
  N   N3        1.0  0.06875  0.27152  0.28853  1.0000
  H   H9        1.0  0.07496  0.25480  0.26262  1.0000
  N   N4        1.0  0.15216  0.35459  0.26506  1.0000
  C   C9        1.0  0.18774  0.36800  0.26412  1.0000
  N   N5        1.0  0.20007  0.34493  0.26502  1.0000
  C   C10       1.0  0.17791  0.30935  0.26408  1.0000
  N   N6        1.0  0.14250  0.29704  0.26504  1.0000
  C   C11       1.0  0.21135  0.40429  0.27693  1.0000
  C   C12       1.0  0.19056  0.28573  0.27688  1.0000
  C   C13       1.0  0.09280  0.30650  0.27699  1.0000
  O   O1        1.0  0.16631  0.25067  0.27793  1.0000
  O   O2        1.0  0.08198  0.33074  0.27812  1.0000
  O   O3        1.0  0.24641  0.41510  0.27805  1.0000
  N   N7        1.0  0.33893  0.13903  0.40707  1.0000
  C   C14       1.0  0.30454  0.13098  0.40764  1.0000
  N   N8        1.0  0.29776  0.15815  0.40710  1.0000
  C   C15       1.0  0.32410  0.19254  0.40766  1.0000
  N   N9        1.0  0.35805  0.19932  0.40709  1.0000
  C   C16       1.0  0.27670  0.09569  0.40243  1.0000
  C   C17       1.0  0.31664  0.22037  0.40247  1.0000
  C   C18       1.0  0.40139  0.18044  0.40238  1.0000
  O   O4        1.0  0.34465  0.25368  0.39587  1.0000
  O   O5        1.0  0.40667  0.15241  0.39593  1.0000
  O   O6        1.0  0.24340  0.09041  0.39591  1.0000
  C   C19       1.0  0.23929  0.27740  0.32537  1.0000
  C   C20       1.0  0.27062  0.23732  0.38962  1.0000
  C   C21       1.0  0.23840  0.23234  0.42709  1.0000
  C   C22       1.0  0.22328  0.25298  0.39682  1.0000
  N   N10       1.0  0.22333  0.20721  0.49695  1.0000
  N   N11       1.0  0.19565  0.25426  0.44355  1.0000
  O   O7        1.0  0.22247  0.21992  0.57115  1.0000
  O   O8        1.0  0.16748  0.22518  0.45174  1.0000
  O   O9        1.0  0.19376  0.18110  0.47778  1.0000
  O   O10       1.0  0.20534  0.26954  0.51745  1.0000
  N   N12       1.0  0.28314  0.21497  0.41086  1.0000
  H   H10       1.0  0.26586  0.19202  0.43505  1.0000
  C   C23       1.0  0.21963  0.46131  0.32549  1.0000
  C   C24       1.0  0.25971  0.03272  0.38973  1.0000
  C   C25       1.0  0.26468  0.00547  0.42724  1.0000
  C   C26       1.0  0.24403  0.46971  0.39700  1.0000
  N   N13       1.0  0.28980  0.01554  0.49710  1.0000
  N   N14       1.0  0.24275  0.44080  0.44372  1.0000
  O   O11       1.0  0.27709  0.00197  0.57130  1.0000
  O   O12       1.0  0.27182  0.44171  0.45193  1.0000
  O   O13       1.0  0.31592  0.01207  0.47795  1.0000
  O   O14       1.0  0.22746  0.43522  0.51762  1.0000
  N   N15       1.0  0.28210  0.06759  0.41084  1.0000
  H   H11       1.0  0.30506  0.07325  0.43496  1.0000
  C   C27       1.0  0.03578  0.25775  0.32557  1.0000
  C   C28       1.0  0.46437  0.22642  0.38979  1.0000
  C   C29       1.0  0.49161  0.25863  0.42731  1.0000
  C   C30       1.0  0.02736  0.27376  0.39700  1.0000
  N   N16       1.0  0.48155  0.27371  0.49712  1.0000
  N   N17       1.0  0.05629  0.30135  0.44378  1.0000
  O   O15       1.0  0.49512  0.27459  0.57132  1.0000
  O   O16       1.0  0.05540  0.32952  0.45211  1.0000
  O   O17       1.0  0.48502  0.30328  0.47789  1.0000
  O   O18       1.0  0.06185  0.29159  0.51764  1.0000
  N   N18       1.0  0.42950  0.21393  0.41089  1.0000
  H   H12       1.0  0.42383  0.23122  0.43503  1.0000
  C   C31       1.0  0.12908  0.81919  0.26414  1.0000
  C   C32       1.0  0.36610  0.67299  0.40763  1.0000
  C   C33       1.0  0.27263  0.78405  0.29461  1.0000
  C   C34       1.0  0.28775  0.76428  0.32523  1.0000
  H   H13       1.0  0.30997  0.76786  0.29331  1.0000
  H   H14       1.0  0.28514  0.80179  0.24412  1.0000
  N   N19       1.0  0.22554  0.79663  0.28841  1.0000
  H   H15       1.0  0.24228  0.81956  0.26250  1.0000
  C   C35       1.0  0.21295  0.98799  0.29479  1.0000
  C   C36       1.0  0.23272  0.52289  0.32541  1.0000
  H   H16       1.0  0.22926  0.54155  0.29322  1.0000
  H   H17       1.0  0.19533  0.98280  0.24406  1.0000
  N   N20       1.0  0.20042  0.92833  0.28849  1.0000
  H   H18       1.0  0.17751  0.92214  0.26247  1.0000
  C   C37       1.0  0.00911  0.72437  0.29492  1.0000
  C   C38       1.0  0.47421  0.70925  0.32552  1.0000
  H   H19       1.0  0.45557  0.68711  0.29334  1.0000
  H   H20       1.0  0.01431  0.71193  0.24422  1.0000
  N   N21       1.0  0.06875  0.77152  0.28853  1.0000
  H   H21       1.0  0.07496  0.75479  0.26262  1.0000
  N   N22       1.0  0.15216  0.85459  0.26506  1.0000
  C   C39       1.0  0.18774  0.86800  0.26412  1.0000
  N   N23       1.0  0.20007  0.84493  0.26502  1.0000
  C   C40       1.0  0.17791  0.80935  0.26408  1.0000
  N   N24       1.0  0.14250  0.79704  0.26504  1.0000
  C   C41       1.0  0.21135  0.90429  0.27693  1.0000
  C   C42       1.0  0.19056  0.78573  0.27688  1.0000
  C   C43       1.0  0.09280  0.80650  0.27699  1.0000
  O   O19       1.0  0.16631  0.75068  0.27793  1.0000
  O   O20       1.0  0.08198  0.83074  0.27812  1.0000
  O   O21       1.0  0.24641  0.91509  0.27805  1.0000
  N   N25       1.0  0.33893  0.63903  0.40707  1.0000
  C   C44       1.0  0.30454  0.63098  0.40765  1.0000
  N   N26       1.0  0.29776  0.65815  0.40710  1.0000
  C   C45       1.0  0.32409  0.69254  0.40766  1.0000
  N   N27       1.0  0.35805  0.69932  0.40709  1.0000
  C   C46       1.0  0.27670  0.59569  0.40243  1.0000
  C   C47       1.0  0.31664  0.72037  0.40247  1.0000
  C   C48       1.0  0.40139  0.68044  0.40238  1.0000
  O   O22       1.0  0.34465  0.75368  0.39587  1.0000
  O   O23       1.0  0.40667  0.65241  0.39593  1.0000
  O   O24       1.0  0.24340  0.59041  0.39591  1.0000
  C   C49       1.0  0.23929  0.77740  0.32537  1.0000
  C   C50       1.0  0.27062  0.73732  0.38962  1.0000
  C   C51       1.0  0.23840  0.73234  0.42709  1.0000
  C   C52       1.0  0.22328  0.75298  0.39682  1.0000
  N   N28       1.0  0.22333  0.70721  0.49695  1.0000
  N   N29       1.0  0.19565  0.75426  0.44355  1.0000
  O   O25       1.0  0.22247  0.71992  0.57115  1.0000
  O   O26       1.0  0.16748  0.72518  0.45174  1.0000
  O   O27       1.0  0.19376  0.68110  0.47778  1.0000
  O   O28       1.0  0.20535  0.76954  0.51745  1.0000
  N   N30       1.0  0.28314  0.71497  0.41086  1.0000
  H   H22       1.0  0.26586  0.69202  0.43505  1.0000
  C   C53       1.0  0.21963  0.96131  0.32549  1.0000
  C   C54       1.0  0.25971  0.53272  0.38973  1.0000
  C   C55       1.0  0.26467  0.50547  0.42724  1.0000
  C   C56       1.0  0.24403  0.96971  0.39700  1.0000
  N   N31       1.0  0.28980  0.51554  0.49710  1.0000
  N   N32       1.0  0.24275  0.94080  0.44372  1.0000
  O   O29       1.0  0.27709  0.50197  0.57130  1.0000
  O   O30       1.0  0.27182  0.94171  0.45193  1.0000
  O   O31       1.0  0.31592  0.51207  0.47795  1.0000
  O   O32       1.0  0.22746  0.93522  0.51762  1.0000
  N   N33       1.0  0.28210  0.56758  0.41084  1.0000
  H   H23       1.0  0.30506  0.57325  0.43496  1.0000
  C   C57       1.0  0.03578  0.75775  0.32557  1.0000
  C   C58       1.0  0.46437  0.72642  0.38979  1.0000
  C   C59       1.0  0.49161  0.75863  0.42731  1.0000
  C   C60       1.0  0.02736  0.77376  0.39700  1.0000
  N   N34       1.0  0.48155  0.77371  0.49712  1.0000
  N   N35       1.0  0.05629  0.80135  0.44378  1.0000
  O   O33       1.0  0.49512  0.77459  0.57132  1.0000
  O   O34       1.0  0.05540  0.82952  0.45211  1.0000
  O   O35       1.0  0.48502  0.80328  0.47789  1.0000
  O   O36       1.0  0.06185  0.79159  0.51764  1.0000
  N   N36       1.0  0.42950  0.71393  0.41089  1.0000
  H   H24       1.0  0.42383  0.73122  0.43503  1.0000
  C   C61       1.0  0.62908  0.31920  0.26414  1.0000
  C   C62       1.0  0.86610  0.17299  0.40763  1.0000
  C   C63       1.0  0.77263  0.28405  0.29461  1.0000
  C   C64       1.0  0.78775  0.26428  0.32523  1.0000
  H   H25       1.0  0.80997  0.26786  0.29331  1.0000
  H   H26       1.0  0.78514  0.30179  0.24412  1.0000
  N   N37       1.0  0.72554  0.29663  0.28841  1.0000
  H   H27       1.0  0.74227  0.31957  0.26250  1.0000
  C   C65       1.0  0.71295  0.48799  0.29479  1.0000
  C   C66       1.0  0.73272  0.02289  0.32541  1.0000
  H   H28       1.0  0.72926  0.04155  0.29322  1.0000
  H   H29       1.0  0.69533  0.48280  0.24406  1.0000
  N   N38       1.0  0.70042  0.42834  0.28849  1.0000
  H   H30       1.0  0.67751  0.42214  0.26247  1.0000
  C   C67       1.0  0.50911  0.22437  0.29492  1.0000
  C   C68       1.0  0.97421  0.20925  0.32552  1.0000
  H   H31       1.0  0.95557  0.18712  0.29334  1.0000
  H   H32       1.0  0.51431  0.21193  0.24422  1.0000
  N   N39       1.0  0.56875  0.27152  0.28853  1.0000
  H   H33       1.0  0.57496  0.25480  0.26262  1.0000
  N   N40       1.0  0.65216  0.35459  0.26506  1.0000
  C   C69       1.0  0.68774  0.36800  0.26412  1.0000
  N   N41       1.0  0.70007  0.34493  0.26502  1.0000
  C   C70       1.0  0.67790  0.30935  0.26408  1.0000
  N   N42       1.0  0.64250  0.29704  0.26504  1.0000
  C   C71       1.0  0.71135  0.40429  0.27693  1.0000
  C   C72       1.0  0.69056  0.28573  0.27688  1.0000
  C   C73       1.0  0.59280  0.30650  0.27699  1.0000
  O   O37       1.0  0.66631  0.25067  0.27793  1.0000
  O   O38       1.0  0.58198  0.33074  0.27812  1.0000
  O   O39       1.0  0.74640  0.41510  0.27805  1.0000
  N   N43       1.0  0.83893  0.13903  0.40707  1.0000
  C   C74       1.0  0.80454  0.13098  0.40764  1.0000
  N   N44       1.0  0.79776  0.15815  0.40710  1.0000
  C   C75       1.0  0.82409  0.19254  0.40766  1.0000
  N   N45       1.0  0.85804  0.19932  0.40709  1.0000
  C   C76       1.0  0.77670  0.09569  0.40243  1.0000
  C   C77       1.0  0.81664  0.22037  0.40247  1.0000
  C   C78       1.0  0.90139  0.18044  0.40238  1.0000
  O   O40       1.0  0.84465  0.25368  0.39587  1.0000
  O   O41       1.0  0.90667  0.15241  0.39593  1.0000
  O   O42       1.0  0.74340  0.09041  0.39591  1.0000
  C   C79       1.0  0.73929  0.27740  0.32537  1.0000
  C   C80       1.0  0.77062  0.23732  0.38962  1.0000
  C   C81       1.0  0.73840  0.23234  0.42709  1.0000
  C   C82       1.0  0.72328  0.25298  0.39682  1.0000
  N   N46       1.0  0.72333  0.20721  0.49695  1.0000
  N   N47       1.0  0.69564  0.25426  0.44355  1.0000
  O   O43       1.0  0.72247  0.21992  0.57115  1.0000
  O   O44       1.0  0.66748  0.22518  0.45174  1.0000
  O   O45       1.0  0.69376  0.18110  0.47778  1.0000
  O   O46       1.0  0.70535  0.26954  0.51745  1.0000
  N   N48       1.0  0.78314  0.21497  0.41086  1.0000
  H   H34       1.0  0.76585  0.19202  0.43505  1.0000
  C   C83       1.0  0.71963  0.46131  0.32549  1.0000
  C   C84       1.0  0.75971  0.03272  0.38973  1.0000
  C   C85       1.0  0.76467  0.00547  0.42724  1.0000
  C   C86       1.0  0.74403  0.46971  0.39700  1.0000
  N   N49       1.0  0.78980  0.01554  0.49710  1.0000
  N   N50       1.0  0.74275  0.44080  0.44372  1.0000
  O   O47       1.0  0.77709  0.00197  0.57130  1.0000
  O   O48       1.0  0.77182  0.44171  0.45193  1.0000
  O   O49       1.0  0.81592  0.01207  0.47795  1.0000
  O   O50       1.0  0.72746  0.43522  0.51762  1.0000
  N   N51       1.0  0.78210  0.06759  0.41084  1.0000
  H   H35       1.0  0.80506  0.07325  0.43496  1.0000
  C   C87       1.0  0.53578  0.25775  0.32557  1.0000
  C   C88       1.0  0.96437  0.22642  0.38979  1.0000
  C   C89       1.0  0.99161  0.25863  0.42731  1.0000
  C   C90       1.0  0.52736  0.27376  0.39700  1.0000
  N   N52       1.0  0.98155  0.27371  0.49712  1.0000
  N   N53       1.0  0.55629  0.30135  0.44378  1.0000
  O   O51       1.0  0.99512  0.27459  0.57132  1.0000
  O   O52       1.0  0.55540  0.32952  0.45211  1.0000
  O   O53       1.0  0.98502  0.30328  0.47789  1.0000
  O   O54       1.0  0.56185  0.29159  0.51764  1.0000
  N   N54       1.0  0.92950  0.21393  0.41089  1.0000
  H   H36       1.0  0.92383  0.23122  0.43503  1.0000
  C   C91       1.0  0.62908  0.81919  0.26414  1.0000
  C   C92       1.0  0.86610  0.67299  0.40763  1.0000
  C   C93       1.0  0.77263  0.78405  0.29461  1.0000
  C   C94       1.0  0.78775  0.76428  0.32523  1.0000
  H   H37       1.0  0.80997  0.76786  0.29331  1.0000
  H   H38       1.0  0.78514  0.80179  0.24412  1.0000
  N   N55       1.0  0.72554  0.79663  0.28841  1.0000
  H   H39       1.0  0.74228  0.81956  0.26250  1.0000
  C   C95       1.0  0.71295  0.98799  0.29479  1.0000
  C   C96       1.0  0.73272  0.52289  0.32541  1.0000
  H   H40       1.0  0.72927  0.54155  0.29322  1.0000
  H   H41       1.0  0.69533  0.98280  0.24406  1.0000
  N   N56       1.0  0.70042  0.92833  0.28849  1.0000
  H   H42       1.0  0.67751  0.92214  0.26247  1.0000
  C   C97       1.0  0.50911  0.72437  0.29492  1.0000
  C   C98       1.0  0.97421  0.70925  0.32552  1.0000
  H   H43       1.0  0.95557  0.68711  0.29334  1.0000
  H   H44       1.0  0.51431  0.71193  0.24422  1.0000
  N   N57       1.0  0.56875  0.77152  0.28853  1.0000
  H   H45       1.0  0.57496  0.75479  0.26262  1.0000
  N   N58       1.0  0.65216  0.85459  0.26506  1.0000
  C   C99       1.0  0.68774  0.86800  0.26412  1.0000
  N   N59       1.0  0.70007  0.84493  0.26502  1.0000
  C   C100      1.0  0.67791  0.80935  0.26408  1.0000
  N   N60       1.0  0.64250  0.79704  0.26504  1.0000
  C   C101      1.0  0.71135  0.90429  0.27693  1.0000
  C   C102      1.0  0.69057  0.78573  0.27688  1.0000
  C   C103      1.0  0.59280  0.80650  0.27699  1.0000
  O   O55       1.0  0.66631  0.75068  0.27793  1.0000
  O   O56       1.0  0.58198  0.83074  0.27812  1.0000
  O   O57       1.0  0.74641  0.91509  0.27805  1.0000
  N   N61       1.0  0.83893  0.63903  0.40707  1.0000
  C   C104      1.0  0.80454  0.63098  0.40765  1.0000
  N   N62       1.0  0.79776  0.65815  0.40710  1.0000
  C   C105      1.0  0.82410  0.69254  0.40766  1.0000
  N   N63       1.0  0.85805  0.69932  0.40709  1.0000
  C   C106      1.0  0.77671  0.59569  0.40243  1.0000
  C   C107      1.0  0.81664  0.72037  0.40247  1.0000
  C   C108      1.0  0.90139  0.68044  0.40238  1.0000
  O   O58       1.0  0.84465  0.75368  0.39587  1.0000
  O   O59       1.0  0.90667  0.65241  0.39593  1.0000
  O   O60       1.0  0.74340  0.59041  0.39591  1.0000
  C   C109      1.0  0.73929  0.77740  0.32537  1.0000
  C   C110      1.0  0.77062  0.73732  0.38962  1.0000
  C   C111      1.0  0.73840  0.73234  0.42709  1.0000
  C   C112      1.0  0.72328  0.75298  0.39682  1.0000
  N   N64       1.0  0.72333  0.70721  0.49695  1.0000
  N   N65       1.0  0.69565  0.75426  0.44355  1.0000
  O   O61       1.0  0.72247  0.71992  0.57115  1.0000
  O   O62       1.0  0.66748  0.72518  0.45174  1.0000
  O   O63       1.0  0.69376  0.68110  0.47778  1.0000
  O   O64       1.0  0.70535  0.76954  0.51745  1.0000
  N   N66       1.0  0.78314  0.71497  0.41086  1.0000
  H   H46       1.0  0.76586  0.69202  0.43505  1.0000
  C   C113      1.0  0.71963  0.96131  0.32549  1.0000
  C   C114      1.0  0.75971  0.53272  0.38973  1.0000
  C   C115      1.0  0.76467  0.50547  0.42724  1.0000
  C   C116      1.0  0.74403  0.96971  0.39700  1.0000
  N   N67       1.0  0.78980  0.51554  0.49710  1.0000
  N   N68       1.0  0.74275  0.94080  0.44372  1.0000
  O   O65       1.0  0.77709  0.50197  0.57130  1.0000
  O   O66       1.0  0.77182  0.94171  0.45193  1.0000
  O   O67       1.0  0.81592  0.51207  0.47795  1.0000
  O   O68       1.0  0.72746  0.93522  0.51762  1.0000
  N   N69       1.0  0.78210  0.56758  0.41084  1.0000
  H   H47       1.0  0.80506  0.57325  0.43496  1.0000
  C   C117      1.0  0.53578  0.75775  0.32557  1.0000
  C   C118      1.0  0.96437  0.72642  0.38979  1.0000
  C   C119      1.0  0.99161  0.75863  0.42731  1.0000
  C   C120      1.0  0.52736  0.77376  0.39700  1.0000
  N   N70       1.0  0.98155  0.77371  0.49712  1.0000
  N   N71       1.0  0.55629  0.80135  0.44378  1.0000
  O   O69       1.0  0.99512  0.77459  0.57132  1.0000
  O   O70       1.0  0.55540  0.82952  0.45211  1.0000
  O   O71       1.0  0.98502  0.80328  0.47789  1.0000
  O   O72       1.0  0.56185  0.79159  0.51764  1.0000
  N   N72       1.0  0.92950  0.71393  0.41089  1.0000
  H   H48       1.0  0.92383  0.73122  0.43503  1.0000
