data_image0
_chemical_formula_structural       C16H16C2HC4N2HCHC2HC4N2HCHC3NC3NC5NC5NC36H26N4C2NCHNCHCHC2NCHNCHCH
_chemical_formula_sum              "C92 H54 N16"
_cell_length_a       38.3604
_cell_length_b       38.3584
_cell_length_c       14.9312
_cell_angle_alpha    90
_cell_angle_beta     90
_cell_angle_gamma    89.9402

_space_group_name_H-M_alt    "P 1"
_space_group_IT_number       1

loop_
  _space_group_symop_operation_xyz
  'x, y, z'

loop_
  _atom_site_type_symbol
  _atom_site_label
  _atom_site_symmetry_multiplicity
  _atom_site_fract_x
  _atom_site_fract_y
  _atom_site_fract_z
  _atom_site_occupancy
  C   C1        1.0  0.15195  0.00297  0.27807  1.0000
  C   C2        1.0  0.18862  0.00309  0.27541  1.0000
  C   C3        1.0  0.30086  0.02541  0.29545  1.0000
  C   C4        1.0  0.26416  0.02442  0.29731  1.0000
  C   C5        1.0  0.00409  0.14880  0.28141  1.0000
  C   C6        1.0  0.00436  0.18549  0.27970  1.0000
  C   C7        1.0  0.98461  0.26128  0.30515  1.0000
  C   C8        1.0  0.98449  0.29797  0.30341  1.0000
  C   C9        1.0  0.82186  0.00167  0.28019  1.0000
  C   C10       1.0  0.85854  0.00073  0.28163  1.0000
  C   C11       1.0  0.74578  0.98340  0.30629  1.0000
  C   C12       1.0  0.70909  0.98395  0.30487  1.0000
  C   C13       1.0  0.00637  0.85558  0.27772  1.0000
  C   C14       1.0  0.00620  0.81890  0.27491  1.0000
  C   C15       1.0  0.02641  0.70616  0.29455  1.0000
  C   C16       1.0  0.02616  0.74287  0.29664  1.0000
  H   H1        1.0  0.04429  0.69366  0.25497  1.0000
  H   H2        1.0  0.04427  0.75592  0.25913  1.0000
  H   H3        1.0  0.00849  0.80699  0.21387  1.0000
  H   H4        1.0  0.00924  0.86925  0.21927  1.0000
  H   H5        1.0  0.87181  0.99705  0.22286  1.0000
  H   H6        1.0  0.80955  0.99909  0.21976  1.0000
  H   H7        1.0  0.00072  0.13541  0.22272  1.0000
  H   H8        1.0  0.00161  0.19769  0.21916  1.0000
  H   H9        1.0  0.96580  0.31048  0.26656  1.0000
  H   H10       1.0  0.96587  0.24836  0.26942  1.0000
  H   H11       1.0  0.25076  0.04216  0.25940  1.0000
  H   H12       1.0  0.31300  0.04342  0.25558  1.0000
  H   H13       1.0  0.20055  0.00551  0.21443  1.0000
  H   H14       1.0  0.13829  0.00582  0.21959  1.0000
  H   H15       1.0  0.75834  0.96439  0.27060  1.0000
  H   H16       1.0  0.69623  0.96546  0.26828  1.0000
  C   C17       1.0  0.00209  0.54222  0.28376  1.0000
  C   C18       1.0  0.00074  0.57859  0.29670  1.0000
  H   H17       1.0  0.99942  0.59454  0.24182  1.0000
  C   C19       1.0  0.00360  0.48347  0.34556  1.0000
  C   C20       1.0  0.00291  0.41078  0.31430  1.0000
  C   C21       1.0  0.00272  0.43451  0.24156  1.0000
  C   C22       1.0  0.00309  0.47075  0.25650  1.0000
  N   N1        1.0  0.00231  0.49398  0.18782  1.0000
  N   N2        1.0  0.00185  0.52775  0.20070  1.0000
  H   H18       1.0  0.00188  0.42555  0.17695  1.0000
  C   C23       1.0  0.00070  0.37508  0.29832  1.0000
  H   H19       1.0  0.99215  0.36713  0.23879  1.0000
  C   C24       1.0  0.46522  0.00376  0.28575  1.0000
  C   C25       1.0  0.42887  0.00229  0.29874  1.0000
  H   H20       1.0  0.41296  0.00089  0.24397  1.0000
  C   C26       1.0  0.52398  0.00531  0.34740  1.0000
  C   C27       1.0  0.59665  0.00437  0.31592  1.0000
  C   C28       1.0  0.57288  0.00429  0.24324  1.0000
  C   C29       1.0  0.53666  0.00477  0.25830  1.0000
  N   N3        1.0  0.51341  0.00400  0.18968  1.0000
  N   N4        1.0  0.47965  0.00353  0.20266  1.0000
  H   H21       1.0  0.58182  0.00338  0.17861  1.0000
  C   C30       1.0  0.63233  0.00186  0.29979  1.0000
  H   H22       1.0  0.64019  0.99356  0.23992  1.0000
  C   C31       1.0  0.06838  0.91031  0.36295  1.0000
  C   C32       1.0  0.09437  0.93518  0.36282  1.0000
  C   C33       1.0  0.07870  0.96808  0.36376  1.0000
  N   N5        1.0  0.04389  0.96190  0.36444  1.0000
  C   C34       1.0  0.03618  0.92741  0.36339  1.0000
  C   C35       1.0  0.00314  0.91053  0.36284  1.0000
  C   C36       1.0  0.97050  0.92802  0.36361  1.0000
  N   N6        1.0  0.96451  0.96276  0.36432  1.0000
  C   C37       1.0  0.93008  0.97027  0.36425  1.0000
  C   C38       1.0  0.91283  0.93822  0.36388  1.0000
  C   C39       1.0  0.93772  0.91221  0.36309  1.0000
  C   C40       1.0  0.91403  0.00366  0.36448  1.0000
  C   C41       1.0  0.93237  0.03591  0.36494  1.0000
  N   N7        1.0  0.96718  0.04208  0.36549  1.0000
  C   C42       1.0  0.97489  0.07658  0.36488  1.0000
  C   C43       1.0  0.94271  0.09368  0.36455  1.0000
  C   C44       1.0  0.91672  0.06882  0.36419  1.0000
  C   C45       1.0  0.00792  0.09347  0.36470  1.0000
  C   C46       1.0  0.04056  0.07597  0.36484  1.0000
  N   N8        1.0  0.04653  0.04123  0.36486  1.0000
  C   C47       1.0  0.08096  0.03372  0.36394  1.0000
  C   C48       1.0  0.09821  0.06577  0.36368  1.0000
  C   C49       1.0  0.07334  0.09178  0.36389  1.0000
  C   C50       1.0  0.09701  0.00033  0.36322  1.0000
  C   C51       1.0  0.13417  0.99928  0.36030  1.0000
  C   C52       1.0  0.20871  0.99946  0.35457  1.0000
  C   C53       1.0  0.19051  0.99544  0.43658  1.0000
  C   C54       1.0  0.15383  0.99544  0.43961  1.0000
  C   C55       1.0  0.24605  0.00024  0.35196  1.0000
  C   C56       1.0  0.26626  0.97691  0.40413  1.0000
  C   C57       1.0  0.30294  0.97794  0.40249  1.0000
  C   C58       1.0  0.32076  0.00258  0.34898  1.0000
  C   C59       1.0  0.00842  0.13065  0.36292  1.0000
  C   C60       1.0  0.00913  0.20519  0.35907  1.0000
  C   C61       1.0  0.01361  0.18665  0.44039  1.0000
  C   C62       1.0  0.01319  0.14996  0.44246  1.0000
  C   C63       1.0  0.00920  0.24254  0.35713  1.0000
  C   C64       1.0  0.00917  0.31727  0.35328  1.0000
  C   C65       1.0  0.03340  0.29882  0.40621  1.0000
  C   C66       1.0  0.03356  0.26211  0.40773  1.0000
  C   C67       1.0  0.87685  0.00481  0.36296  1.0000
  C   C68       1.0  0.85772  0.01004  0.44261  1.0000
  C   C69       1.0  0.82104  0.01116  0.44079  1.0000
  C   C70       1.0  0.80233  0.00691  0.35965  1.0000
  C   C71       1.0  0.76498  0.00768  0.35800  1.0000
  C   C72       1.0  0.69026  0.00902  0.35478  1.0000
  C   C73       1.0  0.70916  0.03296  0.40740  1.0000
  C   C74       1.0  0.74587  0.03245  0.40859  1.0000
  C   C75       1.0  0.00265  0.87335  0.35998  1.0000
  C   C76       1.0  0.99859  0.85368  0.43917  1.0000
  C   C77       1.0  0.00217  0.79881  0.35391  1.0000
  C   C78       1.0  0.99828  0.81699  0.43600  1.0000
  C   C79       1.0  0.00223  0.76146  0.35104  1.0000
  C   C80       1.0  0.97833  0.74173  0.40260  1.0000
  C   C81       1.0  0.97862  0.70503  0.40071  1.0000
  C   C82       1.0  0.00303  0.68671  0.34752  1.0000
  H   H23       1.0  0.96057  0.69181  0.43792  1.0000
  H   H24       1.0  0.95993  0.75393  0.44113  1.0000
  H   H25       1.0  0.99594  0.80365  0.49503  1.0000
  H   H26       1.0  0.99600  0.86593  0.49973  1.0000
  H   H27       1.0  0.07276  0.88402  0.36222  1.0000
  H   H28       1.0  0.12044  0.92965  0.36187  1.0000
  H   H29       1.0  0.02658  0.97999  0.36463  1.0000
  H   H30       1.0  0.98448  0.02398  0.36597  1.0000
  H   H31       1.0  0.93235  0.88611  0.36233  1.0000
  H   H32       1.0  0.88653  0.93400  0.36390  1.0000
  H   H33       1.0  0.87037  0.01293  0.50253  1.0000
  H   H34       1.0  0.80807  0.01436  0.50013  1.0000
  H   H35       1.0  0.89065  0.07439  0.36332  1.0000
  H   H36       1.0  0.93832  0.11997  0.36420  1.0000
  H   H37       1.0  0.12452  0.06999  0.36303  1.0000
  H   H38       1.0  0.07872  0.11788  0.36321  1.0000
  H   H39       1.0  0.01626  0.13742  0.50249  1.0000
  H   H40       1.0  0.01652  0.19973  0.49965  1.0000
  H   H41       1.0  0.05210  0.24977  0.44550  1.0000
  H   H42       1.0  0.05143  0.31206  0.44362  1.0000
  H   H43       1.0  0.14156  0.99302  0.50019  1.0000
  H   H44       1.0  0.20384  0.99344  0.49574  1.0000
  H   H45       1.0  0.31654  0.96028  0.44011  1.0000
  H   H46       1.0  0.25443  0.95837  0.44291  1.0000
  H   H47       1.0  0.75856  0.05079  0.44618  1.0000
  H   H48       1.0  0.69627  0.05125  0.44485  1.0000
  N   N9        1.0  0.35543  0.00463  0.34396  1.0000
  N   N10       1.0  0.00451  0.65200  0.34251  1.0000
  N   N11       1.0  0.65553  0.01020  0.35827  1.0000
  N   N12       1.0  0.00979  0.35201  0.35645  1.0000
  C   C83       1.0  0.00013  0.59286  0.38428  1.0000
  C   C84       1.0  0.00133  0.56909  0.45687  1.0000
  N   N13       1.0  0.00267  0.53417  0.44250  1.0000
  C   C85       1.0  0.00303  0.51986  0.35934  1.0000
  H   H49       1.0  0.00086  0.57768  0.52172  1.0000
  N   N14       1.0  0.00395  0.46023  0.41428  1.0000
  C   C86       1.0  0.00379  0.42514  0.40175  1.0000
  H   H50       1.0  0.00351  0.40947  0.45713  1.0000
  C   C87       1.0  0.99706  0.62847  0.40095  1.0000
  H   H51       1.0  0.98944  0.63602  0.46167  1.0000
  C   C88       1.0  0.41462  0.00159  0.38636  1.0000
  C   C89       1.0  0.43841  0.00291  0.45890  1.0000
  N   N15       1.0  0.47332  0.00434  0.44447  1.0000
  C   C90       1.0  0.48759  0.00474  0.36129  1.0000
  H   H52       1.0  0.42984  0.00237  0.52374  1.0000
  N   N16       1.0  0.54725  0.00558  0.41604  1.0000
  C   C91       1.0  0.58233  0.00529  0.40341  1.0000
  H   H53       1.0  0.59803  0.00496  0.45875  1.0000
  C   C92       1.0  0.37903  0.99827  0.40309  1.0000
  H   H54       1.0  0.37152  0.99117  0.46425  1.0000
