data_image0
_chemical_formula_structural       C15H12C2NC2NC2NC2NC2NC2NC5NC3NC17H14NC2N2C2NC15H12C2NC2NC2NC2NC2NC2NC5NC3NC17H14NC2N2C2NC15H12C2NC2NC2NC2NC2NC2NC5NC3NC17H14NC2N2C2NC15H12C2NC2NC2NC2NC2NC2NC5NC3NC17H14NC2N2C2N
_chemical_formula_sum              "C224 H104 N48"
_cell_length_a       42.763
_cell_length_b       42.763
_cell_length_c       14.9631
_cell_angle_alpha    90
_cell_angle_beta     90
_cell_angle_gamma    90

_space_group_name_H-M_alt    "P 1"
_space_group_IT_number       1

loop_
  _space_group_symop_operation_xyz
  'x, y, z'

loop_
  _atom_site_type_symbol
  _atom_site_label
  _atom_site_symmetry_multiplicity
  _atom_site_fract_x
  _atom_site_fract_y
  _atom_site_fract_z
  _atom_site_occupancy
  C   C1        1.0  0.43467  0.47207  0.33635  1.0000
  C   C2        1.0  0.03095  0.43387  0.33665  1.0000
  C   C3        1.0  0.50070  0.08325  0.33602  1.0000
  C   C4        1.0  0.47110  0.06808  0.33543  1.0000
  C   C5        1.0  0.41919  0.06007  0.33400  1.0000
  C   C6        1.0  0.44197  0.08286  0.33598  1.0000
  C   C7        1.0  0.33467  0.48968  0.26909  1.0000
  C   C8        1.0  0.36755  0.49030  0.26544  1.0000
  C   C9        1.0  0.50097  0.11676  0.33825  1.0000
  C   C10       1.0  0.48997  0.16738  0.26824  1.0000
  C   C11       1.0  0.49045  0.13450  0.26455  1.0000
  C   C12       1.0  0.13300  0.01182  0.25765  1.0000
  C   C13       1.0  0.16589  0.01262  0.25592  1.0000
  C   C14       1.0  0.01224  0.36892  0.25731  1.0000
  C   C15       1.0  0.01286  0.33603  0.25561  1.0000
  H   H1        1.0  0.02319  0.32571  0.20176  1.0000
  H   H2        1.0  0.02093  0.38099  0.20369  1.0000
  H   H3        1.0  0.43817  0.39662  0.33365  1.0000
  H   H4        1.0  0.12087  0.02027  0.20381  1.0000
  H   H5        1.0  0.17613  0.02283  0.20180  1.0000
  H   H6        1.0  0.06385  0.10529  0.33394  1.0000
  H   H7        1.0  0.39573  0.06458  0.33293  1.0000
  H   H8        1.0  0.43744  0.10631  0.33691  1.0000
  H   H9        1.0  0.48245  0.12354  0.20817  1.0000
  H   H10       1.0  0.48132  0.17903  0.21388  1.0000
  H   H11       1.0  0.37856  0.48226  0.20919  1.0000
  H   H12       1.0  0.32305  0.48086  0.21488  1.0000
  C   C16       1.0  0.00080  0.28417  0.32640  1.0000
  C   C17       1.0  0.00092  0.21776  0.34498  1.0000
  N   N1        1.0  0.50040  0.23268  0.26453  1.0000
  C   C18       1.0  0.50025  0.26403  0.25082  1.0000
  C   C19       1.0  0.99677  0.27247  0.16801  1.0000
  N   N2        1.0  0.99350  0.27952  0.09453  1.0000
  C   C20       1.0  0.21783  0.00083  0.32680  1.0000
  C   C21       1.0  0.28424  0.00078  0.34538  1.0000
  N   N3        1.0  0.26934  0.50029  0.26491  1.0000
  C   C22       1.0  0.23799  0.50017  0.25122  1.0000
  C   C23       1.0  0.22954  0.99685  0.16836  1.0000
  N   N4        1.0  0.22252  0.99372  0.09481  1.0000
  C   C24       1.0  0.44283  0.42004  0.33488  1.0000
  C   C25       1.0  0.42006  0.44283  0.33725  1.0000
  N   N5        1.0  0.46580  0.46576  0.33605  1.0000
  C   C26       1.0  0.47208  0.43463  0.33573  1.0000
  C   C27       1.0  0.50135  0.41867  0.33567  1.0000
  N   N6        1.0  0.03706  0.46492  0.33663  1.0000
  C   C28       1.0  0.06812  0.47097  0.33658  1.0000
  C   C29       1.0  0.08287  0.44183  0.33608  1.0000
  C   C30       1.0  0.06007  0.41907  0.33803  1.0000
  C   C31       1.0  0.08332  0.50057  0.33601  1.0000
  C   C32       1.0  0.06735  0.02984  0.33607  1.0000
  N   N7        1.0  0.03623  0.03614  0.33599  1.0000
  C   C33       1.0  0.02996  0.06726  0.33595  1.0000
  C   C34       1.0  0.05920  0.08186  0.33507  1.0000
  C   C35       1.0  0.08197  0.05907  0.33698  1.0000
  N   N8        1.0  0.46501  0.03702  0.33544  1.0000
  C   C36       1.0  0.43396  0.03094  0.33541  1.0000
  C   C37       1.0  0.41874  0.50136  0.33639  1.0000
  C   C38       1.0  0.38523  0.50113  0.33889  1.0000
  C   C39       1.0  0.36896  0.01228  0.41461  1.0000
  C   C40       1.0  0.33607  0.01289  0.41624  1.0000
  C   C41       1.0  0.31795  0.50079  0.34477  1.0000
  C   C42       1.0  0.01198  0.13295  0.41424  1.0000
  C   C43       1.0  0.01276  0.16584  0.41591  1.0000
  C   C44       1.0  0.50091  0.18405  0.34423  1.0000
  C   C45       1.0  0.11682  0.50081  0.33367  1.0000
  C   C46       1.0  0.18411  0.50079  0.32757  1.0000
  C   C47       1.0  0.16747  0.48982  0.40357  1.0000
  C   C48       1.0  0.13459  0.49027  0.40731  1.0000
  C   C49       1.0  0.50111  0.38516  0.33308  1.0000
  C   C50       1.0  0.49027  0.36746  0.40649  1.0000
  C   C51       1.0  0.48965  0.33458  0.40276  1.0000
  C   C52       1.0  0.50077  0.31788  0.32705  1.0000
  H   H13       1.0  0.48083  0.32295  0.45694  1.0000
  H   H14       1.0  0.48223  0.37846  0.46276  1.0000
  H   H15       1.0  0.39663  0.43819  0.33851  1.0000
  H   H16       1.0  0.48167  0.48162  0.33604  1.0000
  H   H17       1.0  0.02035  0.02027  0.33597  1.0000
  H   H18       1.0  0.06456  0.39561  0.33911  1.0000
  H   H19       1.0  0.10632  0.43729  0.33508  1.0000
  H   H20       1.0  0.12364  0.48228  0.46373  1.0000
  H   H21       1.0  0.17913  0.48117  0.45791  1.0000
  H   H22       1.0  0.10540  0.06369  0.33830  1.0000
  H   H23       1.0  0.02038  0.12084  0.46816  1.0000
  H   H24       1.0  0.02292  0.17611  0.47008  1.0000
  H   H25       1.0  0.32574  0.02322  0.47006  1.0000
  H   H26       1.0  0.38102  0.02097  0.46826  1.0000
  N   N9        1.0  0.00027  0.26927  0.40686  1.0000
  C   C53       1.0  0.00020  0.23791  0.42055  1.0000
  C   C54       1.0  0.99677  0.22946  0.50338  1.0000
  N   N10       1.0  0.99355  0.22243  0.57689  1.0000
  N   N11       1.0  0.23274  0.00029  0.40725  1.0000
  C   C55       1.0  0.26410  0.00017  0.42096  1.0000
  C   C56       1.0  0.27255  0.99665  0.50375  1.0000
  N   N12       1.0  0.27960  0.99334  0.57721  1.0000
  C   C57       1.0  0.43467  0.97207  0.33635  1.0000
  C   C58       1.0  0.03095  0.93387  0.33665  1.0000
  C   C59       1.0  0.50070  0.58325  0.33602  1.0000
  C   C60       1.0  0.47110  0.56807  0.33543  1.0000
  C   C61       1.0  0.41919  0.56007  0.33400  1.0000
  C   C62       1.0  0.44197  0.58286  0.33598  1.0000
  C   C63       1.0  0.33467  0.98968  0.26909  1.0000
  C   C64       1.0  0.36755  0.99030  0.26544  1.0000
  C   C65       1.0  0.50097  0.61676  0.33825  1.0000
  C   C66       1.0  0.48997  0.66738  0.26824  1.0000
  C   C67       1.0  0.49045  0.63450  0.26455  1.0000
  C   C68       1.0  0.13300  0.51182  0.25765  1.0000
  C   C69       1.0  0.16589  0.51262  0.25592  1.0000
  C   C70       1.0  0.01224  0.86892  0.25731  1.0000
  C   C71       1.0  0.01286  0.83603  0.25561  1.0000
  H   H27       1.0  0.02319  0.82571  0.20176  1.0000
  H   H28       1.0  0.02093  0.88099  0.20369  1.0000
  H   H29       1.0  0.43817  0.89662  0.33365  1.0000
  H   H30       1.0  0.12087  0.52027  0.20381  1.0000
  H   H31       1.0  0.17613  0.52283  0.20180  1.0000
  H   H32       1.0  0.06385  0.60529  0.33394  1.0000
  H   H33       1.0  0.39573  0.56458  0.33293  1.0000
  H   H34       1.0  0.43744  0.60631  0.33691  1.0000
  H   H35       1.0  0.48245  0.62354  0.20817  1.0000
  H   H36       1.0  0.48132  0.67903  0.21388  1.0000
  H   H37       1.0  0.37856  0.98226  0.20919  1.0000
  H   H38       1.0  0.32305  0.98086  0.21488  1.0000
  C   C72       1.0  0.00080  0.78417  0.32640  1.0000
  C   C73       1.0  0.00092  0.71776  0.34498  1.0000
  N   N13       1.0  0.50040  0.73267  0.26453  1.0000
  C   C74       1.0  0.50025  0.76403  0.25082  1.0000
  C   C75       1.0  0.99677  0.77247  0.16801  1.0000
  N   N14       1.0  0.99350  0.77952  0.09453  1.0000
  C   C76       1.0  0.21783  0.50084  0.32680  1.0000
  C   C77       1.0  0.28424  0.50078  0.34538  1.0000
  N   N15       1.0  0.26934  0.00029  0.26491  1.0000
  C   C78       1.0  0.23799  0.00017  0.25122  1.0000
  C   C79       1.0  0.22954  0.49685  0.16836  1.0000
  N   N16       1.0  0.22252  0.49372  0.09481  1.0000
  C   C80       1.0  0.44283  0.92004  0.33488  1.0000
  C   C81       1.0  0.42006  0.94283  0.33725  1.0000
  N   N17       1.0  0.46580  0.96576  0.33605  1.0000
  C   C82       1.0  0.47208  0.93463  0.33573  1.0000
  C   C83       1.0  0.50135  0.91867  0.33567  1.0000
  N   N18       1.0  0.03706  0.96492  0.33663  1.0000
  C   C84       1.0  0.06812  0.97098  0.33658  1.0000
  C   C85       1.0  0.08287  0.94183  0.33608  1.0000
  C   C86       1.0  0.06007  0.91907  0.33803  1.0000
  C   C87       1.0  0.08332  0.00057  0.33601  1.0000
  C   C88       1.0  0.06735  0.52984  0.33607  1.0000
  N   N19       1.0  0.03623  0.53614  0.33599  1.0000
  C   C89       1.0  0.02996  0.56726  0.33595  1.0000
  C   C90       1.0  0.05920  0.58186  0.33507  1.0000
  C   C91       1.0  0.08197  0.55907  0.33698  1.0000
  N   N20       1.0  0.46501  0.53702  0.33544  1.0000
  C   C92       1.0  0.43396  0.53094  0.33541  1.0000
  C   C93       1.0  0.41874  0.00136  0.33639  1.0000
  C   C94       1.0  0.38523  0.00113  0.33889  1.0000
  C   C95       1.0  0.36896  0.51228  0.41461  1.0000
  C   C96       1.0  0.33607  0.51289  0.41624  1.0000
  C   C97       1.0  0.31795  0.00078  0.34477  1.0000
  C   C98       1.0  0.01198  0.63295  0.41424  1.0000
  C   C99       1.0  0.01276  0.66584  0.41591  1.0000
  C   C100      1.0  0.50091  0.68405  0.34423  1.0000
  C   C101      1.0  0.11682  0.00081  0.33367  1.0000
  C   C102      1.0  0.18411  0.00079  0.32757  1.0000
  C   C103      1.0  0.16747  0.98982  0.40357  1.0000
  C   C104      1.0  0.13459  0.99027  0.40731  1.0000
  C   C105      1.0  0.50111  0.88516  0.33308  1.0000
  C   C106      1.0  0.49027  0.86747  0.40649  1.0000
  C   C107      1.0  0.48965  0.83458  0.40276  1.0000
  C   C108      1.0  0.50077  0.81788  0.32705  1.0000
  H   H39       1.0  0.48083  0.82296  0.45694  1.0000
  H   H40       1.0  0.48223  0.87846  0.46276  1.0000
  H   H41       1.0  0.39663  0.93819  0.33851  1.0000
  H   H42       1.0  0.48167  0.98162  0.33604  1.0000
  H   H43       1.0  0.02035  0.52027  0.33597  1.0000
  H   H44       1.0  0.06456  0.89561  0.33911  1.0000
  H   H45       1.0  0.10632  0.93729  0.33508  1.0000
  H   H46       1.0  0.12364  0.98228  0.46373  1.0000
  H   H47       1.0  0.17913  0.98117  0.45791  1.0000
  H   H48       1.0  0.10540  0.56369  0.33830  1.0000
  H   H49       1.0  0.02038  0.62084  0.46816  1.0000
  H   H50       1.0  0.02292  0.67611  0.47008  1.0000
  H   H51       1.0  0.32574  0.52322  0.47006  1.0000
  H   H52       1.0  0.38102  0.52097  0.46826  1.0000
  N   N21       1.0  0.00027  0.76927  0.40686  1.0000
  C   C109      1.0  0.00020  0.73791  0.42055  1.0000
  C   C110      1.0  0.99677  0.72946  0.50338  1.0000
  N   N22       1.0  0.99355  0.72243  0.57689  1.0000
  N   N23       1.0  0.23274  0.50029  0.40725  1.0000
  C   C111      1.0  0.26410  0.50017  0.42096  1.0000
  C   C112      1.0  0.27255  0.49665  0.50375  1.0000
  N   N24       1.0  0.27960  0.49334  0.57721  1.0000
  C   C113      1.0  0.93467  0.47207  0.33635  1.0000
  C   C114      1.0  0.53095  0.43387  0.33665  1.0000
  C   C115      1.0  0.00070  0.08325  0.33602  1.0000
  C   C116      1.0  0.97110  0.06808  0.33543  1.0000
  C   C117      1.0  0.91919  0.06007  0.33400  1.0000
  C   C118      1.0  0.94196  0.08286  0.33598  1.0000
  C   C119      1.0  0.83467  0.48968  0.26909  1.0000
  C   C120      1.0  0.86755  0.49030  0.26544  1.0000
  C   C121      1.0  0.00097  0.11676  0.33825  1.0000
  C   C122      1.0  0.98997  0.16738  0.26824  1.0000
  C   C123      1.0  0.99045  0.13450  0.26455  1.0000
  C   C124      1.0  0.63300  0.01182  0.25765  1.0000
  C   C125      1.0  0.66588  0.01262  0.25592  1.0000
  C   C126      1.0  0.51224  0.36892  0.25731  1.0000
  C   C127      1.0  0.51286  0.33603  0.25561  1.0000
  H   H53       1.0  0.52319  0.32571  0.20176  1.0000
  H   H54       1.0  0.52093  0.38099  0.20369  1.0000
  H   H55       1.0  0.93817  0.39662  0.33365  1.0000
  H   H56       1.0  0.62087  0.02027  0.20381  1.0000
  H   H57       1.0  0.67613  0.02283  0.20180  1.0000
  H   H58       1.0  0.56385  0.10529  0.33394  1.0000
  H   H59       1.0  0.89573  0.06458  0.33293  1.0000
  H   H60       1.0  0.93744  0.10631  0.33691  1.0000
  H   H61       1.0  0.98245  0.12354  0.20817  1.0000
  H   H62       1.0  0.98132  0.17903  0.21388  1.0000
  H   H63       1.0  0.87856  0.48226  0.20919  1.0000
  H   H64       1.0  0.82306  0.48086  0.21488  1.0000
  C   C128      1.0  0.50080  0.28417  0.32640  1.0000
  C   C129      1.0  0.50092  0.21776  0.34498  1.0000
  N   N25       1.0  0.00040  0.23268  0.26453  1.0000
  C   C130      1.0  0.00025  0.26403  0.25082  1.0000
  C   C131      1.0  0.49677  0.27247  0.16801  1.0000
  N   N26       1.0  0.49350  0.27952  0.09453  1.0000
  C   C132      1.0  0.71783  0.00083  0.32680  1.0000
  C   C133      1.0  0.78424  0.00078  0.34538  1.0000
  N   N27       1.0  0.76934  0.50029  0.26491  1.0000
  C   C134      1.0  0.73799  0.50017  0.25122  1.0000
  C   C135      1.0  0.72954  0.99685  0.16836  1.0000
  N   N28       1.0  0.72252  0.99372  0.09481  1.0000
  C   C136      1.0  0.94283  0.42004  0.33488  1.0000
  C   C137      1.0  0.92006  0.44283  0.33725  1.0000
  N   N29       1.0  0.96579  0.46576  0.33605  1.0000
  C   C138      1.0  0.97208  0.43463  0.33573  1.0000
  C   C139      1.0  0.00136  0.41867  0.33567  1.0000
  N   N30       1.0  0.53706  0.46492  0.33663  1.0000
  C   C140      1.0  0.56812  0.47097  0.33658  1.0000
  C   C141      1.0  0.58287  0.44183  0.33608  1.0000
  C   C142      1.0  0.56007  0.41907  0.33803  1.0000
  C   C143      1.0  0.58332  0.50057  0.33601  1.0000
  C   C144      1.0  0.56735  0.02984  0.33607  1.0000
  N   N31       1.0  0.53623  0.03614  0.33599  1.0000
  C   C145      1.0  0.52996  0.06726  0.33595  1.0000
  C   C146      1.0  0.55920  0.08186  0.33507  1.0000
  C   C147      1.0  0.58198  0.05907  0.33698  1.0000
  N   N32       1.0  0.96502  0.03702  0.33544  1.0000
  C   C148      1.0  0.93396  0.03094  0.33541  1.0000
  C   C149      1.0  0.91874  0.50136  0.33639  1.0000
  C   C150      1.0  0.88523  0.50113  0.33889  1.0000
  C   C151      1.0  0.86896  0.01228  0.41461  1.0000
  C   C152      1.0  0.83607  0.01289  0.41624  1.0000
  C   C153      1.0  0.81795  0.50079  0.34477  1.0000
  C   C154      1.0  0.51198  0.13295  0.41424  1.0000
  C   C155      1.0  0.51276  0.16584  0.41591  1.0000
  C   C156      1.0  0.00091  0.18405  0.34423  1.0000
  C   C157      1.0  0.61682  0.50081  0.33367  1.0000
  C   C158      1.0  0.68411  0.50079  0.32757  1.0000
  C   C159      1.0  0.66747  0.48982  0.40357  1.0000
  C   C160      1.0  0.63458  0.49027  0.40731  1.0000
  C   C161      1.0  0.00111  0.38516  0.33308  1.0000
  C   C162      1.0  0.99027  0.36746  0.40649  1.0000
  C   C163      1.0  0.98965  0.33458  0.40276  1.0000
  C   C164      1.0  0.00077  0.31788  0.32705  1.0000
  H   H65       1.0  0.98083  0.32295  0.45694  1.0000
  H   H66       1.0  0.98223  0.37846  0.46276  1.0000
  H   H67       1.0  0.89663  0.43819  0.33851  1.0000
  H   H68       1.0  0.98167  0.48162  0.33604  1.0000
  H   H69       1.0  0.52035  0.02027  0.33597  1.0000
  H   H70       1.0  0.56456  0.39561  0.33911  1.0000
  H   H71       1.0  0.60632  0.43729  0.33508  1.0000
  H   H72       1.0  0.62364  0.48228  0.46373  1.0000
  H   H73       1.0  0.67913  0.48117  0.45791  1.0000
  H   H74       1.0  0.60540  0.06369  0.33830  1.0000
  H   H75       1.0  0.52038  0.12084  0.46816  1.0000
  H   H76       1.0  0.52292  0.17611  0.47008  1.0000
  H   H77       1.0  0.82574  0.02322  0.47006  1.0000
  H   H78       1.0  0.88102  0.02097  0.46826  1.0000
  N   N33       1.0  0.50027  0.26927  0.40686  1.0000
  C   C165      1.0  0.50020  0.23791  0.42055  1.0000
  C   C166      1.0  0.49677  0.22946  0.50338  1.0000
  N   N34       1.0  0.49355  0.22243  0.57689  1.0000
  N   N35       1.0  0.73274  0.00029  0.40725  1.0000
  C   C167      1.0  0.76410  0.00017  0.42096  1.0000
  C   C168      1.0  0.77255  0.99665  0.50375  1.0000
  N   N36       1.0  0.77960  0.99334  0.57721  1.0000
  C   C169      1.0  0.93467  0.97207  0.33635  1.0000
  C   C170      1.0  0.53095  0.93387  0.33665  1.0000
  C   C171      1.0  0.00070  0.58325  0.33602  1.0000
  C   C172      1.0  0.97110  0.56807  0.33543  1.0000
  C   C173      1.0  0.91919  0.56007  0.33400  1.0000
  C   C174      1.0  0.94196  0.58286  0.33598  1.0000
  C   C175      1.0  0.83467  0.98968  0.26909  1.0000
  C   C176      1.0  0.86755  0.99030  0.26544  1.0000
  C   C177      1.0  0.00097  0.61676  0.33825  1.0000
  C   C178      1.0  0.98997  0.66738  0.26824  1.0000
  C   C179      1.0  0.99045  0.63450  0.26455  1.0000
  C   C180      1.0  0.63300  0.51182  0.25765  1.0000
  C   C181      1.0  0.66588  0.51262  0.25592  1.0000
  C   C182      1.0  0.51224  0.86892  0.25731  1.0000
  C   C183      1.0  0.51286  0.83603  0.25561  1.0000
  H   H79       1.0  0.52319  0.82571  0.20176  1.0000
  H   H80       1.0  0.52093  0.88099  0.20369  1.0000
  H   H81       1.0  0.93817  0.89662  0.33365  1.0000
  H   H82       1.0  0.62087  0.52027  0.20381  1.0000
  H   H83       1.0  0.67613  0.52283  0.20180  1.0000
  H   H84       1.0  0.56385  0.60529  0.33394  1.0000
  H   H85       1.0  0.89573  0.56458  0.33293  1.0000
  H   H86       1.0  0.93744  0.60631  0.33691  1.0000
  H   H87       1.0  0.98245  0.62354  0.20817  1.0000
  H   H88       1.0  0.98132  0.67903  0.21388  1.0000
  H   H89       1.0  0.87856  0.98226  0.20919  1.0000
  H   H90       1.0  0.82306  0.98086  0.21488  1.0000
  C   C184      1.0  0.50080  0.78417  0.32640  1.0000
  C   C185      1.0  0.50092  0.71776  0.34498  1.0000
  N   N37       1.0  0.00040  0.73267  0.26453  1.0000
  C   C186      1.0  0.00025  0.76403  0.25082  1.0000
  C   C187      1.0  0.49677  0.77247  0.16801  1.0000
  N   N38       1.0  0.49350  0.77952  0.09453  1.0000
  C   C188      1.0  0.71783  0.50084  0.32680  1.0000
  C   C189      1.0  0.78424  0.50078  0.34538  1.0000
  N   N39       1.0  0.76934  0.00029  0.26491  1.0000
  C   C190      1.0  0.73799  0.00017  0.25122  1.0000
  C   C191      1.0  0.72954  0.49685  0.16836  1.0000
  N   N40       1.0  0.72252  0.49372  0.09481  1.0000
  C   C192      1.0  0.94283  0.92004  0.33488  1.0000
  C   C193      1.0  0.92006  0.94283  0.33725  1.0000
  N   N41       1.0  0.96579  0.96576  0.33605  1.0000
  C   C194      1.0  0.97208  0.93463  0.33573  1.0000
  C   C195      1.0  0.00136  0.91867  0.33567  1.0000
  N   N42       1.0  0.53706  0.96492  0.33663  1.0000
  C   C196      1.0  0.56812  0.97098  0.33658  1.0000
  C   C197      1.0  0.58287  0.94183  0.33608  1.0000
  C   C198      1.0  0.56007  0.91907  0.33803  1.0000
  C   C199      1.0  0.58332  0.00057  0.33601  1.0000
  C   C200      1.0  0.56735  0.52984  0.33607  1.0000
  N   N43       1.0  0.53623  0.53614  0.33599  1.0000
  C   C201      1.0  0.52996  0.56726  0.33595  1.0000
  C   C202      1.0  0.55920  0.58186  0.33507  1.0000
  C   C203      1.0  0.58198  0.55907  0.33698  1.0000
  N   N44       1.0  0.96502  0.53702  0.33544  1.0000
  C   C204      1.0  0.93396  0.53094  0.33541  1.0000
  C   C205      1.0  0.91874  0.00136  0.33639  1.0000
  C   C206      1.0  0.88523  0.00113  0.33889  1.0000
  C   C207      1.0  0.86896  0.51228  0.41461  1.0000
  C   C208      1.0  0.83607  0.51289  0.41624  1.0000
  C   C209      1.0  0.81795  0.00078  0.34477  1.0000
  C   C210      1.0  0.51198  0.63295  0.41424  1.0000
  C   C211      1.0  0.51276  0.66584  0.41591  1.0000
  C   C212      1.0  0.00091  0.68405  0.34423  1.0000
  C   C213      1.0  0.61682  0.00081  0.33367  1.0000
  C   C214      1.0  0.68411  0.00079  0.32757  1.0000
  C   C215      1.0  0.66747  0.98982  0.40357  1.0000
  C   C216      1.0  0.63458  0.99027  0.40731  1.0000
  C   C217      1.0  0.00111  0.88516  0.33308  1.0000
  C   C218      1.0  0.99027  0.86747  0.40649  1.0000
  C   C219      1.0  0.98965  0.83458  0.40276  1.0000
  C   C220      1.0  0.00077  0.81788  0.32705  1.0000
  H   H91       1.0  0.98083  0.82296  0.45694  1.0000
  H   H92       1.0  0.98223  0.87846  0.46276  1.0000
  H   H93       1.0  0.89663  0.93819  0.33851  1.0000
  H   H94       1.0  0.98167  0.98162  0.33604  1.0000
  H   H95       1.0  0.52035  0.52027  0.33597  1.0000
  H   H96       1.0  0.56456  0.89561  0.33911  1.0000
  H   H97       1.0  0.60632  0.93729  0.33508  1.0000
  H   H98       1.0  0.62364  0.98228  0.46373  1.0000
  H   H99       1.0  0.67913  0.98117  0.45791  1.0000
  H   H100      1.0  0.60540  0.56369  0.33830  1.0000
  H   H101      1.0  0.52038  0.62084  0.46816  1.0000
  H   H102      1.0  0.52292  0.67611  0.47008  1.0000
  H   H103      1.0  0.82574  0.52322  0.47006  1.0000
  H   H104      1.0  0.88102  0.52097  0.46826  1.0000
  N   N45       1.0  0.50027  0.76927  0.40686  1.0000
  C   C221      1.0  0.50020  0.73791  0.42055  1.0000
  C   C222      1.0  0.49677  0.72946  0.50338  1.0000
  N   N46       1.0  0.49355  0.72243  0.57689  1.0000
  N   N47       1.0  0.73274  0.50029  0.40725  1.0000
  C   C223      1.0  0.76410  0.50017  0.42096  1.0000
  C   C224      1.0  0.77255  0.49665  0.50375  1.0000
  N   N48       1.0  0.77960  0.49334  0.57721  1.0000
