data_image0
_chemical_formula_structural       C2HC2HN2C2H3NC2HC2H3NC2HC4OC4OH4N2C2H3NC2HC2H3NC2HC2HC2HN2C2H3NC2HC2H3NC2HC4OC4OH4N2C2H3NC2HC2H3NC2HC2HC2HN2C2H3NC2HC2H3NC2HC4OC4OH4N2C2H3NC2HC2H3NC2HC2HC2HN2C2H3NC2HC2H3NC2HC4OC4OH4N2C2H3NC2HC2H3NC2H
_chemical_formula_sum              "C112 H88 N32 O8"
_cell_length_a       31.5498
_cell_length_b       31.5498
_cell_length_c       14.9832
_cell_angle_alpha    90
_cell_angle_beta     90
_cell_angle_gamma    90

_space_group_name_H-M_alt    "P 1"
_space_group_IT_number       1

loop_
  _space_group_symop_operation_xyz
  'x, y, z'

loop_
  _atom_site_type_symbol
  _atom_site_label
  _atom_site_symmetry_multiplicity
  _atom_site_fract_x
  _atom_site_fract_y
  _atom_site_fract_z
  _atom_site_occupancy
  C   C1        1.0  0.49413  0.43986  0.33525  1.0000
  C   C2        1.0  0.46282  0.40784  0.33853  1.0000
  H   H1        1.0  0.02444  0.42944  0.32976  1.0000
  C   C3        1.0  0.03873  0.09293  0.32959  1.0000
  C   C4        1.0  0.00735  0.06097  0.33220  1.0000
  H   H2        1.0  0.47695  0.07142  0.33062  1.0000
  N   N1        1.0  0.03118  0.13516  0.32820  1.0000
  N   N2        1.0  0.47036  0.36561  0.33657  1.0000
  C   C5        1.0  0.03978  0.22981  0.32405  1.0000
  C   C6        1.0  0.08313  0.21240  0.31709  1.0000
  H   H3        1.0  0.09019  0.19324  0.37582  1.0000
  H   H4        1.0  0.10688  0.23753  0.31309  1.0000
  H   H5        1.0  0.58582  0.19309  0.25699  1.0000
  N   N3        1.0  0.53637  0.27275  0.32536  1.0000
  C   C7        1.0  0.49971  0.29510  0.33114  1.0000
  C   C8        1.0  0.50406  0.33958  0.33160  1.0000
  H   H6        1.0  0.03368  0.35268  0.32786  1.0000
  C   C9        1.0  0.27137  0.96124  0.34152  1.0000
  C   C10       1.0  0.28882  0.91780  0.33923  1.0000
  H   H7        1.0  0.30884  0.91384  0.28045  1.0000
  H   H8        1.0  0.26373  0.89398  0.33611  1.0000
  H   H9        1.0  0.30726  0.41199  0.39953  1.0000
  N   N4        1.0  0.22843  0.46465  0.34037  1.0000
  C   C11       1.0  0.20604  0.50139  0.34151  1.0000
  C   C12       1.0  0.16157  0.49703  0.33949  1.0000
  H   H10       1.0  0.14849  0.96735  0.33880  1.0000
  C   C13       1.0  0.48452  0.48420  0.33760  1.0000
  C   C14       1.0  0.41993  0.41949  0.34396  1.0000
  C   C15       1.0  0.40823  0.46245  0.34377  1.0000
  C   C16       1.0  0.44020  0.49382  0.34150  1.0000
  O   O1        1.0  0.38937  0.38888  0.34629  1.0000
  C   C17       1.0  0.01696  0.01663  0.33540  1.0000
  C   C18       1.0  0.06131  0.00701  0.33706  1.0000
  C   C19       1.0  0.09333  0.03832  0.33416  1.0000
  C   C20       1.0  0.08168  0.08123  0.32907  1.0000
  O   O2        1.0  0.11229  0.11178  0.32678  1.0000
  H   H11       1.0  0.38413  0.38306  0.40983  1.0000
  H   H12       1.0  0.11834  0.11681  0.26325  1.0000
  H   H13       1.0  0.42976  0.02422  0.34328  1.0000
  H   H14       1.0  0.07173  0.47668  0.34232  1.0000
  N   N5        1.0  0.13555  0.03078  0.33636  1.0000
  N   N6        1.0  0.36601  0.46999  0.34489  1.0000
  C   C21       1.0  0.41833  0.28835  0.34334  1.0000
  C   C22       1.0  0.46167  0.27096  0.33601  1.0000
  H   H15       1.0  0.41136  0.30811  0.28545  1.0000
  H   H16       1.0  0.41559  0.30705  0.40428  1.0000
  H   H17       1.0  0.89454  0.26322  0.34611  1.0000
  N   N7        1.0  0.96508  0.22803  0.33465  1.0000
  C   C23       1.0  0.00175  0.20568  0.32902  1.0000
  C   C24       1.0  0.99741  0.16119  0.32955  1.0000
  H   H18       1.0  0.96779  0.14811  0.33340  1.0000
  C   C25       1.0  0.21267  0.58295  0.34640  1.0000
  C   C26       1.0  0.23012  0.53950  0.34442  1.0000
  H   H19       1.0  0.23774  0.60675  0.35072  1.0000
  H   H20       1.0  0.19209  0.58683  0.40434  1.0000
  H   H21       1.0  0.19482  0.08886  0.28539  1.0000
  N   N8        1.0  0.27306  0.03609  0.34561  1.0000
  C   C27       1.0  0.29546  0.99936  0.34433  1.0000
  C   C28       1.0  0.33993  0.00374  0.34536  1.0000
  H   H22       1.0  0.35300  0.03342  0.34596  1.0000
  C   C29       1.0  0.49413  0.93986  0.33525  1.0000
  C   C30       1.0  0.46282  0.90784  0.33853  1.0000
  H   H23       1.0  0.02444  0.92944  0.32976  1.0000
  C   C31       1.0  0.03873  0.59293  0.32959  1.0000
  C   C32       1.0  0.00735  0.56097  0.33220  1.0000
  H   H24       1.0  0.47695  0.57142  0.33062  1.0000
  N   N9        1.0  0.03118  0.63516  0.32820  1.0000
  N   N10       1.0  0.47036  0.86562  0.33657  1.0000
  C   C33       1.0  0.03978  0.72981  0.32405  1.0000
  C   C34       1.0  0.08313  0.71240  0.31709  1.0000
  H   H25       1.0  0.09019  0.69325  0.37582  1.0000
  H   H26       1.0  0.10688  0.73753  0.31309  1.0000
  H   H27       1.0  0.58582  0.69309  0.25699  1.0000
  N   N11       1.0  0.53637  0.77275  0.32536  1.0000
  C   C35       1.0  0.49971  0.79510  0.33114  1.0000
  C   C36       1.0  0.50406  0.83958  0.33160  1.0000
  H   H28       1.0  0.03368  0.85268  0.32786  1.0000
  C   C37       1.0  0.27137  0.46124  0.34152  1.0000
  C   C38       1.0  0.28882  0.41780  0.33923  1.0000
  H   H29       1.0  0.30884  0.41384  0.28045  1.0000
  H   H30       1.0  0.26373  0.39398  0.33611  1.0000
  H   H31       1.0  0.30726  0.91199  0.39953  1.0000
  N   N12       1.0  0.22843  0.96465  0.34037  1.0000
  C   C39       1.0  0.20604  0.00139  0.34151  1.0000
  C   C40       1.0  0.16157  0.99703  0.33949  1.0000
  H   H32       1.0  0.14849  0.46735  0.33880  1.0000
  C   C41       1.0  0.48452  0.98420  0.33760  1.0000
  C   C42       1.0  0.41993  0.91949  0.34396  1.0000
  C   C43       1.0  0.40823  0.96245  0.34377  1.0000
  C   C44       1.0  0.44020  0.99382  0.34150  1.0000
  O   O3        1.0  0.38937  0.88888  0.34629  1.0000
  C   C45       1.0  0.01696  0.51663  0.33540  1.0000
  C   C46       1.0  0.06131  0.50701  0.33706  1.0000
  C   C47       1.0  0.09333  0.53832  0.33416  1.0000
  C   C48       1.0  0.08168  0.58123  0.32907  1.0000
  O   O4        1.0  0.11229  0.61178  0.32678  1.0000
  H   H33       1.0  0.38413  0.88307  0.40983  1.0000
  H   H34       1.0  0.11834  0.61682  0.26325  1.0000
  H   H35       1.0  0.42976  0.52422  0.34328  1.0000
  H   H36       1.0  0.07173  0.97668  0.34232  1.0000
  N   N13       1.0  0.13555  0.53078  0.33636  1.0000
  N   N14       1.0  0.36601  0.96999  0.34489  1.0000
  C   C49       1.0  0.41833  0.78835  0.34334  1.0000
  C   C50       1.0  0.46167  0.77096  0.33601  1.0000
  H   H37       1.0  0.41136  0.80811  0.28545  1.0000
  H   H38       1.0  0.41559  0.80705  0.40428  1.0000
  H   H39       1.0  0.89454  0.76322  0.34611  1.0000
  N   N15       1.0  0.96508  0.72803  0.33465  1.0000
  C   C51       1.0  0.00175  0.70568  0.32902  1.0000
  C   C52       1.0  0.99741  0.66119  0.32955  1.0000
  H   H40       1.0  0.96779  0.64811  0.33340  1.0000
  C   C53       1.0  0.21267  0.08295  0.34640  1.0000
  C   C54       1.0  0.23012  0.03950  0.34442  1.0000
  H   H41       1.0  0.23774  0.10675  0.35072  1.0000
  H   H42       1.0  0.19209  0.08683  0.40434  1.0000
  H   H43       1.0  0.19482  0.58886  0.28539  1.0000
  N   N16       1.0  0.27306  0.53609  0.34561  1.0000
  C   C55       1.0  0.29546  0.49936  0.34433  1.0000
  C   C56       1.0  0.33993  0.50374  0.34536  1.0000
  H   H44       1.0  0.35300  0.53342  0.34596  1.0000
  C   C57       1.0  0.99413  0.43986  0.33525  1.0000
  C   C58       1.0  0.96282  0.40784  0.33853  1.0000
  H   H45       1.0  0.52445  0.42944  0.32976  1.0000
  C   C59       1.0  0.53873  0.09293  0.32959  1.0000
  C   C60       1.0  0.50735  0.06097  0.33220  1.0000
  H   H46       1.0  0.97695  0.07142  0.33062  1.0000
  N   N17       1.0  0.53119  0.13516  0.32820  1.0000
  N   N18       1.0  0.97037  0.36561  0.33657  1.0000
  C   C61       1.0  0.53978  0.22981  0.32405  1.0000
  C   C62       1.0  0.58313  0.21240  0.31709  1.0000
  H   H47       1.0  0.59020  0.19324  0.37582  1.0000
  H   H48       1.0  0.60688  0.23753  0.31309  1.0000
  H   H49       1.0  0.08582  0.19309  0.25699  1.0000
  N   N19       1.0  0.03637  0.27275  0.32536  1.0000
  C   C63       1.0  0.99971  0.29510  0.33114  1.0000
  C   C64       1.0  0.00406  0.33958  0.33160  1.0000
  H   H50       1.0  0.53368  0.35268  0.32786  1.0000
  C   C65       1.0  0.77137  0.96124  0.34152  1.0000
  C   C66       1.0  0.78882  0.91780  0.33923  1.0000
  H   H51       1.0  0.80884  0.91384  0.28045  1.0000
  H   H52       1.0  0.76373  0.89398  0.33611  1.0000
  H   H53       1.0  0.80726  0.41199  0.39953  1.0000
  N   N20       1.0  0.72843  0.46465  0.34037  1.0000
  C   C67       1.0  0.70604  0.50139  0.34151  1.0000
  C   C68       1.0  0.66157  0.49703  0.33949  1.0000
  H   H54       1.0  0.64849  0.96735  0.33880  1.0000
  C   C69       1.0  0.98452  0.48420  0.33760  1.0000
  C   C70       1.0  0.91993  0.41949  0.34396  1.0000
  C   C71       1.0  0.90824  0.46245  0.34377  1.0000
  C   C72       1.0  0.94020  0.49382  0.34150  1.0000
  O   O5        1.0  0.88938  0.38888  0.34629  1.0000
  C   C73       1.0  0.51696  0.01663  0.33540  1.0000
  C   C74       1.0  0.56131  0.00701  0.33706  1.0000
  C   C75       1.0  0.59333  0.03832  0.33416  1.0000
  C   C76       1.0  0.58168  0.08123  0.32907  1.0000
  O   O6        1.0  0.61229  0.11178  0.32678  1.0000
  H   H55       1.0  0.88413  0.38306  0.40983  1.0000
  H   H56       1.0  0.61834  0.11681  0.26325  1.0000
  H   H57       1.0  0.92976  0.02422  0.34328  1.0000
  H   H58       1.0  0.57173  0.47668  0.34232  1.0000
  N   N21       1.0  0.63555  0.03078  0.33636  1.0000
  N   N22       1.0  0.86600  0.46999  0.34489  1.0000
  C   C77       1.0  0.91833  0.28835  0.34334  1.0000
  C   C78       1.0  0.96167  0.27096  0.33601  1.0000
  H   H59       1.0  0.91136  0.30811  0.28545  1.0000
  H   H60       1.0  0.91559  0.30705  0.40428  1.0000
  H   H61       1.0  0.39454  0.26322  0.34611  1.0000
  N   N23       1.0  0.46508  0.22803  0.33465  1.0000
  C   C79       1.0  0.50175  0.20568  0.32902  1.0000
  C   C80       1.0  0.49741  0.16119  0.32955  1.0000
  H   H62       1.0  0.46779  0.14811  0.33340  1.0000
  C   C81       1.0  0.71267  0.58295  0.34640  1.0000
  C   C82       1.0  0.73012  0.53950  0.34442  1.0000
  H   H63       1.0  0.73774  0.60675  0.35072  1.0000
  H   H64       1.0  0.69209  0.58683  0.40434  1.0000
  H   H65       1.0  0.69482  0.08886  0.28539  1.0000
  N   N24       1.0  0.77307  0.03609  0.34561  1.0000
  C   C83       1.0  0.79546  0.99936  0.34433  1.0000
  C   C84       1.0  0.83993  0.00374  0.34536  1.0000
  H   H66       1.0  0.85300  0.03342  0.34596  1.0000
  C   C85       1.0  0.99413  0.93986  0.33525  1.0000
  C   C86       1.0  0.96282  0.90784  0.33853  1.0000
  H   H67       1.0  0.52445  0.92944  0.32976  1.0000
  C   C87       1.0  0.53873  0.59293  0.32959  1.0000
  C   C88       1.0  0.50735  0.56097  0.33220  1.0000
  H   H68       1.0  0.97695  0.57142  0.33062  1.0000
  N   N25       1.0  0.53119  0.63516  0.32820  1.0000
  N   N26       1.0  0.97037  0.86562  0.33657  1.0000
  C   C89       1.0  0.53978  0.72981  0.32405  1.0000
  C   C90       1.0  0.58313  0.71240  0.31709  1.0000
  H   H69       1.0  0.59020  0.69325  0.37582  1.0000
  H   H70       1.0  0.60688  0.73753  0.31309  1.0000
  H   H71       1.0  0.08582  0.69309  0.25699  1.0000
  N   N27       1.0  0.03637  0.77275  0.32536  1.0000
  C   C91       1.0  0.99971  0.79510  0.33114  1.0000
  C   C92       1.0  0.00406  0.83958  0.33160  1.0000
  H   H72       1.0  0.53368  0.85268  0.32786  1.0000
  C   C93       1.0  0.77137  0.46124  0.34152  1.0000
  C   C94       1.0  0.78882  0.41780  0.33923  1.0000
  H   H73       1.0  0.80884  0.41384  0.28045  1.0000
  H   H74       1.0  0.76373  0.39398  0.33611  1.0000
  H   H75       1.0  0.80726  0.91199  0.39953  1.0000
  N   N28       1.0  0.72843  0.96465  0.34037  1.0000
  C   C95       1.0  0.70604  0.00139  0.34151  1.0000
  C   C96       1.0  0.66157  0.99703  0.33949  1.0000
  H   H76       1.0  0.64849  0.46735  0.33880  1.0000
  C   C97       1.0  0.98452  0.98420  0.33760  1.0000
  C   C98       1.0  0.91993  0.91949  0.34396  1.0000
  C   C99       1.0  0.90824  0.96245  0.34377  1.0000
  C   C100      1.0  0.94020  0.99382  0.34150  1.0000
  O   O7        1.0  0.88938  0.88888  0.34629  1.0000
  C   C101      1.0  0.51696  0.51663  0.33540  1.0000
  C   C102      1.0  0.56131  0.50701  0.33706  1.0000
  C   C103      1.0  0.59333  0.53832  0.33416  1.0000
  C   C104      1.0  0.58168  0.58123  0.32907  1.0000
  O   O8        1.0  0.61229  0.61178  0.32678  1.0000
  H   H77       1.0  0.88413  0.88307  0.40983  1.0000
  H   H78       1.0  0.61834  0.61682  0.26325  1.0000
  H   H79       1.0  0.92976  0.52422  0.34328  1.0000
  H   H80       1.0  0.57173  0.97668  0.34232  1.0000
  N   N29       1.0  0.63555  0.53078  0.33636  1.0000
  N   N30       1.0  0.86600  0.96999  0.34489  1.0000
  C   C105      1.0  0.91833  0.78835  0.34334  1.0000
  C   C106      1.0  0.96167  0.77096  0.33601  1.0000
  H   H81       1.0  0.91136  0.80811  0.28545  1.0000
  H   H82       1.0  0.91559  0.80705  0.40428  1.0000
  H   H83       1.0  0.39454  0.76322  0.34611  1.0000
  N   N31       1.0  0.46508  0.72803  0.33465  1.0000
  C   C107      1.0  0.50175  0.70568  0.32902  1.0000
  C   C108      1.0  0.49741  0.66119  0.32955  1.0000
  H   H84       1.0  0.46779  0.64811  0.33340  1.0000
  C   C109      1.0  0.71267  0.08295  0.34640  1.0000
  C   C110      1.0  0.73012  0.03950  0.34442  1.0000
  H   H85       1.0  0.73774  0.10675  0.35072  1.0000
  H   H86       1.0  0.69209  0.08683  0.40434  1.0000
  H   H87       1.0  0.69482  0.58886  0.28539  1.0000
  N   N32       1.0  0.77307  0.53609  0.34561  1.0000
  C   C111      1.0  0.79546  0.49936  0.34433  1.0000
  C   C112      1.0  0.83993  0.50374  0.34536  1.0000
  H   H88       1.0  0.85300  0.53342  0.34596  1.0000
