data_image0
_chemical_formula_structural       C8H3NO2C8H3NO2C8H3NO2C2H2C2H2C2H2C2H2C2H2C2H2C2H2C2H2C2H2C2H2C2H2C2H2C24H15C24H15C24H15C24H15C24H15C24H15C2H2C2H2C2H2C2H2C2H2C2H2C8H3NO2C8H3NO2C8H3NO2C8H3NO2C8H3NO2C8H3NO2
_chemical_formula_sum              "C252 H153 N9 O18"
_cell_length_a       77.9246
_cell_length_b       77.9246
_cell_length_c       14.9689
_cell_angle_alpha    90
_cell_angle_beta     90
_cell_angle_gamma    120

_space_group_name_H-M_alt    "P 1"
_space_group_IT_number       1

loop_
  _space_group_symop_operation_xyz
  'x, y, z'

loop_
  _atom_site_type_symbol
  _atom_site_label
  _atom_site_symmetry_multiplicity
  _atom_site_fract_x
  _atom_site_fract_y
  _atom_site_fract_z
  _atom_site_occupancy
  C   C1        1.0  0.05512  0.52774  0.32644  1.0000
  C   C2        1.0  0.04415  0.52503  0.24657  1.0000
  C   C3        1.0  0.02314  0.51464  0.24940  1.0000
  C   C4        1.0  0.01238  0.50636  0.32928  1.0000
  C   C5        1.0  0.99105  0.49564  0.33070  1.0000
  C   C6        1.0  0.97980  0.48350  0.25830  1.0000
  C   C7        1.0  0.95894  0.47320  0.25940  1.0000
  C   C8        1.0  0.94820  0.47430  0.33346  1.0000
  H   H1        1.0  0.98669  0.48178  0.20370  1.0000
  H   H2        1.0  0.95167  0.46511  0.20413  1.0000
  H   H3        1.0  0.01566  0.51328  0.19127  1.0000
  N   N1        1.0  0.05420  0.53196  0.16403  1.0000
  O   O1        1.0  0.05028  0.54413  0.12757  1.0000
  O   O2        1.0  0.04994  0.51795  0.11059  1.0000
  C   C9        1.0  0.47487  0.52792  0.32643  1.0000
  C   C10       1.0  0.47760  0.51967  0.24655  1.0000
  C   C11       1.0  0.48799  0.50904  0.24940  1.0000
  C   C12       1.0  0.49626  0.50657  0.32929  1.0000
  C   C13       1.0  0.50698  0.49595  0.33073  1.0000
  C   C14       1.0  0.51913  0.49685  0.25834  1.0000
  C   C15       1.0  0.52941  0.48627  0.25945  1.0000
  C   C16       1.0  0.52831  0.47443  0.33351  1.0000
  H   H4        1.0  0.52084  0.50545  0.20373  1.0000
  H   H5        1.0  0.53751  0.48710  0.20418  1.0000
  H   H6        1.0  0.48935  0.50293  0.19127  1.0000
  N   N2        1.0  0.47067  0.52279  0.16401  1.0000
  O   O3        1.0  0.45850  0.50670  0.12752  1.0000
  O   O4        1.0  0.48468  0.53254  0.11060  1.0000
  C   C17       1.0  0.47469  0.94749  0.32652  1.0000
  C   C18       1.0  0.48294  0.95845  0.24665  1.0000
  C   C19       1.0  0.49356  0.97947  0.24948  1.0000
  C   C20       1.0  0.49603  0.99022  0.32936  1.0000
  C   C21       1.0  0.50665  0.01155  0.33080  1.0000
  C   C22       1.0  0.50575  0.02280  0.25840  1.0000
  C   C23       1.0  0.51634  0.04367  0.25949  1.0000
  C   C24       1.0  0.52817  0.05441  0.33357  1.0000
  H   H7        1.0  0.49715  0.01591  0.20378  1.0000
  H   H8        1.0  0.51550  0.05094  0.20423  1.0000
  H   H9        1.0  0.49968  0.98695  0.19136  1.0000
  N   N3        1.0  0.47983  0.94840  0.16411  1.0000
  O   O5        1.0  0.49592  0.95233  0.12765  1.0000
  O   O6        1.0  0.47008  0.95266  0.11067  1.0000
  C   C25       1.0  0.29251  0.54102  0.25685  1.0000
  C   C26       1.0  0.31156  0.54350  0.26685  1.0000
  H   H10       1.0  0.28789  0.54189  0.19390  1.0000
  H   H11       1.0  0.32022  0.54664  0.21104  1.0000
  C   C27       1.0  0.24311  0.55310  0.26177  1.0000
  C   C28       1.0  0.26037  0.55163  0.26486  1.0000
  H   H12       1.0  0.24309  0.56378  0.22202  1.0000
  H   H13       1.0  0.27222  0.56139  0.22719  1.0000
  C   C29       1.0  0.46160  0.75203  0.25689  1.0000
  C   C30       1.0  0.45914  0.76861  0.26687  1.0000
  H   H14       1.0  0.46072  0.74653  0.19394  1.0000
  H   H15       1.0  0.45598  0.77412  0.21106  1.0000
  C   C31       1.0  0.44950  0.69055  0.26176  1.0000
  C   C32       1.0  0.45098  0.70927  0.26482  1.0000
  H   H16       1.0  0.43880  0.67984  0.22209  1.0000
  H   H17       1.0  0.44120  0.71136  0.22727  1.0000
  C   C33       1.0  0.25058  0.71010  0.25687  1.0000
  C   C34       1.0  0.23400  0.69106  0.26686  1.0000
  H   H18       1.0  0.25608  0.71472  0.19392  1.0000
  H   H19       1.0  0.22850  0.68239  0.21106  1.0000
  C   C35       1.0  0.31205  0.75950  0.26169  1.0000
  C   C36       1.0  0.29333  0.74224  0.26483  1.0000
  H   H20       1.0  0.32277  0.75950  0.22215  1.0000
  H   H21       1.0  0.29125  0.73037  0.22732  1.0000
  C   C37       1.0  0.71085  0.46134  0.25608  1.0000
  C   C38       1.0  0.69181  0.45888  0.26612  1.0000
  H   H22       1.0  0.71549  0.46053  0.19307  1.0000
  H   H23       1.0  0.68317  0.45581  0.21028  1.0000
  C   C39       1.0  0.76012  0.44905  0.26067  1.0000
  C   C40       1.0  0.74291  0.45061  0.26365  1.0000
  H   H24       1.0  0.76011  0.43838  0.22076  1.0000
  H   H25       1.0  0.73105  0.44090  0.22593  1.0000
  C   C41       1.0  0.54122  0.25002  0.25599  1.0000
  C   C42       1.0  0.54370  0.23346  0.26602  1.0000
  H   H26       1.0  0.54202  0.25546  0.19299  1.0000
  H   H27       1.0  0.54676  0.22787  0.21018  1.0000
  C   C43       1.0  0.55348  0.31157  0.26059  1.0000
  C   C44       1.0  0.55195  0.29281  0.26366  1.0000
  H   H28       1.0  0.56414  0.32223  0.22064  1.0000
  H   H29       1.0  0.56163  0.29066  0.22576  1.0000
  C   C45       1.0  0.75260  0.29173  0.25610  1.0000
  C   C46       1.0  0.76918  0.31076  0.26616  1.0000
  H   H30       1.0  0.74713  0.28710  0.19310  1.0000
  H   H31       1.0  0.77473  0.31943  0.21036  1.0000
  C   C47       1.0  0.69105  0.24245  0.26054  1.0000
  C   C48       1.0  0.70980  0.25967  0.26363  1.0000
  H   H32       1.0  0.68037  0.24247  0.22070  1.0000
  H   H33       1.0  0.71195  0.27153  0.22592  1.0000
  C   C49       1.0  0.17270  0.60000  0.35116  1.0000
  C   C50       1.0  0.15174  0.58979  0.34694  1.0000
  C   C51       1.0  0.14036  0.56889  0.33606  1.0000
  C   C52       1.0  0.15074  0.55830  0.32869  1.0000
  C   C53       1.0  0.17158  0.56802  0.33386  1.0000
  C   C54       1.0  0.18231  0.58875  0.34419  1.0000
  C   C55       1.0  0.11905  0.55871  0.33374  1.0000
  C   C56       1.0  0.10864  0.56704  0.29136  1.0000
  C   C57       1.0  0.08778  0.55705  0.28951  1.0000
  C   C58       1.0  0.07636  0.53807  0.32847  1.0000
  C   C59       1.0  0.08669  0.52974  0.37132  1.0000
  C   C60       1.0  0.10753  0.53987  0.37429  1.0000
  C   C61       1.0  0.18428  0.62108  0.36006  1.0000
  C   C62       1.0  0.18078  0.63384  0.30537  1.0000
  C   C63       1.0  0.19399  0.65445  0.30513  1.0000
  C   C64       1.0  0.21108  0.66305  0.36003  1.0000
  C   C65       1.0  0.21421  0.65034  0.41664  1.0000
  C   C66       1.0  0.20097  0.62982  0.41739  1.0000
  C   C67       1.0  0.18212  0.55759  0.33077  1.0000
  C   C68       1.0  0.19101  0.55562  0.40939  1.0000
  C   C69       1.0  0.20482  0.54903  0.40517  1.0000
  C   C70       1.0  0.21044  0.54466  0.32209  1.0000
  C   C71       1.0  0.20113  0.54625  0.24374  1.0000
  C   C72       1.0  0.18707  0.55255  0.24793  1.0000
  H   H34       1.0  0.19139  0.66310  0.26207  1.0000
  H   H35       1.0  0.16924  0.62812  0.26100  1.0000
  H   H36       1.0  0.22676  0.65575  0.45474  1.0000
  H   H37       1.0  0.20413  0.62119  0.45797  1.0000
  H   H38       1.0  0.18828  0.55994  0.46983  1.0000
  H   H39       1.0  0.21181  0.54889  0.46283  1.0000
  H   H40       1.0  0.18152  0.55471  0.18967  1.0000
  H   H41       1.0  0.20511  0.54357  0.18240  1.0000
  H   H42       1.0  0.11419  0.53334  0.40787  1.0000
  H   H43       1.0  0.07909  0.51606  0.40051  1.0000
  H   H44       1.0  0.08099  0.56390  0.25979  1.0000
  H   H45       1.0  0.11617  0.58049  0.26010  1.0000
  H   H46       1.0  0.14465  0.59775  0.35506  1.0000
  H   H47       1.0  0.19749  0.59578  0.34506  1.0000
  H   H48       1.0  0.14314  0.54327  0.31936  1.0000
  C   C73       1.0  0.40260  0.57322  0.35116  1.0000
  C   C74       1.0  0.41282  0.56247  0.34691  1.0000
  C   C75       1.0  0.43372  0.57200  0.33604  1.0000
  C   C76       1.0  0.44430  0.59298  0.32870  1.0000
  C   C77       1.0  0.43458  0.60409  0.33386  1.0000
  C   C78       1.0  0.41385  0.59409  0.34419  1.0000
  C   C79       1.0  0.44390  0.56088  0.33373  1.0000
  C   C80       1.0  0.43557  0.54214  0.29132  1.0000
  C   C81       1.0  0.44557  0.53127  0.28946  1.0000
  C   C82       1.0  0.46454  0.53883  0.32845  1.0000
  C   C83       1.0  0.47286  0.55748  0.37132  1.0000
  C   C84       1.0  0.46273  0.56819  0.37430  1.0000
  C   C85       1.0  0.38153  0.56372  0.36009  1.0000
  C   C86       1.0  0.36877  0.54747  0.30537  1.0000
  C   C87       1.0  0.34815  0.54007  0.30515  1.0000
  C   C88       1.0  0.33956  0.54856  0.36005  1.0000
  C   C89       1.0  0.35226  0.56439  0.41673  1.0000
  C   C90       1.0  0.37279  0.57166  0.41746  1.0000
  C   C91       1.0  0.44501  0.62506  0.33083  1.0000
  C   C92       1.0  0.44703  0.63593  0.40946  1.0000
  C   C93       1.0  0.45356  0.65631  0.40519  1.0000
  C   C94       1.0  0.45792  0.66629  0.32210  1.0000
  C   C95       1.0  0.45633  0.65541  0.24375  1.0000
  C   C96       1.0  0.44999  0.63504  0.24796  1.0000
  H   H49       1.0  0.33950  0.52883  0.26202  1.0000
  H   H50       1.0  0.37448  0.54165  0.26095  1.0000
  H   H51       1.0  0.34686  0.57153  0.45481  1.0000
  H   H52       1.0  0.38142  0.58345  0.45805  1.0000
  H   H53       1.0  0.44270  0.62887  0.46989  1.0000
  H   H54       1.0  0.45374  0.66346  0.46287  1.0000
  H   H55       1.0  0.44784  0.62733  0.18971  1.0000
  H   H56       1.0  0.45898  0.66205  0.18239  1.0000
  H   H57       1.0  0.46927  0.58138  0.40789  1.0000
  H   H58       1.0  0.48655  0.56356  0.40054  1.0000
  H   H59       1.0  0.43871  0.51762  0.25974  1.0000
  H   H60       1.0  0.42212  0.53621  0.26005  1.0000
  H   H61       1.0  0.40486  0.54743  0.35503  1.0000
  H   H62       1.0  0.40682  0.60223  0.34510  1.0000
  H   H63       1.0  0.45933  0.60039  0.31938  1.0000
  C   C97       1.0  0.42938  0.82990  0.35110  1.0000
  C   C98       1.0  0.44013  0.85086  0.34687  1.0000
  C   C99       1.0  0.43061  0.86225  0.33607  1.0000
  C   C100      1.0  0.40963  0.85186  0.32872  1.0000
  C   C101      1.0  0.39851  0.83102  0.33383  1.0000
  C   C102      1.0  0.40851  0.82029  0.34415  1.0000
  C   C103      1.0  0.44173  0.88355  0.33379  1.0000
  C   C104      1.0  0.46048  0.89396  0.29142  1.0000
  C   C105      1.0  0.47134  0.91482  0.28957  1.0000
  C   C106      1.0  0.46378  0.92624  0.32854  1.0000
  C   C107      1.0  0.44513  0.91591  0.37141  1.0000
  C   C108      1.0  0.43442  0.89507  0.37438  1.0000
  C   C109      1.0  0.43887  0.81832  0.35999  1.0000
  C   C110      1.0  0.45514  0.82183  0.30534  1.0000
  C   C111      1.0  0.46254  0.80861  0.30510  1.0000
  C   C112      1.0  0.45407  0.79154  0.36007  1.0000
  C   C113      1.0  0.43822  0.78840  0.41666  1.0000
  C   C114      1.0  0.43094  0.80165  0.41741  1.0000
  C   C115      1.0  0.37755  0.82048  0.33080  1.0000
  C   C116      1.0  0.36667  0.81163  0.40943  1.0000
  C   C117      1.0  0.34627  0.79781  0.40519  1.0000
  C   C118      1.0  0.33631  0.79216  0.32207  1.0000
  C   C119      1.0  0.34720  0.80145  0.24371  1.0000
  C   C120      1.0  0.36757  0.81547  0.24792  1.0000
  H   H64       1.0  0.47380  0.81122  0.26208  1.0000
  H   H65       1.0  0.46096  0.83336  0.26094  1.0000
  H   H66       1.0  0.43107  0.77585  0.45472  1.0000
  H   H67       1.0  0.41913  0.79847  0.45790  1.0000
  H   H68       1.0  0.37372  0.81435  0.46986  1.0000
  H   H69       1.0  0.33914  0.79081  0.46283  1.0000
  H   H70       1.0  0.37527  0.82105  0.18968  1.0000
  H   H71       1.0  0.34055  0.79746  0.18235  1.0000
  H   H72       1.0  0.42122  0.88841  0.40792  1.0000
  H   H73       1.0  0.43904  0.92351  0.40059  1.0000
  H   H74       1.0  0.48499  0.92162  0.25985  1.0000
  H   H75       1.0  0.46640  0.88644  0.26012  1.0000
  H   H76       1.0  0.45517  0.85795  0.35504  1.0000
  H   H77       1.0  0.40036  0.80511  0.34501  1.0000
  H   H78       1.0  0.40221  0.85947  0.31944  1.0000
  C   C121      1.0  0.83037  0.40184  0.35066  1.0000
  C   C122      1.0  0.85134  0.41208  0.34735  1.0000
  C   C123      1.0  0.86272  0.43299  0.33701  1.0000
  C   C124      1.0  0.85233  0.44356  0.32907  1.0000
  C   C125      1.0  0.83148  0.43382  0.33321  1.0000
  C   C126      1.0  0.82075  0.41308  0.34316  1.0000
  C   C127      1.0  0.88403  0.44320  0.33612  1.0000
  C   C128      1.0  0.89462  0.43497  0.29464  1.0000
  C   C129      1.0  0.91549  0.44501  0.29423  1.0000
  C   C130      1.0  0.92687  0.46390  0.33447  1.0000
  C   C131      1.0  0.91625  0.47214  0.37563  1.0000
  C   C132      1.0  0.89540  0.46199  0.37707  1.0000
  C   C133      1.0  0.81879  0.38077  0.35949  1.0000
  C   C134      1.0  0.82235  0.36801  0.30506  1.0000
  C   C135      1.0  0.80915  0.34739  0.30485  1.0000
  C   C136      1.0  0.79203  0.33879  0.35949  1.0000
  C   C137      1.0  0.78883  0.35150  0.41582  1.0000
  C   C138      1.0  0.80206  0.37202  0.41655  1.0000
  C   C139      1.0  0.82094  0.44424  0.33014  1.0000
  C   C140      1.0  0.81203  0.44620  0.40871  1.0000
  C   C141      1.0  0.79825  0.45282  0.40442  1.0000
  C   C142      1.0  0.79270  0.45727  0.32133  1.0000
  C   C143      1.0  0.80202  0.45569  0.24303  1.0000
  C   C144      1.0  0.81603  0.44931  0.24729  1.0000
  H   H79       1.0  0.81181  0.33874  0.26208  1.0000
  H   H80       1.0  0.83396  0.37373  0.26108  1.0000
  H   H81       1.0  0.77623  0.34609  0.45350  1.0000
  H   H82       1.0  0.79883  0.38065  0.45681  1.0000
  H   H83       1.0  0.81473  0.44186  0.46915  1.0000
  H   H84       1.0  0.79126  0.45300  0.46206  1.0000
  H   H85       1.0  0.82162  0.44721  0.18907  1.0000
  H   H86       1.0  0.79811  0.45844  0.18168  1.0000
  H   H87       1.0  0.88862  0.46854  0.40964  1.0000
  H   H88       1.0  0.92359  0.48588  0.40431  1.0000
  H   H89       1.0  0.92229  0.43813  0.26485  1.0000
  H   H90       1.0  0.88723  0.42158  0.26283  1.0000
  H   H91       1.0  0.85842  0.40412  0.35601  1.0000
  H   H92       1.0  0.80556  0.40603  0.34349  1.0000
  H   H93       1.0  0.85994  0.45860  0.32016  1.0000
  C   C145      1.0  0.60074  0.42901  0.35062  1.0000
  C   C146      1.0  0.59051  0.43976  0.34731  1.0000
  C   C147      1.0  0.56960  0.43024  0.33702  1.0000
  C   C148      1.0  0.55901  0.40927  0.32908  1.0000
  C   C149      1.0  0.56875  0.39816  0.33321  1.0000
  C   C150      1.0  0.58949  0.40816  0.34313  1.0000
  C   C151      1.0  0.55939  0.44135  0.33616  1.0000
  C   C152      1.0  0.56763  0.46017  0.29468  1.0000
  C   C153      1.0  0.55760  0.47101  0.29430  1.0000
  C   C154      1.0  0.53871  0.46350  0.33452  1.0000
  C   C155      1.0  0.53046  0.44464  0.37567  1.0000
  C   C156      1.0  0.54060  0.43393  0.37710  1.0000
  C   C157      1.0  0.62181  0.43851  0.35943  1.0000
  C   C158      1.0  0.63457  0.45482  0.30502  1.0000
  C   C159      1.0  0.65519  0.46225  0.30480  1.0000
  C   C160      1.0  0.66378  0.45370  0.35935  1.0000
  C   C161      1.0  0.65107  0.43778  0.41560  1.0000
  C   C162      1.0  0.63055  0.43051  0.41644  1.0000
  C   C163      1.0  0.55832  0.37720  0.33014  1.0000
  C   C164      1.0  0.55634  0.36632  0.40870  1.0000
  C   C165      1.0  0.54972  0.34592  0.40440  1.0000
  C   C166      1.0  0.54525  0.33592  0.32132  1.0000
  C   C167      1.0  0.54682  0.34682  0.24304  1.0000
  C   C168      1.0  0.55323  0.36721  0.24729  1.0000
  H   H94       1.0  0.66385  0.47357  0.26209  1.0000
  H   H95       1.0  0.62885  0.46073  0.26108  1.0000
  H   H96       1.0  0.65648  0.43060  0.45340  1.0000
  H   H97       1.0  0.62192  0.41865  0.45671  1.0000
  H   H98       1.0  0.56071  0.37338  0.46913  1.0000
  H   H99       1.0  0.54955  0.33876  0.46203  1.0000
  H   H100      1.0  0.55534  0.37492  0.18909  1.0000
  H   H101      1.0  0.54409  0.34017  0.18168  1.0000
  H   H102      1.0  0.53406  0.42061  0.40970  1.0000
  H   H103      1.0  0.51672  0.43824  0.40436  1.0000
  H   H104      1.0  0.56448  0.48469  0.26488  1.0000
  H   H105      1.0  0.58102  0.46616  0.26286  1.0000
  H   H106      1.0  0.59847  0.45480  0.35601  1.0000
  H   H107      1.0  0.59653  0.40002  0.34344  1.0000
  H   H108      1.0  0.54397  0.40185  0.32020  1.0000
  C   C169      1.0  0.57359  0.17225  0.35054  1.0000
  C   C170      1.0  0.56284  0.15128  0.34727  1.0000
  C   C171      1.0  0.57236  0.13988  0.33699  1.0000
  C   C172      1.0  0.59333  0.15026  0.32903  1.0000
  C   C173      1.0  0.60445  0.17111  0.33312  1.0000
  C   C174      1.0  0.59445  0.18186  0.34301  1.0000
  C   C175      1.0  0.56125  0.11857  0.33617  1.0000
  C   C176      1.0  0.54243  0.10799  0.29467  1.0000
  C   C177      1.0  0.53159  0.08711  0.29434  1.0000
  C   C178      1.0  0.53909  0.07574  0.33457  1.0000
  C   C179      1.0  0.55795  0.08635  0.37575  1.0000
  C   C180      1.0  0.56866  0.10719  0.37714  1.0000
  C   C181      1.0  0.56410  0.18384  0.35932  1.0000
  C   C182      1.0  0.54778  0.18027  0.30495  1.0000
  C   C183      1.0  0.54036  0.19347  0.30473  1.0000
  C   C184      1.0  0.54891  0.21061  0.35925  1.0000
  C   C185      1.0  0.56483  0.21383  0.41546  1.0000
  C   C186      1.0  0.57212  0.20060  0.41623  1.0000
  C   C187      1.0  0.62540  0.18163  0.32994  1.0000
  C   C188      1.0  0.63628  0.19054  0.40851  1.0000
  C   C189      1.0  0.65669  0.20431  0.40425  1.0000
  C   C190      1.0  0.66668  0.20987  0.32115  1.0000
  C   C191      1.0  0.65578  0.20055  0.24285  1.0000
  C   C192      1.0  0.63540  0.18656  0.24711  1.0000
  H   H109      1.0  0.52902  0.19080  0.26205  1.0000
  H   H110      1.0  0.54187  0.16864  0.26106  1.0000
  H   H111      1.0  0.57202  0.22642  0.45325  1.0000
  H   H112      1.0  0.58397  0.20381  0.45657  1.0000
  H   H113      1.0  0.62923  0.18785  0.46894  1.0000
  H   H114      1.0  0.66383  0.21131  0.46188  1.0000
  H   H115      1.0  0.62769  0.18095  0.18891  1.0000
  H   H116      1.0  0.66244  0.20447  0.18150  1.0000
  H   H117      1.0  0.58199  0.11398  0.40973  1.0000
  H   H118      1.0  0.56435  0.07901  0.40443  1.0000
  H   H119      1.0  0.51791  0.08032  0.26491  1.0000
  H   H120      1.0  0.53643  0.11538  0.26287  1.0000
  H   H121      1.0  0.54781  0.14420  0.35599  1.0000
  H   H122      1.0  0.60259  0.19704  0.34327  1.0000
  H   H123      1.0  0.60074  0.14264  0.32014  1.0000
  C   C193      1.0  0.02360  0.50902  0.40770  1.0000
  C   C194      1.0  0.04442  0.51955  0.40644  1.0000
  H   H124      1.0  0.01671  0.50302  0.46710  1.0000
  H   H125      1.0  0.05175  0.52122  0.46543  1.0000
  C   C195      1.0  0.95945  0.48626  0.40629  1.0000
  C   C196      1.0  0.98031  0.49676  0.40468  1.0000
  H   H126      1.0  0.95258  0.48736  0.46242  1.0000
  H   H127      1.0  0.98756  0.50554  0.45833  1.0000
  C   C197      1.0  0.49359  0.51511  0.40771  1.0000
  C   C198      1.0  0.48306  0.52541  0.40644  1.0000
  H   H128      1.0  0.49959  0.51423  0.46711  1.0000
  H   H129      1.0  0.48139  0.53107  0.46543  1.0000
  C   C199      1.0  0.51635  0.47373  0.40632  1.0000
  C   C200      1.0  0.50585  0.48409  0.40471  1.0000
  H   H130      1.0  0.51525  0.46576  0.46246  1.0000
  H   H131      1.0  0.49707  0.48256  0.45834  1.0000
  C   C201      1.0  0.48748  0.97900  0.40778  1.0000
  C   C202      1.0  0.47719  0.95818  0.40652  1.0000
  H   H132      1.0  0.48836  0.98589  0.46718  1.0000
  H   H133      1.0  0.47153  0.95085  0.46551  1.0000
  C   C203      1.0  0.52886  0.04315  0.40640  1.0000
  C   C204      1.0  0.51850  0.02229  0.40479  1.0000
  H   H134      1.0  0.53683  0.05002  0.46253  1.0000
  H   H135      1.0  0.52004  0.01504  0.45843  1.0000
  C   C205      1.0  0.31915  0.54309  0.35220  1.0000
  C   C206      1.0  0.30671  0.53922  0.42786  1.0000
  C   C207      1.0  0.28758  0.53685  0.41656  1.0000
  C   C208      1.0  0.28028  0.53816  0.33171  1.0000
  C   C209      1.0  0.26192  0.53812  0.32300  1.0000
  C   C210      1.0  0.24522  0.52581  0.37663  1.0000
  C   C211      1.0  0.22802  0.52743  0.37451  1.0000
  C   C212      1.0  0.22674  0.54122  0.31749  1.0000
  H   H136      1.0  0.24554  0.51572  0.41934  1.0000
  H   H137      1.0  0.21651  0.51864  0.41614  1.0000
  H   H138      1.0  0.27931  0.53506  0.47253  1.0000
  N   N4        1.0  0.31347  0.53766  0.51374  1.0000
  O   O7        1.0  0.31374  0.55024  0.56717  1.0000
  O   O8        1.0  0.30279  0.52069  0.54630  1.0000
  C   C213      1.0  0.45953  0.77660  0.35222  1.0000
  C   C214      1.0  0.46340  0.76802  0.42789  1.0000
  C   C215      1.0  0.46577  0.75126  0.41660  1.0000
  C   C216      1.0  0.46445  0.74265  0.33174  1.0000
  C   C217      1.0  0.46448  0.72433  0.32304  1.0000
  C   C218      1.0  0.47679  0.71994  0.37662  1.0000
  C   C219      1.0  0.47517  0.70112  0.37448  1.0000
  C   C220      1.0  0.46137  0.68605  0.31749  1.0000
  H   H139      1.0  0.48688  0.73034  0.41934  1.0000
  H   H140      1.0  0.48396  0.69839  0.41610  1.0000
  H   H141      1.0  0.46754  0.74477  0.47255  1.0000
  N   N5        1.0  0.46494  0.77634  0.51377  1.0000
  O   O9        1.0  0.45235  0.76402  0.56716  1.0000
  O   O10       1.0  0.48191  0.78263  0.54639  1.0000
  C   C221      1.0  0.22600  0.68346  0.35220  1.0000
  C   C222      1.0  0.23458  0.69590  0.42787  1.0000
  C   C223      1.0  0.25134  0.71503  0.41658  1.0000
  C   C224      1.0  0.25995  0.72233  0.33173  1.0000
  C   C225      1.0  0.27827  0.74069  0.32301  1.0000
  C   C226      1.0  0.28266  0.75738  0.37663  1.0000
  C   C227      1.0  0.30148  0.77459  0.37446  1.0000
  C   C228      1.0  0.31655  0.77587  0.31746  1.0000
  H   H142      1.0  0.27226  0.75708  0.41932  1.0000
  H   H143      1.0  0.30421  0.78610  0.41610  1.0000
  H   H144      1.0  0.25784  0.72330  0.47254  1.0000
  N   N6        1.0  0.22627  0.68913  0.51375  1.0000
  O   O11       1.0  0.23859  0.68885  0.56714  1.0000
  O   O12       1.0  0.21999  0.69981  0.54639  1.0000
  C   C229      1.0  0.68419  0.45920  0.35152  1.0000
  C   C230      1.0  0.69661  0.46297  0.42721  1.0000
  C   C231      1.0  0.71573  0.46533  0.41587  1.0000
  C   C232      1.0  0.72304  0.46408  0.33094  1.0000
  C   C233      1.0  0.74138  0.46409  0.32215  1.0000
  C   C234      1.0  0.75806  0.47630  0.37604  1.0000
  C   C235      1.0  0.77522  0.47460  0.37392  1.0000
  C   C236      1.0  0.77647  0.46083  0.31668  1.0000
  H   H145      1.0  0.75777  0.48637  0.41894  1.0000
  H   H146      1.0  0.78673  0.48332  0.41571  1.0000
  H   H147      1.0  0.72398  0.46703  0.47183  1.0000
  N   N7        1.0  0.68981  0.46443  0.51316  1.0000
  O   O13       1.0  0.68951  0.45178  0.56625  1.0000
  O   O14       1.0  0.70050  0.48136  0.54614  1.0000
  C   C237      1.0  0.54340  0.22552  0.35142  1.0000
  C   C238      1.0  0.53963  0.23416  0.42713  1.0000
  C   C239      1.0  0.53726  0.25092  0.41580  1.0000
  C   C240      1.0  0.53848  0.25947  0.33087  1.0000
  C   C241      1.0  0.53847  0.27780  0.32210  1.0000
  C   C242      1.0  0.52626  0.28227  0.37603  1.0000
  C   C243      1.0  0.52795  0.30112  0.37393  1.0000
  C   C244      1.0  0.54171  0.31614  0.31664  1.0000
  H   H148      1.0  0.51620  0.27191  0.41898  1.0000
  H   H149      1.0  0.51924  0.30390  0.41579  1.0000
  H   H150      1.0  0.53556  0.25746  0.47177  1.0000
  N   N8        1.0  0.53818  0.22591  0.51308  1.0000
  O   O15       1.0  0.55084  0.23826  0.56615  1.0000
  O   O16       1.0  0.52125  0.21966  0.54609  1.0000
  C   C245      1.0  0.77711  0.31838  0.35158  1.0000
  C   C246      1.0  0.76846  0.30595  0.42725  1.0000
  C   C247      1.0  0.75170  0.28683  0.41588  1.0000
  C   C248      1.0  0.74315  0.27953  0.33093  1.0000
  C   C249      1.0  0.72481  0.26120  0.32213  1.0000
  C   C250      1.0  0.72034  0.24450  0.37593  1.0000
  C   C251      1.0  0.70148  0.22734  0.37376  1.0000
  C   C252      1.0  0.68647  0.22609  0.31650  1.0000
  H   H151      1.0  0.73069  0.24480  0.41888  1.0000
  H   H152      1.0  0.69870  0.21584  0.41558  1.0000
  H   H153      1.0  0.74515  0.27859  0.47182  1.0000
  N   N9        1.0  0.77672  0.31274  0.51322  1.0000
  O   O17       1.0  0.76436  0.31304  0.56631  1.0000
  O   O18       1.0  0.78296  0.30206  0.54617  1.0000
