data_image0
_chemical_formula_structural       C2H3NHC2HCOC3H2C3HCH3COC3HCH3COC2HCONC15H10NHNHNC18H12NHNHNHC3HCH3COC3HCH3COC2H3
_chemical_formula_sum              "C66 H54 N8 O6"
_cell_length_a       32.4982
_cell_length_b       32.4993
_cell_length_c       14.8057
_cell_angle_alpha    90
_cell_angle_beta     90
_cell_angle_gamma    119.999

_space_group_name_H-M_alt    "P 1"
_space_group_IT_number       1

loop_
  _space_group_symop_operation_xyz
  'x, y, z'

loop_
  _atom_site_type_symbol
  _atom_site_label
  _atom_site_symmetry_multiplicity
  _atom_site_fract_x
  _atom_site_fract_y
  _atom_site_fract_z
  _atom_site_occupancy
  C   C1        1.0  0.03746  0.54968  0.29735  1.0000
  C   C2        1.0  0.06226  0.59329  0.24066  1.0000
  H   H1        1.0  0.09903  0.60382  0.22569  1.0000
  H   H2        1.0  0.06188  0.62279  0.27512  1.0000
  H   H3        1.0  0.04395  0.58736  0.17600  1.0000
  N   N1        1.0  0.14272  0.58576  0.35918  1.0000
  H   H4        1.0  0.13084  0.60410  0.39084  1.0000
  C   C3        1.0  0.03159  0.48245  0.38182  1.0000
  C   C4        1.0  0.05983  0.52536  0.33430  1.0000
  H   H5        1.0  0.04766  0.46520  0.40985  1.0000
  C   C5        1.0  0.10957  0.54241  0.32649  1.0000
  O   O1        1.0  0.12281  0.51068  0.30099  1.0000
  C   C6        1.0  0.21550  0.60081  0.28105  1.0000
  C   C7        1.0  0.19136  0.60512  0.35695  1.0000
  C   C8        1.0  0.21920  0.63342  0.43009  1.0000
  H   H6        1.0  0.19692  0.58250  0.22514  1.0000
  H   H7        1.0  0.20309  0.63785  0.48566  1.0000
  C   C9        1.0  0.52863  0.47539  0.35856  1.0000
  C   C10       1.0  0.46671  0.49107  0.29733  1.0000
  C   C11       1.0  0.48571  0.46072  0.31108  1.0000
  H   H8        1.0  0.46845  0.42740  0.28305  1.0000
  C   C12       1.0  0.42309  0.47226  0.24066  1.0000
  H   H9        1.0  0.41257  0.49851  0.22569  1.0000
  H   H10       1.0  0.39358  0.44239  0.27513  1.0000
  H   H11       1.0  0.42901  0.45987  0.17600  1.0000
  C   C13       1.0  0.54568  0.44270  0.36626  1.0000
  O   O2        1.0  0.51400  0.39771  0.39176  1.0000
  C   C14       1.0  0.54106  0.05654  0.35847  1.0000
  C   C15       1.0  0.52531  0.97890  0.29731  1.0000
  C   C16       1.0  0.55566  0.02826  0.31092  1.0000
  H   H12       1.0  0.58897  0.04430  0.28281  1.0000
  C   C17       1.0  0.54404  0.95408  0.24048  1.0000
  H   H13       1.0  0.51776  0.91731  0.22558  1.0000
  H   H14       1.0  0.57395  0.95444  0.27479  1.0000
  H   H15       1.0  0.55635  0.97236  0.17579  1.0000
  C   C18       1.0  0.57378  0.10627  0.36606  1.0000
  O   O3        1.0  0.61874  0.11957  0.39180  1.0000
  C   C19       1.0  0.95988  0.48776  0.35865  1.0000
  C   C20       1.0  0.98811  0.53066  0.31113  1.0000
  H   H16       1.0  0.97205  0.54792  0.28310  1.0000
  C   C21       1.0  0.91014  0.47069  0.36643  1.0000
  O   O4        1.0  0.89687  0.50243  0.39180  1.0000
  N   N2        1.0  0.34318  0.67325  0.35118  1.0000
  C   C22       1.0  0.36581  0.64549  0.35312  1.0000
  C   C23       1.0  0.29280  0.65062  0.35312  1.0000
  C   C24       1.0  0.37093  0.72362  0.35313  1.0000
  C   C25       1.0  0.39939  0.74731  0.42879  1.0000
  C   C26       1.0  0.42736  0.79722  0.43009  1.0000
  C   C27       1.0  0.42687  0.82506  0.35699  1.0000
  C   C28       1.0  0.39843  0.80092  0.28108  1.0000
  C   C29       1.0  0.37085  0.75096  0.27916  1.0000
  C   C30       1.0  0.36105  0.61704  0.42878  1.0000
  C   C31       1.0  0.38299  0.58907  0.43008  1.0000
  C   C32       1.0  0.41131  0.58955  0.35697  1.0000
  C   C33       1.0  0.41559  0.61797  0.28104  1.0000
  C   C34       1.0  0.39321  0.64556  0.27914  1.0000
  C   C35       1.0  0.26547  0.62320  0.27915  1.0000
  C   C36       1.0  0.26911  0.65537  0.42878  1.0000
  H   H17       1.0  0.37857  0.56855  0.48567  1.0000
  H   H18       1.0  0.34119  0.61627  0.48303  1.0000
  H   H19       1.0  0.39657  0.66541  0.22309  1.0000
  H   H20       1.0  0.43392  0.61772  0.22515  1.0000
  H   H21       1.0  0.40018  0.72822  0.48300  1.0000
  H   H22       1.0  0.44790  0.81332  0.48566  1.0000
  H   H23       1.0  0.28196  0.61985  0.22309  1.0000
  H   H24       1.0  0.28819  0.67523  0.48302  1.0000
  H   H25       1.0  0.35100  0.73447  0.22311  1.0000
  H   H26       1.0  0.39869  0.81952  0.22519  1.0000
  N   N3        1.0  0.43064  0.56025  0.35916  1.0000
  H   H27       1.0  0.41230  0.53004  0.39085  1.0000
  N   N4        1.0  0.45617  0.87370  0.35919  1.0000
  H   H28       1.0  0.48639  0.88556  0.39083  1.0000
  N   N5        1.0  0.67650  0.33988  0.34177  1.0000
  C   C37       1.0  0.65388  0.36764  0.33982  1.0000
  C   C38       1.0  0.72688  0.36251  0.33983  1.0000
  C   C39       1.0  0.64875  0.28951  0.33980  1.0000
  C   C40       1.0  0.62030  0.26582  0.26414  1.0000
  C   C41       1.0  0.59234  0.21592  0.26281  1.0000
  C   C42       1.0  0.59279  0.18807  0.33595  1.0000
  C   C43       1.0  0.62125  0.21220  0.41184  1.0000
  C   C44       1.0  0.64883  0.26216  0.41377  1.0000
  C   C45       1.0  0.65865  0.39610  0.26416  1.0000
  C   C46       1.0  0.63673  0.42408  0.26285  1.0000
  C   C47       1.0  0.60843  0.42362  0.33599  1.0000
  C   C48       1.0  0.60411  0.39517  0.41189  1.0000
  C   C49       1.0  0.62646  0.36756  0.41378  1.0000
  C   C50       1.0  0.75421  0.38992  0.41380  1.0000
  C   C51       1.0  0.80418  0.41232  0.41189  1.0000
  C   C52       1.0  0.82833  0.40802  0.33599  1.0000
  C   C53       1.0  0.80049  0.37969  0.26289  1.0000
  C   C54       1.0  0.75058  0.35775  0.26418  1.0000
  H   H29       1.0  0.64116  0.44460  0.20728  1.0000
  H   H30       1.0  0.67852  0.39687  0.20993  1.0000
  H   H31       1.0  0.62310  0.34771  0.46983  1.0000
  H   H32       1.0  0.58576  0.39542  0.46777  1.0000
  H   H33       1.0  0.61953  0.28492  0.20990  1.0000
  H   H34       1.0  0.57180  0.19982  0.20724  1.0000
  H   H35       1.0  0.73772  0.39327  0.46986  1.0000
  H   H36       1.0  0.82277  0.43062  0.46781  1.0000
  H   H37       1.0  0.81660  0.37525  0.20733  1.0000
  H   H38       1.0  0.73149  0.33787  0.20995  1.0000
  H   H39       1.0  0.66865  0.27864  0.46984  1.0000
  H   H40       1.0  0.62095  0.19360  0.46777  1.0000
  N   N6        1.0  0.58907  0.45290  0.33374  1.0000
  H   H41       1.0  0.60743  0.48313  0.30214  1.0000
  N   N7        1.0  0.56350  0.13944  0.33372  1.0000
  H   H42       1.0  0.53328  0.12756  0.30207  1.0000
  N   N8        1.0  0.87696  0.42733  0.33383  1.0000
  H   H43       1.0  0.88882  0.40898  0.30217  1.0000
  C   C55       1.0  0.55297  0.52207  0.39548  1.0000
  C   C56       1.0  0.53396  0.55241  0.38177  1.0000
  C   C57       1.0  0.49104  0.53775  0.33428  1.0000
  H   H44       1.0  0.55121  0.58573  0.40981  1.0000
  C   C58       1.0  0.59657  0.54087  0.45223  1.0000
  H   H45       1.0  0.60707  0.51460  0.46721  1.0000
  H   H46       1.0  0.59063  0.55324  0.51688  1.0000
  H   H47       1.0  0.62609  0.57074  0.41780  1.0000
  C   C59       1.0  0.47400  0.57044  0.32650  1.0000
  O   O5        1.0  0.50573  0.61542  0.30100  1.0000
  C   C60       1.0  0.49442  0.03422  0.39560  1.0000
  C   C61       1.0  0.46406  0.98487  0.38198  1.0000
  C   C62       1.0  0.47866  0.95659  0.33439  1.0000
  H   H48       1.0  0.43075  0.96883  0.41004  1.0000
  C   C63       1.0  0.47568  0.05906  0.45237  1.0000
  H   H49       1.0  0.50196  0.09582  0.46730  1.0000
  H   H50       1.0  0.46333  0.04077  0.51705  1.0000
  H   H51       1.0  0.44579  0.05871  0.41800  1.0000
  C   C64       1.0  0.44593  0.90685  0.32671  1.0000
  O   O6        1.0  0.40097  0.89361  0.30110  1.0000
  C   C65       1.0  0.98224  0.46343  0.39557  1.0000
  C   C66       1.0  0.95745  0.41984  0.45232  1.0000
  H   H52       1.0  0.92068  0.40931  0.46729  1.0000
  H   H53       1.0  0.97577  0.42579  0.51697  1.0000
  H   H54       1.0  0.95783  0.39032  0.41791  1.0000
