data_image0
_chemical_formula_structural       C18H17C4HC6HO2C3HC5HO2C3NC3NC5NC4NC35H25CNCHNHC2NC2HNH
_chemical_formula_sum              "C92 H50 O4 N8"
_cell_length_a       34.2103
_cell_length_b       34.21
_cell_length_c       14.8766
_cell_angle_alpha    90
_cell_angle_beta     90
_cell_angle_gamma    89.9372

_space_group_name_H-M_alt    "P 1"
_space_group_IT_number       1

loop_
  _space_group_symop_operation_xyz
  'x, y, z'

loop_
  _atom_site_type_symbol
  _atom_site_label
  _atom_site_symmetry_multiplicity
  _atom_site_fract_x
  _atom_site_fract_y
  _atom_site_fract_z
  _atom_site_occupancy
  C   C1        1.0  0.08559  0.04185  0.34533  1.0000
  C   C2        1.0  0.99946  0.21082  0.26234  1.0000
  C   C3        1.0  0.99953  0.16964  0.26280  1.0000
  C   C4        1.0  0.97716  0.29597  0.28340  1.0000
  C   C5        1.0  0.97731  0.33714  0.28204  1.0000
  C   C6        1.0  0.00183  0.35890  0.34008  1.0000
  C   C7        1.0  0.20830  0.00656  0.26318  1.0000
  C   C8        1.0  0.16713  0.00673  0.26341  1.0000
  C   C9        1.0  0.33451  0.02871  0.28391  1.0000
  C   C10       1.0  0.29335  0.02884  0.28507  1.0000
  C   C11       1.0  0.00449  0.83905  0.26308  1.0000
  C   C12       1.0  0.00488  0.79788  0.26268  1.0000
  C   C13       1.0  0.02823  0.67180  0.28324  1.0000
  C   C14       1.0  0.02800  0.71296  0.28456  1.0000
  C   C15       1.0  0.83636  0.00176  0.26343  1.0000
  C   C16       1.0  0.79519  0.00154  0.26326  1.0000
  C   C17       1.0  0.71040  0.97833  0.28540  1.0000
  C   C18       1.0  0.66924  0.97804  0.28428  1.0000
  H   H1        1.0  0.65544  0.95908  0.24157  1.0000
  H   H2        1.0  0.72486  0.95947  0.24360  1.0000
  H   H3        1.0  0.78118  0.00040  0.20256  1.0000
  H   H4        1.0  0.85100  0.00016  0.20351  1.0000
  H   H5        1.0  0.00605  0.85375  0.20324  1.0000
  H   H6        1.0  0.00615  0.78393  0.20191  1.0000
  H   H7        1.0  0.08085  0.13616  0.34479  1.0000
  H   H8        1.0  0.15249  0.00840  0.20349  1.0000
  H   H9        1.0  0.22231  0.00758  0.20246  1.0000
  H   H10       1.0  0.27907  0.04784  0.24327  1.0000
  H   H11       1.0  0.34849  0.04749  0.24113  1.0000
  H   H12       1.0  0.99816  0.15494  0.20293  1.0000
  H   H13       1.0  0.99861  0.22475  0.20152  1.0000
  H   H14       1.0  0.95866  0.35113  0.23890  1.0000
  H   H15       1.0  0.95829  0.28171  0.24135  1.0000
  H   H16       1.0  0.04697  0.72741  0.24307  1.0000
  H   H17       1.0  0.04725  0.65797  0.24067  1.0000
  C   C19       1.0  0.00338  0.60792  0.33786  1.0000
  C   C20       1.0  0.00308  0.52504  0.33457  1.0000
  C   C21       1.0  0.00356  0.54595  0.25203  1.0000
  C   C22       1.0  0.00379  0.58732  0.25527  1.0000
  H   H18       1.0  0.00348  0.60277  0.19635  1.0000
  C   C23       1.0  0.00293  0.48367  0.33450  1.0000
  C   C24       1.0  0.00234  0.40079  0.33752  1.0000
  C   C25       1.0  0.00266  0.42144  0.25499  1.0000
  C   C26       1.0  0.00304  0.46280  0.25189  1.0000
  C   C27       1.0  0.00348  0.48380  0.16998  1.0000
  C   C28       1.0  0.00376  0.52500  0.17004  1.0000
  H   H19       1.0  0.00331  0.40601  0.19605  1.0000
  O   O1        1.0  0.00358  0.46489  0.08994  1.0000
  O   O2        1.0  0.00426  0.54396  0.09007  1.0000
  C   C29       1.0  0.48106  0.00301  0.33618  1.0000
  C   C30       1.0  0.46018  0.00307  0.25358  1.0000
  C   C31       1.0  0.41882  0.00340  0.25668  1.0000
  H   H20       1.0  0.40339  0.00288  0.19773  1.0000
  C   C32       1.0  0.52243  0.00291  0.33622  1.0000
  C   C33       1.0  0.58469  0.00248  0.25684  1.0000
  C   C34       1.0  0.54333  0.00265  0.25367  1.0000
  C   C35       1.0  0.52237  0.00261  0.17168  1.0000
  C   C36       1.0  0.48117  0.00283  0.17164  1.0000
  H   H21       1.0  0.60013  0.00292  0.19791  1.0000
  O   O3        1.0  0.54132  0.00232  0.09169  1.0000
  O   O4        1.0  0.46225  0.00290  0.09161  1.0000
  C   C37       1.0  0.90043  0.07702  0.34504  1.0000
  C   C38       1.0  0.92894  0.10557  0.34504  1.0000
  C   C39       1.0  0.96547  0.08725  0.34518  1.0000
  N   N1        1.0  0.95768  0.04836  0.34551  1.0000
  C   C40       1.0  0.91879  0.04051  0.34542  1.0000
  C   C41       1.0  0.89904  0.00387  0.34541  1.0000
  C   C42       1.0  0.91792  0.96684  0.34541  1.0000
  N   N2        1.0  0.95674  0.95926  0.34552  1.0000
  C   C43       1.0  0.96437  0.92045  0.34544  1.0000
  C   C44       1.0  0.92801  0.90191  0.34520  1.0000
  C   C45       1.0  0.89944  0.93045  0.34537  1.0000
  C   C46       1.0  0.00143  0.90163  0.34531  1.0000
  C   C47       1.0  0.03803  0.92144  0.34533  1.0000
  N   N3        1.0  0.04583  0.96033  0.34556  1.0000
  C   C48       1.0  0.08471  0.96818  0.34550  1.0000
  C   C49       1.0  0.10308  0.93167  0.34524  1.0000
  C   C50       1.0  0.07457  0.90312  0.34530  1.0000
  C   C51       1.0  0.10446  0.00481  0.34542  1.0000
  N   N4        1.0  0.04677  0.04943  0.34541  1.0000
  C   C52       1.0  0.03914  0.08823  0.34529  1.0000
  C   C53       1.0  0.07551  0.10677  0.34505  1.0000
  C   C54       1.0  0.10408  0.07823  0.34525  1.0000
  C   C55       1.0  0.00209  0.10706  0.34512  1.0000
  C   C56       1.0  0.00173  0.14883  0.34458  1.0000
  C   C57       1.0  0.00391  0.17013  0.42570  1.0000
  C   C58       1.0  0.00388  0.21131  0.42489  1.0000
  C   C59       1.0  0.00166  0.23263  0.34328  1.0000
  C   C60       1.0  0.00162  0.27463  0.34258  1.0000
  C   C61       1.0  0.02607  0.33767  0.39982  1.0000
  C   C62       1.0  0.02603  0.29648  0.40086  1.0000
  C   C63       1.0  0.14623  0.00448  0.34506  1.0000
  C   C64       1.0  0.16743  0.00200  0.42627  1.0000
  C   C65       1.0  0.20861  0.00181  0.42570  1.0000
  C   C66       1.0  0.23002  0.00415  0.34423  1.0000
  C   C67       1.0  0.27202  0.00420  0.34378  1.0000
  C   C68       1.0  0.29387  0.97965  0.40183  1.0000
  C   C69       1.0  0.33507  0.97965  0.40104  1.0000
  C   C70       1.0  0.35629  0.00404  0.34170  1.0000
  C   C71       1.0  0.00181  0.85986  0.34479  1.0000
  C   C72       1.0  0.00255  0.77607  0.34361  1.0000
  C   C73       1.0  0.99980  0.79739  0.42514  1.0000
  C   C74       1.0  0.99948  0.83857  0.42589  1.0000
  C   C75       1.0  0.00300  0.73408  0.34299  1.0000
  C   C76       1.0  0.97847  0.71202  0.40055  1.0000
  C   C77       1.0  0.97882  0.67083  0.39955  1.0000
  C   C78       1.0  0.00358  0.64981  0.34054  1.0000
  C   C79       1.0  0.85728  0.00416  0.34505  1.0000
  C   C80       1.0  0.83607  0.00645  0.42629  1.0000
  C   C81       1.0  0.79489  0.00628  0.42577  1.0000
  C   C82       1.0  0.77348  0.00373  0.34434  1.0000
  C   C83       1.0  0.73149  0.00323  0.34397  1.0000
  C   C84       1.0  0.64721  0.00252  0.34199  1.0000
  C   C85       1.0  0.66820  0.02717  0.40122  1.0000
  C   C86       1.0  0.70939  0.02757  0.40202  1.0000
  H   H22       1.0  0.65362  0.04600  0.44291  1.0000
  H   H23       1.0  0.72314  0.04674  0.44427  1.0000
  H   H24       1.0  0.78066  0.00716  0.48623  1.0000
  H   H25       1.0  0.85049  0.00798  0.48649  1.0000
  H   H26       1.0  0.87106  0.08255  0.34475  1.0000
  H   H27       1.0  0.92336  0.13493  0.34485  1.0000
  H   H28       1.0  0.97754  0.02853  0.34573  1.0000
  H   H29       1.0  0.02597  0.98016  0.34568  1.0000
  H   H30       1.0  0.87006  0.92506  0.34533  1.0000
  H   H31       1.0  0.92267  0.87252  0.34496  1.0000
  H   H32       1.0  0.99766  0.85293  0.48614  1.0000
  H   H33       1.0  0.99879  0.78309  0.48550  1.0000
  H   H34       1.0  0.08015  0.87376  0.34524  1.0000
  H   H35       1.0  0.13245  0.92613  0.34501  1.0000
  H   H36       1.0  0.13347  0.08361  0.34523  1.0000
  H   H37       1.0  0.15301  0.00052  0.48648  1.0000
  H   H38       1.0  0.22285  0.00076  0.48612  1.0000
  H   H39       1.0  0.34947  0.96073  0.44281  1.0000
  H   H40       1.0  0.27994  0.96067  0.44422  1.0000
  H   H41       1.0  0.04492  0.28254  0.44353  1.0000
  H   H42       1.0  0.04489  0.35206  0.44181  1.0000
  H   H43       1.0  0.00482  0.22561  0.48525  1.0000
  H   H44       1.0  0.00545  0.15577  0.48599  1.0000
  H   H45       1.0  0.95923  0.72580  0.44267  1.0000
  H   H46       1.0  0.95987  0.65628  0.44093  1.0000
  C   C87       1.0  0.00267  0.58512  0.41718  1.0000
  N   N5        1.0  0.00271  0.54548  0.41297  1.0000
  C   C88       1.0  0.00258  0.42354  0.41694  1.0000
  H   H47       1.0  0.00289  0.59799  0.47918  1.0000
  N   N6        1.0  0.00266  0.46319  0.41284  1.0000
  H   H48       1.0  0.00180  0.41063  0.47887  1.0000
  C   C89       1.0  0.39818  0.00352  0.33920  1.0000
  C   C90       1.0  0.42092  0.00312  0.41862  1.0000
  N   N7        1.0  0.46057  0.00307  0.41453  1.0000
  C   C91       1.0  0.58253  0.00320  0.41878  1.0000
  C   C92       1.0  0.60532  0.00269  0.33941  1.0000
  H   H49       1.0  0.40801  0.00372  0.48056  1.0000
  N   N8        1.0  0.54288  0.00313  0.41460  1.0000
  H   H50       1.0  0.59542  0.00284  0.48075  1.0000
