data_image0
_chemical_formula_structural       CHNCNC2HC2NOC2NHNOC2HOC2OC2OC2OCNO2C2HNO2C2HNO2CNOC4HNO2CHC4HNO2C4HNO2C4HNO2CNCNCNCNCNCNCNCNCNCNCNCNCNCNCNC2NO2C4HNO2C4HNO2NOC2HNO2HC2HNO2C2HNO2C2HNO2
_chemical_formula_sum              "C72 H18 N36 O36"
_cell_length_a       30.2374
_cell_length_b       30.2374
_cell_length_c       14.7075
_cell_angle_alpha    90
_cell_angle_beta     90
_cell_angle_gamma    120

_space_group_name_H-M_alt    "P 1"
_space_group_IT_number       1

loop_
  _space_group_symop_operation_xyz
  'x, y, z'

loop_
  _atom_site_type_symbol
  _atom_site_label
  _atom_site_symmetry_multiplicity
  _atom_site_fract_x
  _atom_site_fract_y
  _atom_site_fract_z
  _atom_site_occupancy
  C   C1        1.0  0.04198  0.52379  0.27419  1.0000
  H   H1        1.0  0.06137  0.53339  0.21375  1.0000
  N   N1        1.0  0.15059  0.61654  0.35498  1.0000
  C   C2        1.0  0.12385  0.56435  0.35628  1.0000
  N   N2        1.0  0.14990  0.53820  0.35488  1.0000
  C   C3        1.0  0.06967  0.53758  0.35649  1.0000
  C   C4        1.0  0.04198  0.52378  0.43876  1.0000
  H   H2        1.0  0.06137  0.53337  0.49918  1.0000
  C   C5        1.0  0.23245  0.54064  0.35029  1.0000
  C   C6        1.0  0.23397  0.69596  0.35051  1.0000
  N   N3        1.0  0.23933  0.69226  0.18464  1.0000
  O   O1        1.0  0.22888  0.71754  0.12971  1.0000
  C   C7        1.0  0.20260  0.64239  0.35207  1.0000
  C   C8        1.0  0.20189  0.56362  0.35200  1.0000
  N   N4        1.0  0.22715  0.61530  0.35030  1.0000
  H   H3        1.0  0.24167  0.54366  0.49278  1.0000
  N   N5        1.0  0.23678  0.69555  0.51712  1.0000
  O   O2        1.0  0.22560  0.72157  0.56885  1.0000
  C   C9        1.0  0.25811  0.54329  0.26854  1.0000
  C   C10       1.0  0.30560  0.54458  0.26747  1.0000
  H   H4        1.0  0.24439  0.54899  0.20864  1.0000
  O   O3        1.0  0.30684  0.51563  0.12986  1.0000
  C   C11       1.0  0.30517  0.76658  0.26837  1.0000
  C   C12       1.0  0.25900  0.71907  0.26751  1.0000
  O   O4        1.0  0.27009  0.68139  0.14726  1.0000
  C   C13       1.0  0.30409  0.54154  0.43364  1.0000
  C   C14       1.0  0.25643  0.54002  0.43237  1.0000
  O   O5        1.0  0.30368  0.50943  0.56917  1.0000
  C   C15       1.0  0.25737  0.72100  0.43344  1.0000
  C   C16       1.0  0.30343  0.76874  0.43202  1.0000
  O   O6        1.0  0.26721  0.68544  0.55798  1.0000
  C   C17       1.0  0.98775  0.49682  0.27309  1.0000
  N   N6        1.0  0.96044  0.48318  0.18985  1.0000
  O   O7        1.0  0.97046  0.52188  0.14312  1.0000
  O   O8        1.0  0.97020  0.45423  0.14335  1.0000
  C   C18       1.0  0.52796  0.49588  0.27291  1.0000
  C   C19       1.0  0.50094  0.52309  0.27413  1.0000
  H   H5        1.0  0.49126  0.53284  0.21373  1.0000
  N   N7        1.0  0.54155  0.48221  0.18962  1.0000
  O   O9        1.0  0.50281  0.45348  0.14300  1.0000
  O   O10       1.0  0.57042  0.52092  0.14305  1.0000
  C   C20       1.0  0.52881  0.03709  0.27344  1.0000
  C   C21       1.0  0.50161  0.98286  0.27468  1.0000
  H   H6        1.0  0.49174  0.96343  0.21427  1.0000
  N   N8        1.0  0.54232  0.06434  0.19014  1.0000
  O   O11       1.0  0.57098  0.05435  0.14328  1.0000
  O   O12       1.0  0.50354  0.05449  0.14380  1.0000
  C   C22       1.0  0.32877  0.54284  0.35050  1.0000
  N   N9        1.0  0.33226  0.55149  0.18449  1.0000
  O   O13       1.0  0.34308  0.59303  0.14682  1.0000
  C   C23       1.0  0.48412  0.69670  0.35031  1.0000
  C   C24       1.0  0.48056  0.71922  0.26854  1.0000
  C   C25       1.0  0.47925  0.76541  0.26746  1.0000
  C   C26       1.0  0.48194  0.79088  0.35037  1.0000
  H   H7        1.0  0.47422  0.69951  0.20881  1.0000
  N   N10       1.0  0.47171  0.78476  0.18455  1.0000
  O   O14       1.0  0.42985  0.75389  0.14797  1.0000
  O   O15       1.0  0.50713  0.79493  0.12905  1.0000
  C   C27       1.0  0.32820  0.79250  0.34995  1.0000
  H   H8        1.0  0.32463  0.78007  0.20843  1.0000
  C   C28       1.0  0.79708  0.47953  0.34993  1.0000
  C   C29       1.0  0.77116  0.47636  0.26827  1.0000
  C   C30       1.0  0.72358  0.47487  0.26748  1.0000
  C   C31       1.0  0.70046  0.47672  0.35054  1.0000
  H   H9        1.0  0.78479  0.47059  0.20832  1.0000
  N   N11       1.0  0.69669  0.46764  0.18466  1.0000
  O   O16       1.0  0.68594  0.42605  0.14726  1.0000
  O   O17       1.0  0.72184  0.50340  0.12970  1.0000
  C   C32       1.0  0.54542  0.32259  0.35030  1.0000
  C   C33       1.0  0.54824  0.29968  0.26853  1.0000
  C   C34       1.0  0.54972  0.25359  0.26745  1.0000
  C   C35       1.0  0.54799  0.22869  0.35048  1.0000
  H   H10       1.0  0.55394  0.31912  0.20865  1.0000
  N   N12       1.0  0.55678  0.23392  0.18451  1.0000
  O   O18       1.0  0.59832  0.26475  0.14691  1.0000
  O   O19       1.0  0.52093  0.22334  0.12979  1.0000
  C   C36       1.0  0.70217  0.22785  0.35013  1.0000
  C   C37       1.0  0.72477  0.25402  0.26846  1.0000
  C   C38       1.0  0.77085  0.30160  0.26740  1.0000
  C   C39       1.0  0.79619  0.32445  0.35035  1.0000
  H   H11       1.0  0.70511  0.24061  0.20869  1.0000
  N   N13       1.0  0.79020  0.32853  0.18452  1.0000
  O   O20       1.0  0.75925  0.33936  0.14778  1.0000
  O   O21       1.0  0.80058  0.30340  0.12910  1.0000
  C   C40       1.0  0.38237  0.56508  0.35175  1.0000
  N   N14       1.0  0.40824  0.53894  0.35487  1.0000
  C   C41       1.0  0.46043  0.56440  0.35637  1.0000
  N   N15       1.0  0.48656  0.61660  0.35507  1.0000
  C   C42       1.0  0.46114  0.64316  0.35182  1.0000
  N   N16       1.0  0.40946  0.61673  0.34999  1.0000
  C   C43       1.0  0.45977  0.82230  0.35171  1.0000
  N   N17       1.0  0.48593  0.87429  0.35543  1.0000
  C   C44       1.0  0.46050  0.90105  0.35687  1.0000
  N   N18       1.0  0.40831  0.87503  0.35510  1.0000
  C   C45       1.0  0.38172  0.82305  0.35150  1.0000
  N   N19       1.0  0.40813  0.79778  0.34958  1.0000
  C   C46       1.0  0.82736  0.37805  0.35170  1.0000
  N   N20       1.0  0.87934  0.40403  0.35503  1.0000
  C   C47       1.0  0.90591  0.45621  0.35630  1.0000
  N   N21       1.0  0.87975  0.48224  0.35477  1.0000
  C   C48       1.0  0.82776  0.45668  0.35152  1.0000
  N   N22       1.0  0.80266  0.40500  0.34972  1.0000
  C   C49       1.0  0.64688  0.45433  0.35216  1.0000
  N   N23       1.0  0.62089  0.48034  0.35484  1.0000
  C   C50       1.0  0.56871  0.45472  0.35598  1.0000
  N   N24       1.0  0.54268  0.40253  0.35471  1.0000
  C   C51       1.0  0.56826  0.37611  0.35207  1.0000
  N   N25       1.0  0.61994  0.40267  0.35045  1.0000
  C   C52       1.0  0.57043  0.19752  0.35177  1.0000
  N   N26       1.0  0.54445  0.14553  0.35500  1.0000
  C   C53       1.0  0.57009  0.11899  0.35647  1.0000
  N   N27       1.0  0.62228  0.14517  0.35510  1.0000
  C   C54       1.0  0.64867  0.19715  0.35178  1.0000
  N   N28       1.0  0.62209  0.22225  0.34990  1.0000
  C   C55       1.0  0.98774  0.49680  0.43980  1.0000
  C   C56       1.0  0.96027  0.48318  0.35647  1.0000
  N   N29       1.0  0.96036  0.48312  0.52291  1.0000
  O   O22       1.0  0.97012  0.45415  0.56934  1.0000
  O   O23       1.0  0.97038  0.52182  0.56960  1.0000
  C   C57       1.0  0.48722  0.53701  0.35649  1.0000
  C   C58       1.0  0.50114  0.52318  0.43870  1.0000
  C   C59       1.0  0.52815  0.49595  0.43961  1.0000
  C   C60       1.0  0.54172  0.48210  0.35621  1.0000
  H   H12       1.0  0.49160  0.53299  0.49916  1.0000
  N   N30       1.0  0.54192  0.48230  0.52266  1.0000
  O   O24       1.0  0.57090  0.52103  0.56906  1.0000
  O   O25       1.0  0.50326  0.45360  0.56945  1.0000
  C   C61       1.0  0.48790  0.95522  0.35704  1.0000
  C   C62       1.0  0.50189  0.98297  0.43925  1.0000
  C   C63       1.0  0.52908  0.03721  0.44015  1.0000
  C   C64       1.0  0.54274  0.06463  0.35675  1.0000
  H   H13       1.0  0.49221  0.96362  0.49971  1.0000
  N   N31       1.0  0.54285  0.06465  0.52319  1.0000
  O   O26       1.0  0.50417  0.05486  0.56980  1.0000
  O   O27       1.0  0.57165  0.05473  0.56976  1.0000
  N   N32       1.0  0.32968  0.54651  0.51719  1.0000
  O   O28       1.0  0.33994  0.58714  0.55784  1.0000
  C   C65       1.0  0.48426  0.76799  0.43340  1.0000
  C   C66       1.0  0.48579  0.72185  0.43221  1.0000
  H   H14       1.0  0.48270  0.70373  0.49272  1.0000
  N   N33       1.0  0.47995  0.78899  0.51699  1.0000
  O   O29       1.0  0.51745  0.80035  0.56804  1.0000
  O   O30       1.0  0.43966  0.75880  0.55870  1.0000
  H   H15       1.0  0.32180  0.78354  0.49242  1.0000
  C   C67       1.0  0.72557  0.47855  0.43350  1.0000
  C   C68       1.0  0.77343  0.48049  0.43214  1.0000
  H   H16       1.0  0.78835  0.47706  0.49251  1.0000
  N   N34       1.0  0.70013  0.47372  0.51717  1.0000
  O   O31       1.0  0.72602  0.51107  0.56867  1.0000
  O   O32       1.0  0.69024  0.43334  0.55832  1.0000
  C   C69       1.0  0.54647  0.25193  0.43364  1.0000
  C   C70       1.0  0.54480  0.29799  0.43237  1.0000
  H   H17       1.0  0.54830  0.31633  0.49280  1.0000
  N   N35       1.0  0.55140  0.23126  0.51717  1.0000
  O   O33       1.0  0.51419  0.21997  0.56896  1.0000
  O   O34       1.0  0.59191  0.26168  0.55807  1.0000
  C   C71       1.0  0.77332  0.29921  0.43334  1.0000
  C   C72       1.0  0.72729  0.25144  0.43205  1.0000
  H   H18       1.0  0.70919  0.23636  0.49255  1.0000
  N   N36       1.0  0.79428  0.32453  0.51694  1.0000
  O   O35       1.0  0.80580  0.29850  0.56793  1.0000
  O   O36       1.0  0.76398  0.33446  0.55872  1.0000
