data_image0
_chemical_formula_structural       CHNCNC2OHCHNCNC2OHC5HCHNC2OHC2OHCHCHNC2OHC2OHC2OHC2OHNCHCHC2OHC2OHNCHCHC2OHCNCNC2HC2OHCNCNC2HC3HOHC3HOHC3HOHCNCNCNCNCNCNC3OH2C3OH2C3OH2C3HOHC3HOHC3HOHCNCNCNCNCNCNC3OH2C3OH2C3OH2
_chemical_formula_sum              "C96 H48 N24 O24"
_cell_length_a       29.0117
_cell_length_b       29.0117
_cell_length_c       14.7159
_cell_angle_alpha    90
_cell_angle_beta     90
_cell_angle_gamma    120

_space_group_name_H-M_alt    "P 1"
_space_group_IT_number       1

loop_
  _space_group_symop_operation_xyz
  'x, y, z'

loop_
  _atom_site_type_symbol
  _atom_site_label
  _atom_site_symmetry_multiplicity
  _atom_site_fract_x
  _atom_site_fract_y
  _atom_site_fract_z
  _atom_site_occupancy
  C   C1        1.0  0.04273  0.27378  0.27068  1.0000
  H   H1        1.0  0.06328  0.28405  0.21058  1.0000
  N   N1        1.0  0.15418  0.36995  0.35241  1.0000
  C   C2        1.0  0.12686  0.31584  0.35210  1.0000
  N   N2        1.0  0.15418  0.28906  0.35242  1.0000
  C   C3        1.0  0.04260  0.27372  0.43675  1.0000
  C   C4        1.0  0.07099  0.28791  0.35364  1.0000
  O   O1        1.0  0.07111  0.28797  0.51643  1.0000
  H   H2        1.0  0.04766  0.27624  0.56992  1.0000
  C   C5        1.0  0.04273  0.77378  0.27068  1.0000
  H   H3        1.0  0.06328  0.78405  0.21058  1.0000
  N   N3        1.0  0.15418  0.86995  0.35241  1.0000
  C   C6        1.0  0.12686  0.81584  0.35210  1.0000
  N   N4        1.0  0.15418  0.78906  0.35242  1.0000
  C   C7        1.0  0.04260  0.77371  0.43675  1.0000
  C   C8        1.0  0.07099  0.78791  0.35364  1.0000
  O   O2        1.0  0.07111  0.78797  0.51643  1.0000
  H   H4        1.0  0.04766  0.77624  0.56992  1.0000
  C   C9        1.0  0.20829  0.39727  0.35209  1.0000
  C   C10       1.0  0.20829  0.31584  0.35210  1.0000
  C   C11       1.0  0.20829  0.89727  0.35209  1.0000
  C   C12       1.0  0.20829  0.81584  0.35210  1.0000
  C   C13       1.0  0.25035  0.27378  0.27068  1.0000
  H   H5        1.0  0.24008  0.28405  0.21058  1.0000
  C   C14       1.0  0.25036  0.48140  0.27068  1.0000
  H   H6        1.0  0.24008  0.46085  0.21058  1.0000
  N   N5        1.0  0.23507  0.36995  0.35241  1.0000
  C   C15       1.0  0.25042  0.27371  0.43675  1.0000
  C   C16       1.0  0.23622  0.28791  0.35364  1.0000
  O   O3        1.0  0.23616  0.28796  0.51643  1.0000
  H   H7        1.0  0.24789  0.27625  0.56992  1.0000
  C   C17       1.0  0.25042  0.48153  0.43675  1.0000
  C   C18       1.0  0.23622  0.45314  0.35363  1.0000
  O   O4        1.0  0.23616  0.45302  0.51643  1.0000
  H   H8        1.0  0.24789  0.47647  0.56992  1.0000
  C   C19       1.0  0.25036  0.77378  0.27068  1.0000
  H   H9        1.0  0.24008  0.78405  0.21058  1.0000
  C   C20       1.0  0.25036  0.98141  0.27068  1.0000
  H   H10       1.0  0.24008  0.96085  0.21058  1.0000
  N   N6        1.0  0.23507  0.86995  0.35241  1.0000
  C   C21       1.0  0.25042  0.77371  0.43675  1.0000
  C   C22       1.0  0.23622  0.78791  0.35364  1.0000
  O   O5        1.0  0.23616  0.78796  0.51643  1.0000
  H   H11       1.0  0.24789  0.77625  0.56992  1.0000
  C   C23       1.0  0.25042  0.98153  0.43675  1.0000
  C   C24       1.0  0.23622  0.95314  0.35363  1.0000
  O   O6        1.0  0.23617  0.95303  0.51643  1.0000
  H   H12       1.0  0.24789  0.97647  0.56992  1.0000
  C   C25       1.0  0.27854  0.24559  0.26874  1.0000
  C   C26       1.0  0.29274  0.23140  0.35186  1.0000
  O   O7        1.0  0.29280  0.23134  0.18907  1.0000
  H   H13       1.0  0.28107  0.24306  0.13557  1.0000
  C   C27       1.0  0.27854  0.03778  0.26874  1.0000
  C   C28       1.0  0.29274  0.06617  0.35186  1.0000
  O   O8        1.0  0.29280  0.06628  0.18907  1.0000
  H   H14       1.0  0.28107  0.04284  0.13557  1.0000
  N   N7        1.0  0.29389  0.14936  0.35308  1.0000
  C   C29       1.0  0.27860  0.24553  0.43482  1.0000
  H   H15       1.0  0.28888  0.23525  0.49491  1.0000
  C   C30       1.0  0.27860  0.03790  0.43482  1.0000
  H   H16       1.0  0.28888  0.05845  0.49491  1.0000
  C   C31       1.0  0.27854  0.74559  0.26874  1.0000
  C   C32       1.0  0.29274  0.73140  0.35186  1.0000
  O   O9        1.0  0.29280  0.73134  0.18907  1.0000
  H   H17       1.0  0.28107  0.74306  0.13557  1.0000
  C   C33       1.0  0.27854  0.53778  0.26874  1.0000
  C   C34       1.0  0.29274  0.56617  0.35186  1.0000
  O   O10       1.0  0.29280  0.56628  0.18907  1.0000
  H   H18       1.0  0.28107  0.54284  0.13557  1.0000
  N   N8        1.0  0.29389  0.64936  0.35308  1.0000
  C   C35       1.0  0.27861  0.74553  0.43482  1.0000
  H   H19       1.0  0.28888  0.73525  0.49491  1.0000
  C   C36       1.0  0.27861  0.53790  0.43482  1.0000
  H   H20       1.0  0.28888  0.55846  0.49491  1.0000
  C   C37       1.0  0.48636  0.24559  0.26874  1.0000
  C   C38       1.0  0.45797  0.23139  0.35186  1.0000
  O   O11       1.0  0.45785  0.23133  0.18907  1.0000
  H   H21       1.0  0.48130  0.24306  0.13557  1.0000
  C   C39       1.0  0.32067  0.12204  0.35341  1.0000
  N   N9        1.0  0.37478  0.14936  0.35308  1.0000
  C   C40       1.0  0.40210  0.20346  0.35341  1.0000
  N   N10       1.0  0.37478  0.23025  0.35308  1.0000
  C   C41       1.0  0.32067  0.20346  0.35341  1.0000
  C   C42       1.0  0.48623  0.24553  0.43482  1.0000
  H   H22       1.0  0.46568  0.23525  0.49491  1.0000
  C   C43       1.0  0.48636  0.74559  0.26874  1.0000
  C   C44       1.0  0.45797  0.73139  0.35186  1.0000
  O   O12       1.0  0.45785  0.73133  0.18907  1.0000
  H   H23       1.0  0.48130  0.74306  0.13557  1.0000
  C   C45       1.0  0.32067  0.62204  0.35341  1.0000
  N   N11       1.0  0.37478  0.64936  0.35308  1.0000
  C   C46       1.0  0.40210  0.70346  0.35341  1.0000
  N   N12       1.0  0.37478  0.73024  0.35308  1.0000
  C   C47       1.0  0.32067  0.70346  0.35341  1.0000
  C   C48       1.0  0.48623  0.74553  0.43482  1.0000
  H   H24       1.0  0.46568  0.73525  0.49491  1.0000
  C   C49       1.0  0.75036  0.27378  0.27068  1.0000
  C   C50       1.0  0.77854  0.24559  0.26874  1.0000
  C   C51       1.0  0.79274  0.23140  0.35186  1.0000
  H   H25       1.0  0.74008  0.28405  0.21058  1.0000
  O   O13       1.0  0.79280  0.23134  0.18907  1.0000
  H   H26       1.0  0.78107  0.24306  0.13557  1.0000
  C   C52       1.0  0.75036  0.48140  0.27068  1.0000
  C   C53       1.0  0.77854  0.03778  0.26874  1.0000
  C   C54       1.0  0.79274  0.06617  0.35186  1.0000
  H   H27       1.0  0.74008  0.46085  0.21058  1.0000
  O   O14       1.0  0.79280  0.06628  0.18907  1.0000
  H   H28       1.0  0.78107  0.04284  0.13557  1.0000
  C   C55       1.0  0.54273  0.27378  0.27068  1.0000
  C   C56       1.0  0.98635  0.24559  0.26874  1.0000
  C   C57       1.0  0.95796  0.23139  0.35186  1.0000
  H   H29       1.0  0.56328  0.28405  0.21058  1.0000
  O   O15       1.0  0.95785  0.23133  0.18907  1.0000
  H   H30       1.0  0.98130  0.24306  0.13557  1.0000
  C   C58       1.0  0.70829  0.39727  0.35209  1.0000
  N   N13       1.0  0.65418  0.36995  0.35241  1.0000
  C   C59       1.0  0.62686  0.31584  0.35210  1.0000
  N   N14       1.0  0.65418  0.28906  0.35242  1.0000
  C   C60       1.0  0.70829  0.31584  0.35210  1.0000
  N   N15       1.0  0.73507  0.36995  0.35241  1.0000
  C   C61       1.0  0.82067  0.12204  0.35341  1.0000
  N   N16       1.0  0.87478  0.14936  0.35308  1.0000
  C   C62       1.0  0.90210  0.20346  0.35341  1.0000
  N   N17       1.0  0.87478  0.23025  0.35308  1.0000
  C   C63       1.0  0.82067  0.20346  0.35341  1.0000
  N   N18       1.0  0.79389  0.14936  0.35308  1.0000
  C   C64       1.0  0.77861  0.24553  0.43482  1.0000
  C   C65       1.0  0.75042  0.27371  0.43675  1.0000
  C   C66       1.0  0.73622  0.28791  0.35364  1.0000
  O   O16       1.0  0.73616  0.28796  0.51643  1.0000
  H   H31       1.0  0.78888  0.23525  0.49491  1.0000
  H   H32       1.0  0.74789  0.27625  0.56992  1.0000
  C   C67       1.0  0.77860  0.03790  0.43482  1.0000
  C   C68       1.0  0.75042  0.48153  0.43675  1.0000
  C   C69       1.0  0.73622  0.45314  0.35363  1.0000
  O   O17       1.0  0.73616  0.45302  0.51643  1.0000
  H   H33       1.0  0.78888  0.05845  0.49491  1.0000
  H   H34       1.0  0.74789  0.47647  0.56992  1.0000
  C   C70       1.0  0.98623  0.24553  0.43482  1.0000
  C   C71       1.0  0.54261  0.27372  0.43675  1.0000
  C   C72       1.0  0.57099  0.28791  0.35364  1.0000
  O   O18       1.0  0.57111  0.28797  0.51643  1.0000
  H   H35       1.0  0.96568  0.23525  0.49491  1.0000
  H   H36       1.0  0.54766  0.27624  0.56992  1.0000
  C   C73       1.0  0.75036  0.77378  0.27068  1.0000
  C   C74       1.0  0.77854  0.74559  0.26874  1.0000
  C   C75       1.0  0.79274  0.73140  0.35186  1.0000
  H   H37       1.0  0.74008  0.78405  0.21058  1.0000
  O   O19       1.0  0.79280  0.73134  0.18907  1.0000
  H   H38       1.0  0.78107  0.74306  0.13557  1.0000
  C   C76       1.0  0.75036  0.98141  0.27068  1.0000
  C   C77       1.0  0.77854  0.53778  0.26874  1.0000
  C   C78       1.0  0.79274  0.56617  0.35186  1.0000
  H   H39       1.0  0.74008  0.96085  0.21058  1.0000
  O   O20       1.0  0.79280  0.56628  0.18907  1.0000
  H   H40       1.0  0.78107  0.54284  0.13557  1.0000
  C   C79       1.0  0.54273  0.77378  0.27068  1.0000
  C   C80       1.0  0.98635  0.74559  0.26874  1.0000
  C   C81       1.0  0.95797  0.73139  0.35186  1.0000
  H   H41       1.0  0.56328  0.78405  0.21058  1.0000
  O   O21       1.0  0.95785  0.73133  0.18907  1.0000
  H   H42       1.0  0.98130  0.74306  0.13557  1.0000
  C   C82       1.0  0.70829  0.89727  0.35209  1.0000
  N   N19       1.0  0.65418  0.86995  0.35241  1.0000
  C   C83       1.0  0.62686  0.81584  0.35210  1.0000
  N   N20       1.0  0.65418  0.78906  0.35242  1.0000
  C   C84       1.0  0.70829  0.81584  0.35210  1.0000
  N   N21       1.0  0.73507  0.86995  0.35241  1.0000
  C   C85       1.0  0.82067  0.62204  0.35341  1.0000
  N   N22       1.0  0.87478  0.64936  0.35308  1.0000
  C   C86       1.0  0.90210  0.70346  0.35341  1.0000
  N   N23       1.0  0.87478  0.73024  0.35308  1.0000
  C   C87       1.0  0.82067  0.70346  0.35341  1.0000
  N   N24       1.0  0.79389  0.64936  0.35308  1.0000
  C   C88       1.0  0.77860  0.74553  0.43482  1.0000
  C   C89       1.0  0.75042  0.77371  0.43675  1.0000
  C   C90       1.0  0.73622  0.78791  0.35364  1.0000
  O   O22       1.0  0.73616  0.78796  0.51643  1.0000
  H   H43       1.0  0.78888  0.73525  0.49491  1.0000
  H   H44       1.0  0.74789  0.77625  0.56992  1.0000
  C   C91       1.0  0.77861  0.53790  0.43482  1.0000
  C   C92       1.0  0.75042  0.98153  0.43675  1.0000
  C   C93       1.0  0.73622  0.95314  0.35363  1.0000
  O   O23       1.0  0.73617  0.95303  0.51643  1.0000
  H   H45       1.0  0.78888  0.55846  0.49491  1.0000
  H   H46       1.0  0.74789  0.97647  0.56992  1.0000
  C   C94       1.0  0.98623  0.74553  0.43482  1.0000
  C   C95       1.0  0.54260  0.77371  0.43675  1.0000
  C   C96       1.0  0.57100  0.78791  0.35364  1.0000
  O   O24       1.0  0.57111  0.78797  0.51643  1.0000
  H   H47       1.0  0.96568  0.73525  0.49491  1.0000
  H   H48       1.0  0.54766  0.77624  0.56992  1.0000
