data_image0
_chemical_formula_structural       C8H5CN2HNC8H5CN2HNC2HC3HC2H4CHC2HC3HC2H4CHC2HC3HC2H4CHC10H6CNCN2C10H6CNCN2C7H3NO2CHC7H3NO2CHC7H3NO2CH
_chemical_formula_sum              "C90 H57 N15 O6"
_cell_length_a       44.1944
_cell_length_b       44.1943
_cell_length_c       15.013
_cell_angle_alpha    90
_cell_angle_beta     90
_cell_angle_gamma    120

_space_group_name_H-M_alt    "P 1"
_space_group_IT_number       1

loop_
  _space_group_symop_operation_xyz
  'x, y, z'

loop_
  _atom_site_type_symbol
  _atom_site_label
  _atom_site_symmetry_multiplicity
  _atom_site_fract_x
  _atom_site_fract_y
  _atom_site_fract_z
  _atom_site_occupancy
  C   C1        1.0  0.36758  0.62788  0.32769  1.0000
  C   C2        1.0  0.40796  0.75796  0.31961  1.0000
  C   C3        1.0  0.42718  0.79470  0.32236  1.0000
  C   C4        1.0  0.20284  0.57705  0.34161  1.0000
  C   C5        1.0  0.23954  0.59455  0.33801  1.0000
  C   C6        1.0  0.34913  0.59096  0.31963  1.0000
  C   C7        1.0  0.36665  0.57174  0.32238  1.0000
  C   C8        1.0  0.40308  0.58878  0.33521  1.0000
  H   H1        1.0  0.45381  0.80720  0.31628  1.0000
  H   H2        1.0  0.25150  0.57993  0.34375  1.0000
  H   H3        1.0  0.18935  0.55046  0.34856  1.0000
  H   H4        1.0  0.32261  0.57749  0.31118  1.0000
  H   H5        1.0  0.35252  0.54511  0.31629  1.0000
  C   C9        1.0  0.34985  0.64737  0.32594  1.0000
  N   N1        1.0  0.31438  0.63127  0.32608  1.0000
  N   N2        1.0  0.36765  0.68290  0.32610  1.0000
  H   H6        1.0  0.42143  0.74491  0.31120  1.0000
  N   N3        1.0  0.41853  0.56963  0.33645  1.0000
  C   C10       1.0  0.62904  0.36923  0.33376  1.0000
  C   C11       1.0  0.59271  0.24015  0.33968  1.0000
  C   C12       1.0  0.57458  0.20339  0.34054  1.0000
  C   C13       1.0  0.79500  0.42548  0.32884  1.0000
  C   C14       1.0  0.75827  0.40685  0.32865  1.0000
  C   C15       1.0  0.64657  0.40620  0.33965  1.0000
  C   C16       1.0  0.62794  0.42434  0.34047  1.0000
  C   C17       1.0  0.59123  0.40616  0.33369  1.0000
  H   H7        1.0  0.54790  0.19021  0.34565  1.0000
  H   H8        1.0  0.74558  0.42084  0.32502  1.0000
  H   H9        1.0  0.80769  0.45218  0.32675  1.0000
  H   H10       1.0  0.67321  0.42049  0.34439  1.0000
  H   H11       1.0  0.64144  0.45101  0.34555  1.0000
  C   C18       1.0  0.64784  0.35077  0.33375  1.0000
  N   N4        1.0  0.68335  0.36787  0.33375  1.0000
  N   N5        1.0  0.63104  0.31526  0.33374  1.0000
  H   H12       1.0  0.57842  0.25250  0.34440  1.0000
  N   N6        1.0  0.57496  0.42452  0.33778  1.0000
  C   C19       1.0  0.47600  0.51705  0.28520  1.0000
  C   C20       1.0  0.46173  0.53923  0.29324  1.0000
  H   H13       1.0  0.45511  0.54766  0.23686  1.0000
  C   C21       1.0  0.53288  0.44132  0.31718  1.0000
  C   C22       1.0  0.50904  0.44216  0.25588  1.0000
  C   C23       1.0  0.49418  0.46360  0.27038  1.0000
  H   H14       1.0  0.50255  0.42719  0.19937  1.0000
  C   C24       1.0  0.47141  0.46620  0.20132  1.0000
  C   C25       1.0  0.47889  0.50434  0.19530  1.0000
  H   H15       1.0  0.44410  0.44890  0.21984  1.0000
  H   H16       1.0  0.47561  0.45816  0.13571  1.0000
  H   H17       1.0  0.46055  0.50522  0.14791  1.0000
  H   H18       1.0  0.50535  0.52123  0.17000  1.0000
  C   C26       1.0  0.54609  0.41905  0.30273  1.0000
  H   H19       1.0  0.53277  0.39829  0.26371  1.0000
  C   C27       1.0  0.48188  0.95874  0.28522  1.0000
  C   C28       1.0  0.45969  0.92229  0.29324  1.0000
  H   H20       1.0  0.45126  0.90725  0.23685  1.0000
  C   C29       1.0  0.55761  0.09135  0.31723  1.0000
  C   C30       1.0  0.55678  0.06667  0.25594  1.0000
  C   C31       1.0  0.53535  0.03037  0.27044  1.0000
  H   H21       1.0  0.57174  0.07516  0.19940  1.0000
  C   C32       1.0  0.53274  0.00501  0.20135  1.0000
  C   C33       1.0  0.49459  0.97435  0.19532  1.0000
  H   H22       1.0  0.55004  0.99499  0.21986  1.0000
  H   H23       1.0  0.54078  0.01724  0.13575  1.0000
  H   H24       1.0  0.49371  0.95512  0.14792  1.0000
  H   H25       1.0  0.47770  0.98392  0.17002  1.0000
  C   C34       1.0  0.57986  0.12683  0.30277  1.0000
  H   H26       1.0  0.60061  0.13428  0.26370  1.0000
  C   C35       1.0  0.04017  0.52291  0.28520  1.0000
  C   C36       1.0  0.07662  0.53718  0.29320  1.0000
  H   H27       1.0  0.09166  0.54380  0.23680  1.0000
  C   C37       1.0  0.90756  0.46604  0.31726  1.0000
  C   C38       1.0  0.93224  0.48989  0.25598  1.0000
  C   C39       1.0  0.96854  0.50474  0.27045  1.0000
  H   H28       1.0  0.92375  0.49637  0.19945  1.0000
  C   C40       1.0  0.99390  0.52750  0.20136  1.0000
  C   C41       1.0  0.02455  0.52000  0.19531  1.0000
  H   H29       1.0  0.00392  0.55482  0.21988  1.0000
  H   H30       1.0  0.98166  0.52330  0.13577  1.0000
  H   H31       1.0  0.04377  0.53833  0.14788  1.0000
  H   H32       1.0  0.01497  0.49354  0.17002  1.0000
  C   C42       1.0  0.87208  0.45282  0.30282  1.0000
  H   H33       1.0  0.86463  0.46613  0.26380  1.0000
  C   C43       1.0  0.25942  0.63133  0.32761  1.0000
  C   C44       1.0  0.37104  0.73950  0.32766  1.0000
  C   C45       1.0  0.41014  0.81409  0.33515  1.0000
  C   C46       1.0  0.37334  0.79607  0.34167  1.0000
  C   C47       1.0  0.35414  0.75938  0.33805  1.0000
  C   C48       1.0  0.24095  0.64978  0.31954  1.0000
  C   C49       1.0  0.20421  0.63227  0.32224  1.0000
  C   C50       1.0  0.18482  0.59584  0.33502  1.0000
  C   C51       1.0  0.42186  0.62558  0.34174  1.0000
  C   C52       1.0  0.40436  0.64477  0.33813  1.0000
  H   H34       1.0  0.36024  0.80956  0.34861  1.0000
  H   H35       1.0  0.32755  0.74742  0.34377  1.0000
  H   H36       1.0  0.25401  0.67631  0.31114  1.0000
  H   H37       1.0  0.19172  0.64640  0.31619  1.0000
  H   H38       1.0  0.44845  0.63868  0.34870  1.0000
  H   H39       1.0  0.41899  0.67136  0.34384  1.0000
  C   C53       1.0  0.29665  0.64907  0.32589  1.0000
  N   N7        1.0  0.31602  0.68454  0.32606  1.0000
  C   C54       1.0  0.35154  0.70227  0.32592  1.0000
  N   N8        1.0  0.15023  0.58039  0.33632  1.0000
  N   N9        1.0  0.42929  0.84869  0.33642  1.0000
  C   C55       1.0  0.73931  0.36986  0.33378  1.0000
  C   C56       1.0  0.62967  0.25959  0.33376  1.0000
  C   C57       1.0  0.59276  0.18485  0.33383  1.0000
  C   C58       1.0  0.62961  0.20391  0.32881  1.0000
  C   C59       1.0  0.64770  0.24064  0.32862  1.0000
  C   C60       1.0  0.75876  0.35234  0.33971  1.0000
  C   C61       1.0  0.79552  0.37097  0.34054  1.0000
  C   C62       1.0  0.81406  0.40769  0.33386  1.0000
  C   C63       1.0  0.57343  0.36931  0.32879  1.0000
  C   C64       1.0  0.59206  0.35120  0.32862  1.0000
  H   H40       1.0  0.64361  0.19121  0.32672  1.0000
  H   H41       1.0  0.67438  0.25333  0.32500  1.0000
  H   H42       1.0  0.74641  0.32570  0.34439  1.0000
  H   H43       1.0  0.80870  0.35747  0.34565  1.0000
  H   H44       1.0  0.54674  0.35531  0.32666  1.0000
  H   H45       1.0  0.57807  0.32453  0.32502  1.0000
  C   C65       1.0  0.70206  0.35107  0.33376  1.0000
  N   N10       1.0  0.68365  0.31556  0.33375  1.0000
  C   C66       1.0  0.64814  0.29685  0.33375  1.0000
  N   N11       1.0  0.84869  0.42396  0.33791  1.0000
  N   N12       1.0  0.57440  0.15022  0.33789  1.0000
  C   C67       1.0  0.45671  0.55017  0.37742  1.0000
  C   C68       1.0  0.46534  0.53759  0.45392  1.0000
  C   C69       1.0  0.47954  0.51518  0.44782  1.0000
  C   C70       1.0  0.48675  0.50603  0.36243  1.0000
  C   C71       1.0  0.50194  0.48402  0.34944  1.0000
  C   C72       1.0  0.52752  0.48463  0.40743  1.0000
  C   C73       1.0  0.54232  0.46340  0.39248  1.0000
  H   H46       1.0  0.53671  0.50139  0.46021  1.0000
  H   H47       1.0  0.56017  0.46433  0.43749  1.0000
  H   H48       1.0  0.46047  0.54409  0.51570  1.0000
  N   N13       1.0  0.48392  0.50015  0.52674  1.0000
  O   O1        1.0  0.50427  0.52295  0.58104  1.0000
  O   O2        1.0  0.45529  0.48091  0.56512  1.0000
  C   C74       1.0  0.44363  0.57268  0.38602  1.0000
  H   H49       1.0  0.45343  0.59093  0.43326  1.0000
  C   C75       1.0  0.44874  0.90633  0.37741  1.0000
  C   C76       1.0  0.46131  0.92753  0.45392  1.0000
  C   C77       1.0  0.48375  0.96414  0.44784  1.0000
  C   C78       1.0  0.49291  0.98050  0.36245  1.0000
  C   C79       1.0  0.51492  0.01770  0.34948  1.0000
  C   C80       1.0  0.51433  0.04267  0.40752  1.0000
  C   C81       1.0  0.53553  0.07870  0.39253  1.0000
  H   H50       1.0  0.49754  0.03509  0.46025  1.0000
  H   H51       1.0  0.53459  0.09562  0.43754  1.0000
  H   H52       1.0  0.45482  0.91616  0.51570  1.0000
  N   N14       1.0  0.49877  0.98354  0.52678  1.0000
  O   O3        1.0  0.47598  0.98110  0.58108  1.0000
  O   O4        1.0  0.51801  0.97413  0.56514  1.0000
  C   C82       1.0  0.42624  0.87074  0.38600  1.0000
  H   H53       1.0  0.40798  0.86228  0.43321  1.0000
  C   C83       1.0  0.09259  0.54220  0.37736  1.0000
  C   C84       1.0  0.07140  0.53358  0.45388  1.0000
  C   C85       1.0  0.03478  0.51938  0.44781  1.0000
  C   C86       1.0  0.01841  0.51215  0.36244  1.0000
  C   C87       1.0  0.98121  0.49697  0.34950  1.0000
  C   C88       1.0  0.95624  0.47141  0.40752  1.0000
  C   C89       1.0  0.92021  0.45659  0.39254  1.0000
  H   H54       1.0  0.96382  0.46219  0.46023  1.0000
  H   H55       1.0  0.90329  0.43873  0.43755  1.0000
  H   H56       1.0  0.08277  0.53846  0.51565  1.0000
  N   N15       1.0  0.01538  0.51499  0.52675  1.0000
  O   O5        1.0  0.01784  0.49465  0.58104  1.0000
  O   O6        1.0  0.02477  0.54363  0.56513  1.0000
  C   C90       1.0  0.12818  0.55529  0.38594  1.0000
  H   H57       1.0  0.13665  0.54550  0.43316  1.0000
