data_image0
_chemical_formula_structural       C2HCHC3H3C3HCH3C3HCH3C3HCH3C3HCH3C3HCH3C3HCH3C3HCH3C3HCH3C24H15C24H15C24H15C24H15C24H15C24H15C2H3C3HCH3C3HCH3C3HCH3C3HCH3C3HCH3C3HCH3C3HCH3C3HCH3
_chemical_formula_sum              "C216 H162"
_cell_length_a       61.6025
_cell_length_b       61.6024
_cell_length_c       14.9861
_cell_angle_alpha    90
_cell_angle_beta     90
_cell_angle_gamma    120

_space_group_name_H-M_alt    "P 1"
_space_group_IT_number       1

loop_
  _space_group_symop_operation_xyz
  'x, y, z'

loop_
  _atom_site_type_symbol
  _atom_site_label
  _atom_site_symmetry_multiplicity
  _atom_site_fract_x
  _atom_site_fract_y
  _atom_site_fract_z
  _atom_site_occupancy
  C   C1        1.0  0.01362  0.51106  0.25754  1.0000
  C   C2        1.0  0.01363  0.50238  0.41461  1.0000
  H   H1        1.0  0.02317  0.51875  0.19954  1.0000
  C   C3        1.0  0.02739  0.51378  0.33624  1.0000
  H   H2        1.0  0.02315  0.50445  0.47295  1.0000
  C   C4        1.0  0.98711  0.49771  0.25573  1.0000
  C   C5        1.0  0.97369  0.48607  0.33556  1.0000
  C   C6        1.0  0.97421  0.49680  0.17033  1.0000
  H   H3        1.0  0.98722  0.50796  0.11740  1.0000
  H   H4        1.0  0.96145  0.50404  0.18088  1.0000
  H   H5        1.0  0.96353  0.47754  0.14640  1.0000
  C   C7        1.0  0.49015  0.50285  0.25752  1.0000
  C   C8        1.0  0.50350  0.48969  0.25571  1.0000
  C   C9        1.0  0.51510  0.48786  0.33559  1.0000
  H   H6        1.0  0.48248  0.50473  0.19949  1.0000
  C   C10       1.0  0.50445  0.47773  0.17026  1.0000
  H   H7        1.0  0.49332  0.47961  0.11730  1.0000
  H   H8        1.0  0.49722  0.45774  0.18069  1.0000
  H   H9        1.0  0.52372  0.48634  0.14644  1.0000
  C   C11       1.0  0.49836  0.98754  0.25761  1.0000
  C   C12       1.0  0.51152  0.01405  0.25578  1.0000
  C   C13       1.0  0.51329  0.02748  0.33559  1.0000
  H   H10       1.0  0.49652  0.97799  0.19962  1.0000
  C   C14       1.0  0.52353  0.02695  0.17039  1.0000
  H   H11       1.0  0.52168  0.01394  0.11748  1.0000
  H   H12       1.0  0.54352  0.03971  0.18096  1.0000
  H   H13       1.0  0.51495  0.03763  0.14642  1.0000
  C   C15       1.0  0.28736  0.52904  0.34131  1.0000
  C   C16       1.0  0.24744  0.51878  0.26815  1.0000
  C   C17       1.0  0.27041  0.51882  0.26945  1.0000
  H   H14       1.0  0.27542  0.51225  0.21495  1.0000
  C   C18       1.0  0.23149  0.50810  0.18720  1.0000
  H   H15       1.0  0.21335  0.50705  0.19267  1.0000
  H   H16       1.0  0.22786  0.48907  0.17578  1.0000
  H   H17       1.0  0.24120  0.51956  0.12908  1.0000
  C   C19       1.0  0.47215  0.75857  0.34135  1.0000
  C   C20       1.0  0.48242  0.72893  0.26816  1.0000
  C   C21       1.0  0.48240  0.75186  0.26951  1.0000
  H   H18       1.0  0.48898  0.76346  0.21507  1.0000
  C   C22       1.0  0.49311  0.72366  0.18722  1.0000
  H   H19       1.0  0.49414  0.70656  0.19266  1.0000
  H   H20       1.0  0.51215  0.73906  0.17588  1.0000
  H   H21       1.0  0.48167  0.72194  0.12907  1.0000
  C   C23       1.0  0.24258  0.71382  0.34137  1.0000
  C   C24       1.0  0.27226  0.75372  0.26814  1.0000
  C   C25       1.0  0.24933  0.73077  0.26948  1.0000
  H   H22       1.0  0.23775  0.72575  0.21499  1.0000
  C   C26       1.0  0.27753  0.76966  0.18715  1.0000
  H   H23       1.0  0.29463  0.78780  0.19258  1.0000
  H   H24       1.0  0.26213  0.77330  0.17572  1.0000
  H   H25       1.0  0.27927  0.75994  0.12905  1.0000
  C   C27       1.0  0.71388  0.47167  0.34219  1.0000
  C   C28       1.0  0.75375  0.48228  0.26776  1.0000
  C   C29       1.0  0.73070  0.48206  0.27000  1.0000
  H   H26       1.0  0.72550  0.48860  0.21590  1.0000
  C   C30       1.0  0.76950  0.49307  0.18645  1.0000
  H   H27       1.0  0.78771  0.49425  0.19119  1.0000
  H   H28       1.0  0.77299  0.51208  0.17543  1.0000
  H   H29       1.0  0.75971  0.48163  0.12842  1.0000
  C   C31       1.0  0.52946  0.24243  0.34225  1.0000
  C   C32       1.0  0.51883  0.27167  0.26785  1.0000
  C   C33       1.0  0.51905  0.24884  0.27009  1.0000
  H   H30       1.0  0.51250  0.23710  0.21602  1.0000
  C   C34       1.0  0.50801  0.27661  0.18659  1.0000
  H   H31       1.0  0.50684  0.29365  0.19132  1.0000
  H   H32       1.0  0.48900  0.26109  0.17565  1.0000
  H   H33       1.0  0.51943  0.27825  0.12851  1.0000
  C   C35       1.0  0.75873  0.28726  0.34208  1.0000
  C   C36       1.0  0.72948  0.24738  0.26777  1.0000
  C   C37       1.0  0.75231  0.27043  0.26996  1.0000
  H   H34       1.0  0.76406  0.27561  0.21588  1.0000
  C   C38       1.0  0.72453  0.23160  0.18653  1.0000
  H   H35       1.0  0.70749  0.21340  0.19131  1.0000
  H   H36       1.0  0.74005  0.22811  0.17560  1.0000
  H   H37       1.0  0.72288  0.24138  0.12844  1.0000
  C   C39       1.0  0.17495  0.60920  0.33254  1.0000
  C   C40       1.0  0.14856  0.59548  0.33758  1.0000
  C   C41       1.0  0.13513  0.56890  0.33540  1.0000
  C   C42       1.0  0.14910  0.55630  0.33012  1.0000
  C   C43       1.0  0.17561  0.56945  0.32670  1.0000
  C   C44       1.0  0.18810  0.59593  0.32859  1.0000
  C   C45       1.0  0.10826  0.55521  0.33625  1.0000
  C   C46       1.0  0.09418  0.56357  0.28709  1.0000
  C   C47       1.0  0.06782  0.55014  0.28760  1.0000
  C   C48       1.0  0.05428  0.52758  0.33652  1.0000
  C   C49       1.0  0.06835  0.51916  0.38539  1.0000
  C   C50       1.0  0.09473  0.53271  0.38551  1.0000
  C   C51       1.0  0.18856  0.63581  0.32929  1.0000
  C   C52       1.0  0.18835  0.65040  0.40171  1.0000
  C   C53       1.0  0.20528  0.67642  0.40420  1.0000
  C   C54       1.0  0.22245  0.68861  0.33365  1.0000
  C   C55       1.0  0.22162  0.67406  0.25928  1.0000
  C   C56       1.0  0.20502  0.64807  0.25729  1.0000
  C   C57       1.0  0.18982  0.55688  0.32231  1.0000
  C   C58       1.0  0.21116  0.56610  0.26638  1.0000
  C   C59       1.0  0.22743  0.55636  0.27085  1.0000
  C   C60       1.0  0.22260  0.53661  0.33008  1.0000
  C   C61       1.0  0.20057  0.52625  0.38232  1.0000
  C   C62       1.0  0.18444  0.53629  0.37857  1.0000
  H   H38       1.0  0.20570  0.68626  0.45984  1.0000
  H   H39       1.0  0.17722  0.64195  0.45607  1.0000
  H   H40       1.0  0.23435  0.68190  0.20850  1.0000
  H   H41       1.0  0.20592  0.63798  0.20454  1.0000
  H   H42       1.0  0.21567  0.58076  0.22383  1.0000
  H   H43       1.0  0.24339  0.56452  0.23288  1.0000
  H   H44       1.0  0.16955  0.52941  0.42157  1.0000
  H   H45       1.0  0.19677  0.51213  0.42654  1.0000
  H   H46       1.0  0.10398  0.52601  0.42307  1.0000
  H   H47       1.0  0.05953  0.50276  0.42069  1.0000
  H   H48       1.0  0.05860  0.55728  0.25220  1.0000
  H   H49       1.0  0.10300  0.57945  0.24899  1.0000
  H   H50       1.0  0.13906  0.60514  0.34176  1.0000
  H   H51       1.0  0.20730  0.60591  0.32857  1.0000
  H   H52       1.0  0.13981  0.53716  0.32542  1.0000
  C   C63       1.0  0.39198  0.56600  0.33250  1.0000
  C   C64       1.0  0.40569  0.55332  0.33754  1.0000
  C   C65       1.0  0.43227  0.56648  0.33540  1.0000
  C   C66       1.0  0.44487  0.59304  0.33015  1.0000
  C   C67       1.0  0.43173  0.60640  0.32669  1.0000
  C   C68       1.0  0.40524  0.59241  0.32855  1.0000
  C   C69       1.0  0.44596  0.55329  0.33625  1.0000
  C   C70       1.0  0.43762  0.53087  0.28701  1.0000
  C   C71       1.0  0.45105  0.51794  0.28749  1.0000
  C   C72       1.0  0.47359  0.52694  0.33653  1.0000
  C   C73       1.0  0.48199  0.54942  0.38549  1.0000
  C   C74       1.0  0.46844  0.56225  0.38560  1.0000
  C   C75       1.0  0.36536  0.55299  0.32923  1.0000
  C   C76       1.0  0.35077  0.53819  0.40163  1.0000
  C   C77       1.0  0.32475  0.52910  0.40411  1.0000
  C   C78       1.0  0.31256  0.53409  0.33357  1.0000
  C   C79       1.0  0.32712  0.54781  0.25918  1.0000
  C   C80       1.0  0.35310  0.55720  0.25722  1.0000
  C   C81       1.0  0.44430  0.63319  0.32229  1.0000
  C   C82       1.0  0.43509  0.64530  0.26628  1.0000
  C   C83       1.0  0.44480  0.67131  0.27086  1.0000
  C   C84       1.0  0.46456  0.68623  0.33009  1.0000
  C   C85       1.0  0.47494  0.67457  0.38227  1.0000
  C   C86       1.0  0.46486  0.64839  0.37863  1.0000
  H   H53       1.0  0.31491  0.51970  0.45977  1.0000
  H   H54       1.0  0.35921  0.53551  0.45599  1.0000
  H   H55       1.0  0.31928  0.55272  0.20846  1.0000
  H   H56       1.0  0.36320  0.56820  0.20448  1.0000
  H   H57       1.0  0.42042  0.63515  0.22379  1.0000
  H   H58       1.0  0.43666  0.67912  0.23284  1.0000
  H   H59       1.0  0.47175  0.64039  0.42159  1.0000
  H   H60       1.0  0.48904  0.68488  0.42657  1.0000
  H   H61       1.0  0.47513  0.57819  0.42322  1.0000
  H   H62       1.0  0.49838  0.55698  0.42086  1.0000
  H   H63       1.0  0.44392  0.50159  0.25204  1.0000
  H   H64       1.0  0.42175  0.52382  0.24885  1.0000
  H   H65       1.0  0.39603  0.53416  0.34170  1.0000
  H   H66       1.0  0.39526  0.60164  0.32851  1.0000
  H   H67       1.0  0.46401  0.60289  0.32547  1.0000
  C   C87       1.0  0.43518  0.82622  0.33262  1.0000
  C   C88       1.0  0.44786  0.85261  0.33770  1.0000
  C   C89       1.0  0.43470  0.86603  0.33549  1.0000
  C   C90       1.0  0.40814  0.85207  0.33017  1.0000
  C   C91       1.0  0.39477  0.82556  0.32672  1.0000
  C   C92       1.0  0.40877  0.81307  0.32859  1.0000
  C   C93       1.0  0.44789  0.89291  0.33636  1.0000
  C   C94       1.0  0.47033  0.90699  0.28726  1.0000
  C   C95       1.0  0.48326  0.93335  0.28772  1.0000
  C   C96       1.0  0.47423  0.94688  0.33661  1.0000
  C   C97       1.0  0.45173  0.93281  0.38546  1.0000
  C   C98       1.0  0.43890  0.90643  0.38559  1.0000
  C   C99       1.0  0.44819  0.81261  0.32939  1.0000
  C   C100      1.0  0.46298  0.81281  0.40181  1.0000
  C   C101      1.0  0.47206  0.79587  0.40430  1.0000
  C   C102      1.0  0.46712  0.77874  0.33368  1.0000
  C   C103      1.0  0.45339  0.77957  0.25931  1.0000
  C   C104      1.0  0.44401  0.79617  0.25731  1.0000
  C   C105      1.0  0.36799  0.81135  0.32229  1.0000
  C   C106      1.0  0.35587  0.79002  0.26631  1.0000
  C   C107      1.0  0.32987  0.77375  0.27081  1.0000
  C   C108      1.0  0.31494  0.77858  0.33005  1.0000
  C   C109      1.0  0.32661  0.80061  0.38228  1.0000
  C   C110      1.0  0.35279  0.81671  0.37865  1.0000
  H   H68       1.0  0.48148  0.79546  0.45992  1.0000
  H   H69       1.0  0.46565  0.82393  0.45619  1.0000
  H   H70       1.0  0.44850  0.76683  0.20856  1.0000
  H   H71       1.0  0.43299  0.79524  0.20462  1.0000
  H   H72       1.0  0.36602  0.78550  0.22386  1.0000
  H   H73       1.0  0.32207  0.75777  0.23292  1.0000
  H   H74       1.0  0.36079  0.83163  0.42151  1.0000
  H   H75       1.0  0.31629  0.80442  0.42650  1.0000
  H   H76       1.0  0.42294  0.89718  0.42309  1.0000
  H   H77       1.0  0.44415  0.94163  0.42070  1.0000
  H   H78       1.0  0.49962  0.94257  0.25235  1.0000
  H   H79       1.0  0.47740  0.89817  0.24915  1.0000
  H   H80       1.0  0.46702  0.86211  0.34189  1.0000
  H   H81       1.0  0.39954  0.79386  0.32858  1.0000
  H   H82       1.0  0.39829  0.86136  0.32545  1.0000
  C   C111      1.0  0.82626  0.39200  0.33392  1.0000
  C   C112      1.0  0.85265  0.40560  0.33912  1.0000
  C   C113      1.0  0.86630  0.43218  0.33464  1.0000
  C   C114      1.0  0.85243  0.44486  0.32753  1.0000
  C   C115      1.0  0.82592  0.43185  0.32469  1.0000
  C   C116      1.0  0.81326  0.40539  0.32830  1.0000
  C   C117      1.0  0.89325  0.44573  0.33511  1.0000
  C   C118      1.0  0.90717  0.43615  0.29169  1.0000
  C   C119      1.0  0.93353  0.44920  0.29269  1.0000
  C   C120      1.0  0.94697  0.47273  0.33511  1.0000
  C   C121      1.0  0.93340  0.48267  0.37775  1.0000
  C   C122      1.0  0.90702  0.46925  0.37849  1.0000
  C   C123      1.0  0.81253  0.36538  0.33126  1.0000
  C   C124      1.0  0.81255  0.35082  0.40406  1.0000
  C   C125      1.0  0.79570  0.32477  0.40626  1.0000
  C   C126      1.0  0.77878  0.31254  0.33509  1.0000
  C   C127      1.0  0.77975  0.32709  0.26051  1.0000
  C   C128      1.0  0.79627  0.35309  0.25879  1.0000
  C   C129      1.0  0.81183  0.44454  0.31967  1.0000
  C   C130      1.0  0.79041  0.43524  0.26409  1.0000
  C   C131      1.0  0.77410  0.44493  0.26897  1.0000
  C   C132      1.0  0.77896  0.46469  0.32823  1.0000
  C   C133      1.0  0.80110  0.47515  0.37995  1.0000
  C   C134      1.0  0.81727  0.46516  0.37583  1.0000
  H   H83       1.0  0.79521  0.31493  0.46196  1.0000
  H   H84       1.0  0.82363  0.35927  0.45854  1.0000
  H   H85       1.0  0.76714  0.31925  0.20938  1.0000
  H   H86       1.0  0.79548  0.36317  0.20575  1.0000
  H   H87       1.0  0.78584  0.42052  0.22182  1.0000
  H   H88       1.0  0.75806  0.43670  0.23140  1.0000
  H   H89       1.0  0.83221  0.47208  0.41858  1.0000
  H   H90       1.0  0.80492  0.48927  0.42420  1.0000
  H   H91       1.0  0.89798  0.47682  0.41246  1.0000
  H   H92       1.0  0.94266  0.49961  0.40972  1.0000
  H   H93       1.0  0.94285  0.44149  0.26135  1.0000
  H   H94       1.0  0.89827  0.41959  0.25744  1.0000
  H   H95       1.0  0.86196  0.39580  0.34488  1.0000
  H   H96       1.0  0.79405  0.39552  0.32836  1.0000
  H   H97       1.0  0.86176  0.46395  0.32113  1.0000
  C   C135      1.0  0.60913  0.43445  0.33403  1.0000
  C   C136      1.0  0.59554  0.44725  0.33925  1.0000
  C   C137      1.0  0.56896  0.43434  0.33473  1.0000
  C   C138      1.0  0.55628  0.40779  0.32763  1.0000
  C   C139      1.0  0.56928  0.39427  0.32477  1.0000
  C   C140      1.0  0.59574  0.40807  0.32838  1.0000
  C   C141      1.0  0.55542  0.44774  0.33518  1.0000
  C   C142      1.0  0.56502  0.47126  0.29186  1.0000
  C   C143      1.0  0.55197  0.48457  0.29281  1.0000
  C   C144      1.0  0.52843  0.47448  0.33515  1.0000
  C   C145      1.0  0.51847  0.45095  0.37770  1.0000
  C   C146      1.0  0.53188  0.43799  0.37845  1.0000
  C   C147      1.0  0.63576  0.44734  0.33138  1.0000
  C   C148      1.0  0.65033  0.46193  0.40414  1.0000
  C   C149      1.0  0.67637  0.47113  0.40634  1.0000
  C   C150      1.0  0.68861  0.46643  0.33519  1.0000
  C   C151      1.0  0.67403  0.45279  0.26072  1.0000
  C   C152      1.0  0.64804  0.44335  0.25892  1.0000
  C   C153      1.0  0.55658  0.36750  0.31970  1.0000
  C   C154      1.0  0.56586  0.35538  0.26404  1.0000
  C   C155      1.0  0.55618  0.32939  0.26893  1.0000
  C   C156      1.0  0.53644  0.31449  0.32825  1.0000
  C   C157      1.0  0.52596  0.32615  0.37994  1.0000
  C   C158      1.0  0.53598  0.35232  0.37594  1.0000
  H   H98       1.0  0.68623  0.48051  0.46200  1.0000
  H   H99       1.0  0.64188  0.46457  0.45861  1.0000
  H   H100      1.0  0.68189  0.44808  0.20949  1.0000
  H   H101      1.0  0.63797  0.43250  0.20587  1.0000
  H   H102      1.0  0.58058  0.36554  0.22177  1.0000
  H   H103      1.0  0.56441  0.32158  0.23135  1.0000
  H   H104      1.0  0.52908  0.36035  0.41873  1.0000
  H   H105      1.0  0.51189  0.31587  0.42437  1.0000
  H   H106      1.0  0.52431  0.42138  0.41240  1.0000
  H   H107      1.0  0.50153  0.44327  0.40961  1.0000
  H   H108      1.0  0.55970  0.50161  0.26158  1.0000
  H   H109      1.0  0.58160  0.47893  0.25768  1.0000
  H   H110      1.0  0.60535  0.46637  0.34500  1.0000
  H   H111      1.0  0.60561  0.39873  0.32842  1.0000
  H   H112      1.0  0.53719  0.39803  0.32116  1.0000
  C   C159      1.0  0.56671  0.17492  0.33407  1.0000
  C   C160      1.0  0.55390  0.14853  0.33926  1.0000
  C   C161      1.0  0.56682  0.13486  0.33476  1.0000
  C   C162      1.0  0.59337  0.14873  0.32765  1.0000
  C   C163      1.0  0.60689  0.17524  0.32480  1.0000
  C   C164      1.0  0.59309  0.18790  0.32843  1.0000
  C   C165      1.0  0.55342  0.10792  0.33519  1.0000
  C   C166      1.0  0.52992  0.09401  0.29171  1.0000
  C   C167      1.0  0.51661  0.06765  0.29268  1.0000
  C   C168      1.0  0.52668  0.05419  0.33515  1.0000
  C   C169      1.0  0.55018  0.06775  0.37781  1.0000
  C   C170      1.0  0.56315  0.09414  0.37857  1.0000
  C   C171      1.0  0.55383  0.18866  0.33145  1.0000
  C   C172      1.0  0.53923  0.18863  0.40422  1.0000
  C   C173      1.0  0.53003  0.20547  0.40644  1.0000
  C   C174      1.0  0.53472  0.22240  0.33530  1.0000
  C   C175      1.0  0.54836  0.22148  0.26082  1.0000
  C   C176      1.0  0.55783  0.20495  0.25906  1.0000
  C   C177      1.0  0.63366  0.18931  0.31971  1.0000
  C   C178      1.0  0.64578  0.21071  0.26407  1.0000
  C   C179      1.0  0.67177  0.22702  0.26889  1.0000
  C   C180      1.0  0.68667  0.22218  0.32824  1.0000
  C   C181      1.0  0.67501  0.20007  0.38003  1.0000
  C   C182      1.0  0.64884  0.18390  0.37596  1.0000
  H   H113      1.0  0.52064  0.20594  0.46210  1.0000
  H   H114      1.0  0.53659  0.17753  0.45866  1.0000
  H   H115      1.0  0.55306  0.23404  0.20956  1.0000
  H   H116      1.0  0.56865  0.20571  0.20593  1.0000
  H   H117      1.0  0.63562  0.21527  0.22181  1.0000
  H   H118      1.0  0.67957  0.24306  0.23135  1.0000
  H   H119      1.0  0.64082  0.16896  0.41872  1.0000
  H   H120      1.0  0.68530  0.19625  0.42432  1.0000
  H   H121      1.0  0.57975  0.10317  0.41262  1.0000
  H   H122      1.0  0.55785  0.05849  0.40984  1.0000
  H   H123      1.0  0.49958  0.05833  0.26136  1.0000
  H   H124      1.0  0.52226  0.10291  0.25749  1.0000
  H   H125      1.0  0.53479  0.13922  0.34500  1.0000
  H   H126      1.0  0.60244  0.20711  0.32849  1.0000
  H   H127      1.0  0.60313  0.13939  0.32119  1.0000
  C   C183      1.0  0.98714  0.48833  0.41579  1.0000
  C   C184      1.0  0.97528  0.47645  0.50260  1.0000
  H   H128      1.0  0.95500  0.46448  0.49905  1.0000
  H   H129      1.0  0.97943  0.49101  0.55219  1.0000
  H   H130      1.0  0.98286  0.46479  0.52602  1.0000
  C   C185      1.0  0.48739  0.51385  0.33625  1.0000
  C   C186      1.0  0.51279  0.49901  0.41585  1.0000
  C   C187      1.0  0.49874  0.51146  0.41467  1.0000
  H   H131      1.0  0.49664  0.51887  0.47303  1.0000
  C   C188      1.0  0.52462  0.49898  0.50272  1.0000
  H   H132      1.0  0.53660  0.49069  0.49919  1.0000
  H   H133      1.0  0.51004  0.48855  0.55219  1.0000
  H   H134      1.0  0.53627  0.51821  0.52629  1.0000
  C   C189      1.0  0.48731  0.97378  0.33631  1.0000
  C   C190      1.0  0.50209  0.01403  0.41582  1.0000
  C   C191      1.0  0.48965  0.98753  0.41465  1.0000
  H   H135      1.0  0.48220  0.97802  0.47299  1.0000
  C   C192      1.0  0.50206  0.02590  0.50260  1.0000
  H   H136      1.0  0.51036  0.04617  0.49903  1.0000
  H   H137      1.0  0.51246  0.02175  0.55223  1.0000
  H   H138      1.0  0.48282  0.01832  0.52598  1.0000
  C   C193      1.0  0.28016  0.53800  0.41574  1.0000
  C   C194      1.0  0.25761  0.53879  0.41664  1.0000
  C   C195      1.0  0.24133  0.52966  0.34107  1.0000
  H   H139      1.0  0.29267  0.54622  0.46695  1.0000
  C   C196      1.0  0.25265  0.55082  0.49449  1.0000
  H   H140      1.0  0.26735  0.55743  0.54513  1.0000
  H   H141      1.0  0.23515  0.53734  0.52664  1.0000
  H   H142      1.0  0.25122  0.56694  0.47241  1.0000
  C   C197      1.0  0.46316  0.74239  0.41571  1.0000
  C   C198      1.0  0.46236  0.71904  0.41655  1.0000
  C   C199      1.0  0.47153  0.71192  0.34100  1.0000
  H   H143      1.0  0.45492  0.74666  0.46690  1.0000
  C   C200      1.0  0.45031  0.70204  0.49436  1.0000
  H   H144      1.0  0.44368  0.71012  0.54498  1.0000
  H   H145      1.0  0.46377  0.69800  0.52655  1.0000
  H   H146      1.0  0.43419  0.68449  0.47221  1.0000
  C   C201      1.0  0.25876  0.72103  0.41575  1.0000
  C   C202      1.0  0.28211  0.74357  0.41661  1.0000
  C   C203      1.0  0.28927  0.75985  0.34102  1.0000
  H   H147      1.0  0.25448  0.70852  0.46698  1.0000
  C   C204      1.0  0.29909  0.74853  0.49445  1.0000
  H   H148      1.0  0.29101  0.73383  0.54511  1.0000
  H   H149      1.0  0.30314  0.76604  0.52658  1.0000
  H   H150      1.0  0.31664  0.74995  0.47236  1.0000
  C   C205      1.0  0.72135  0.46278  0.41609  1.0000
  C   C206      1.0  0.74401  0.46219  0.41607  1.0000
  C   C207      1.0  0.76014  0.47146  0.34012  1.0000
  H   H151      1.0  0.70896  0.45444  0.46756  1.0000
  C   C208      1.0  0.74925  0.45022  0.49343  1.0000
  H   H152      1.0  0.73465  0.44349  0.54447  1.0000
  H   H153      1.0  0.76678  0.46377  0.52523  1.0000
  H   H154      1.0  0.75078  0.43419  0.47087  1.0000
  C   C209      1.0  0.53839  0.25881  0.41608  1.0000
  C   C210      1.0  0.53899  0.28206  0.41606  1.0000
  C   C211      1.0  0.52968  0.28890  0.34015  1.0000
  H   H155      1.0  0.54675  0.25476  0.46751  1.0000
  C   C212      1.0  0.55099  0.29929  0.49333  1.0000
  H   H156      1.0  0.55774  0.29143  0.54434  1.0000
  H   H157      1.0  0.53746  0.30328  0.52521  1.0000
  H   H158      1.0  0.56701  0.31684  0.47068  1.0000
  C   C213      1.0  0.74237  0.27983  0.41596  1.0000
  C   C214      1.0  0.71911  0.25717  0.41598  1.0000
  C   C215      1.0  0.71227  0.24102  0.34009  1.0000
  H   H159      1.0  0.74642  0.29223  0.46737  1.0000
  C   C216      1.0  0.70190  0.25196  0.49329  1.0000
  H   H160      1.0  0.70976  0.26657  0.54427  1.0000
  H   H161      1.0  0.69791  0.23443  0.52519  1.0000
  H   H162      1.0  0.68435  0.25042  0.47067  1.0000
