data_image0
_chemical_formula_structural       C8H4C8H4C8H4N12CNCNCNC18H12CNCNCNC18H12CNCNCNC18H12CNCNCNC18H12CNCNCNC18H12CNCNCNC18H12N6C8H4C8H4C8H4C8H4C8H4C8H4
_chemical_formula_sum              "C198 H108 N36"
_cell_length_a       60.1165
_cell_length_b       60.1166
_cell_length_c       15.002
_cell_angle_alpha    90
_cell_angle_beta     90
_cell_angle_gamma    120

_space_group_name_H-M_alt    "P 1"
_space_group_IT_number       1

loop_
  _space_group_symop_operation_xyz
  'x, y, z'

loop_
  _atom_site_type_symbol
  _atom_site_label
  _atom_site_symmetry_multiplicity
  _atom_site_fract_x
  _atom_site_fract_y
  _atom_site_fract_z
  _atom_site_occupancy
  C   C1        1.0  0.97325  0.48662  0.31821  1.0000
  C   C2        1.0  0.98619  0.49309  0.23487  1.0000
  C   C3        1.0  0.01363  0.50680  0.23484  1.0000
  C   C4        1.0  0.02658  0.51328  0.31816  1.0000
  C   C5        1.0  0.02687  0.51342  0.15224  1.0000
  C   C6        1.0  0.01337  0.50667  0.07118  1.0000
  C   C7        1.0  0.98643  0.49319  0.07121  1.0000
  C   C8        1.0  0.97293  0.48645  0.15230  1.0000
  H   H1        1.0  0.04650  0.52324  0.14990  1.0000
  H   H2        1.0  0.02316  0.51156  0.01209  1.0000
  H   H3        1.0  0.97662  0.48829  0.01214  1.0000
  H   H4        1.0  0.95331  0.47663  0.14999  1.0000
  C   C9        1.0  0.51321  0.48659  0.31817  1.0000
  C   C10       1.0  0.50674  0.49307  0.23485  1.0000
  C   C11       1.0  0.49301  0.50678  0.23486  1.0000
  C   C12       1.0  0.48653  0.51324  0.31820  1.0000
  C   C13       1.0  0.48639  0.51341  0.15228  1.0000
  C   C14       1.0  0.49315  0.50668  0.07120  1.0000
  C   C15       1.0  0.50662  0.49321  0.07119  1.0000
  C   C16       1.0  0.51337  0.48645  0.15226  1.0000
  H   H5        1.0  0.47657  0.52323  0.14997  1.0000
  H   H6        1.0  0.48825  0.51158  0.01212  1.0000
  H   H7        1.0  0.51153  0.48832  0.01210  1.0000
  H   H8        1.0  0.52319  0.47664  0.14992  1.0000
  C   C17       1.0  0.51322  0.02661  0.31821  1.0000
  C   C18       1.0  0.50675  0.01367  0.23487  1.0000
  C   C19       1.0  0.49304  0.98623  0.23487  1.0000
  C   C20       1.0  0.48656  0.97328  0.31820  1.0000
  C   C21       1.0  0.48642  0.97298  0.15228  1.0000
  C   C22       1.0  0.49317  0.98648  0.07122  1.0000
  C   C23       1.0  0.50664  0.01342  0.07122  1.0000
  C   C24       1.0  0.51338  0.02692  0.15229  1.0000
  H   H9        1.0  0.47660  0.95335  0.14996  1.0000
  H   H10       1.0  0.48828  0.97668  0.01213  1.0000
  H   H11       1.0  0.51155  0.02322  0.01214  1.0000
  H   H12       1.0  0.52320  0.04655  0.14997  1.0000
  N   N1        1.0  0.24996  0.52182  0.26997  1.0000
  N   N2        1.0  0.27165  0.52188  0.26975  1.0000
  N   N3        1.0  0.47792  0.72812  0.27006  1.0000
  N   N4        1.0  0.47791  0.74977  0.27007  1.0000
  N   N5        1.0  0.27174  0.74982  0.26993  1.0000
  N   N6        1.0  0.25010  0.72814  0.27002  1.0000
  N   N7        1.0  0.74976  0.47801  0.26966  1.0000
  N   N8        1.0  0.72810  0.47801  0.26975  1.0000
  N   N9        1.0  0.52180  0.27177  0.26997  1.0000
  N   N10       1.0  0.52185  0.25014  0.26974  1.0000
  N   N11       1.0  0.72811  0.25014  0.27006  1.0000
  N   N12       1.0  0.74979  0.27177  0.27004  1.0000
  C   C25       1.0  0.17534  0.60758  0.33215  1.0000
  N   N13       1.0  0.14925  0.59401  0.33343  1.0000
  C   C26       1.0  0.13567  0.56781  0.33409  1.0000
  N   N14       1.0  0.14924  0.55518  0.33348  1.0000
  C   C27       1.0  0.17533  0.56769  0.33221  1.0000
  N   N15       1.0  0.18749  0.59370  0.33169  1.0000
  C   C28       1.0  0.10827  0.55411  0.33408  1.0000
  C   C29       1.0  0.09416  0.56725  0.33311  1.0000
  C   C30       1.0  0.06716  0.55380  0.32981  1.0000
  C   C31       1.0  0.05349  0.52674  0.32771  1.0000
  C   C32       1.0  0.06715  0.51333  0.32980  1.0000
  C   C33       1.0  0.09415  0.52687  0.33313  1.0000
  C   C34       1.0  0.19001  0.63497  0.33237  1.0000
  C   C35       1.0  0.17843  0.65049  0.33818  1.0000
  C   C36       1.0  0.19343  0.67754  0.34116  1.0000
  C   C37       1.0  0.22047  0.68974  0.33776  1.0000
  C   C38       1.0  0.23216  0.67448  0.33109  1.0000
  C   C39       1.0  0.21721  0.64765  0.32833  1.0000
  C   C40       1.0  0.18998  0.55495  0.33248  1.0000
  C   C41       1.0  0.21718  0.56945  0.32869  1.0000
  C   C42       1.0  0.23211  0.55754  0.33146  1.0000
  C   C43       1.0  0.22040  0.53058  0.33787  1.0000
  C   C44       1.0  0.19335  0.51576  0.34104  1.0000
  C   C45       1.0  0.17837  0.52784  0.33807  1.0000
  H   H13       1.0  0.18456  0.68823  0.34696  1.0000
  H   H14       1.0  0.15889  0.64224  0.34179  1.0000
  H   H15       1.0  0.25177  0.68277  0.32960  1.0000
  H   H16       1.0  0.22671  0.63754  0.32426  1.0000
  H   H17       1.0  0.22670  0.58906  0.32480  1.0000
  H   H18       1.0  0.25172  0.56884  0.33015  1.0000
  H   H19       1.0  0.15883  0.51656  0.34149  1.0000
  H   H20       1.0  0.18446  0.49620  0.34666  1.0000
  H   H21       1.0  0.10334  0.51643  0.33330  1.0000
  H   H22       1.0  0.05760  0.49368  0.32725  1.0000
  H   H23       1.0  0.05761  0.56390  0.32727  1.0000
  H   H24       1.0  0.10336  0.58688  0.33333  1.0000
  C   C46       1.0  0.39222  0.56769  0.33227  1.0000
  N   N16       1.0  0.40579  0.55517  0.33356  1.0000
  C   C47       1.0  0.43200  0.56779  0.33420  1.0000
  N   N17       1.0  0.44463  0.59399  0.33356  1.0000
  C   C48       1.0  0.43211  0.60757  0.33227  1.0000
  N   N18       1.0  0.40610  0.59371  0.33177  1.0000
  C   C49       1.0  0.44569  0.55409  0.33419  1.0000
  C   C50       1.0  0.43256  0.52684  0.33323  1.0000
  C   C51       1.0  0.44601  0.51330  0.32986  1.0000
  C   C52       1.0  0.47307  0.52670  0.32779  1.0000
  C   C53       1.0  0.48648  0.55376  0.32992  1.0000
  C   C54       1.0  0.47293  0.56722  0.33323  1.0000
  C   C55       1.0  0.36483  0.55498  0.33247  1.0000
  C   C56       1.0  0.34930  0.52787  0.33824  1.0000
  C   C57       1.0  0.32225  0.51583  0.34111  1.0000
  C   C58       1.0  0.31006  0.53067  0.33766  1.0000
  C   C59       1.0  0.32532  0.55762  0.33109  1.0000
  C   C60       1.0  0.35216  0.56950  0.32840  1.0000
  C   C61       1.0  0.44485  0.63496  0.33248  1.0000
  C   C62       1.0  0.43034  0.64765  0.32845  1.0000
  C   C63       1.0  0.44223  0.67449  0.33120  1.0000
  C   C64       1.0  0.46918  0.68974  0.33780  1.0000
  C   C65       1.0  0.48402  0.67753  0.34117  1.0000
  C   C66       1.0  0.47195  0.65048  0.33825  1.0000
  H   H25       1.0  0.31156  0.49627  0.34680  1.0000
  H   H26       1.0  0.35755  0.51658  0.34179  1.0000
  H   H27       1.0  0.31704  0.56895  0.32956  1.0000
  H   H28       1.0  0.36227  0.58911  0.32441  1.0000
  H   H29       1.0  0.41073  0.63755  0.32442  1.0000
  H   H30       1.0  0.43092  0.68278  0.32971  1.0000
  H   H31       1.0  0.48324  0.64221  0.34184  1.0000
  H   H32       1.0  0.50357  0.68821  0.34696  1.0000
  H   H33       1.0  0.48337  0.58685  0.33343  1.0000
  H   H34       1.0  0.50613  0.56386  0.32734  1.0000
  H   H35       1.0  0.43591  0.49365  0.32729  1.0000
  H   H36       1.0  0.41292  0.51641  0.33338  1.0000
  C   C67       1.0  0.43212  0.82453  0.33221  1.0000
  N   N19       1.0  0.44464  0.85062  0.33349  1.0000
  C   C68       1.0  0.43201  0.86420  0.33413  1.0000
  N   N20       1.0  0.40581  0.85062  0.33352  1.0000
  C   C69       1.0  0.39224  0.82453  0.33225  1.0000
  N   N21       1.0  0.40610  0.81238  0.33174  1.0000
  C   C70       1.0  0.44571  0.89160  0.33413  1.0000
  C   C71       1.0  0.47296  0.90571  0.33315  1.0000
  C   C72       1.0  0.48650  0.93271  0.32985  1.0000
  C   C73       1.0  0.47310  0.94637  0.32778  1.0000
  C   C74       1.0  0.44604  0.93271  0.32985  1.0000
  C   C75       1.0  0.43258  0.90571  0.33317  1.0000
  C   C76       1.0  0.44484  0.80986  0.33243  1.0000
  C   C77       1.0  0.47195  0.82145  0.33821  1.0000
  C   C78       1.0  0.48401  0.80646  0.34117  1.0000
  C   C79       1.0  0.46917  0.77942  0.33781  1.0000
  C   C80       1.0  0.44222  0.76772  0.33119  1.0000
  C   C81       1.0  0.43033  0.78267  0.32843  1.0000
  C   C82       1.0  0.36484  0.80986  0.33250  1.0000
  C   C83       1.0  0.35216  0.78267  0.32866  1.0000
  C   C84       1.0  0.32532  0.76772  0.33139  1.0000
  C   C85       1.0  0.31007  0.77942  0.33781  1.0000
  C   C86       1.0  0.32227  0.80647  0.34103  1.0000
  C   C87       1.0  0.34933  0.82146  0.33809  1.0000
  H   H37       1.0  0.50357  0.81533  0.34695  1.0000
  H   H38       1.0  0.48324  0.84100  0.34179  1.0000
  H   H39       1.0  0.43091  0.74811  0.32971  1.0000
  H   H40       1.0  0.41072  0.77316  0.32439  1.0000
  H   H41       1.0  0.36225  0.77315  0.32477  1.0000
  H   H42       1.0  0.31702  0.74811  0.33005  1.0000
  H   H43       1.0  0.35759  0.84100  0.34155  1.0000
  H   H44       1.0  0.31159  0.81535  0.34666  1.0000
  H   H45       1.0  0.41295  0.89651  0.33335  1.0000
  H   H46       1.0  0.43594  0.94226  0.32730  1.0000
  H   H47       1.0  0.50615  0.94226  0.32731  1.0000
  H   H48       1.0  0.48339  0.89651  0.33336  1.0000
  C   C88       1.0  0.82451  0.39227  0.33232  1.0000
  N   N22       1.0  0.85060  0.40586  0.33359  1.0000
  C   C89       1.0  0.86417  0.43206  0.33425  1.0000
  N   N23       1.0  0.85059  0.44468  0.33365  1.0000
  C   C90       1.0  0.82450  0.43215  0.33238  1.0000
  N   N24       1.0  0.81235  0.40614  0.33185  1.0000
  C   C91       1.0  0.89157  0.44576  0.33423  1.0000
  C   C92       1.0  0.90569  0.43263  0.33325  1.0000
  C   C93       1.0  0.93268  0.44609  0.32988  1.0000
  C   C94       1.0  0.94634  0.47316  0.32782  1.0000
  C   C95       1.0  0.93267  0.48655  0.32996  1.0000
  C   C96       1.0  0.90568  0.47301  0.33328  1.0000
  C   C97       1.0  0.80985  0.36488  0.33251  1.0000
  C   C98       1.0  0.82145  0.34937  0.33821  1.0000
  C   C99       1.0  0.80646  0.32232  0.34112  1.0000
  C   C100      1.0  0.77942  0.31010  0.33773  1.0000
  C   C101      1.0  0.76771  0.32535  0.33130  1.0000
  C   C102      1.0  0.78265  0.35219  0.32856  1.0000
  C   C103      1.0  0.80983  0.44487  0.33259  1.0000
  C   C104      1.0  0.78263  0.43035  0.32857  1.0000
  C   C105      1.0  0.76767  0.44222  0.33125  1.0000
  C   C106      1.0  0.77935  0.46917  0.33779  1.0000
  C   C107      1.0  0.80639  0.48403  0.34111  1.0000
  C   C108      1.0  0.82140  0.47198  0.33829  1.0000
  H   H49       1.0  0.81534  0.31164  0.34680  1.0000
  H   H50       1.0  0.84099  0.35763  0.34171  1.0000
  H   H51       1.0  0.74811  0.31705  0.32991  1.0000
  H   H52       1.0  0.77313  0.36229  0.32465  1.0000
  H   H53       1.0  0.77313  0.41074  0.32459  1.0000
  H   H54       1.0  0.74806  0.43090  0.32971  1.0000
  H   H55       1.0  0.84094  0.48327  0.34181  1.0000
  H   H56       1.0  0.81526  0.50359  0.34678  1.0000
  H   H57       1.0  0.89648  0.48344  0.33348  1.0000
  H   H58       1.0  0.94222  0.50621  0.32739  1.0000
  H   H59       1.0  0.94224  0.43600  0.32729  1.0000
  H   H60       1.0  0.89649  0.41300  0.33339  1.0000
  C   C109      1.0  0.60752  0.43214  0.33231  1.0000
  N   N25       1.0  0.59394  0.44466  0.33356  1.0000
  C   C110      1.0  0.56774  0.43204  0.33418  1.0000
  N   N26       1.0  0.55512  0.40584  0.33355  1.0000
  C   C111      1.0  0.56763  0.39226  0.33230  1.0000
  N   N27       1.0  0.59364  0.40613  0.33182  1.0000
  C   C112      1.0  0.55404  0.44575  0.33415  1.0000
  C   C113      1.0  0.56718  0.47299  0.33317  1.0000
  C   C114      1.0  0.55372  0.48653  0.32984  1.0000
  C   C115      1.0  0.52666  0.47313  0.32774  1.0000
  C   C116      1.0  0.51326  0.44607  0.32983  1.0000
  C   C117      1.0  0.52680  0.43262  0.33318  1.0000
  C   C118      1.0  0.63491  0.44487  0.33253  1.0000
  C   C119      1.0  0.65043  0.47197  0.33825  1.0000
  C   C120      1.0  0.67749  0.48403  0.34117  1.0000
  C   C121      1.0  0.68968  0.46918  0.33783  1.0000
  C   C122      1.0  0.67442  0.44223  0.33124  1.0000
  C   C123      1.0  0.64758  0.43035  0.32854  1.0000
  C   C124      1.0  0.55490  0.36487  0.33255  1.0000
  C   C125      1.0  0.56940  0.35218  0.32874  1.0000
  C   C126      1.0  0.55750  0.32534  0.33149  1.0000
  C   C127      1.0  0.53055  0.31009  0.33789  1.0000
  C   C128      1.0  0.51572  0.32231  0.34107  1.0000
  C   C129      1.0  0.52778  0.34936  0.33813  1.0000
  H   H61       1.0  0.68818  0.50359  0.34684  1.0000
  H   H62       1.0  0.64218  0.48327  0.34180  1.0000
  H   H63       1.0  0.68271  0.43091  0.32972  1.0000
  H   H64       1.0  0.63748  0.41074  0.32452  1.0000
  H   H65       1.0  0.58901  0.36227  0.32485  1.0000
  H   H66       1.0  0.56881  0.31704  0.33017  1.0000
  H   H67       1.0  0.51650  0.35762  0.34154  1.0000
  H   H68       1.0  0.49615  0.31163  0.34668  1.0000
  H   H69       1.0  0.51636  0.41298  0.33337  1.0000
  H   H70       1.0  0.49361  0.43597  0.32728  1.0000
  H   H71       1.0  0.56383  0.50619  0.32730  1.0000
  H   H72       1.0  0.58681  0.48342  0.33339  1.0000
  C   C130      1.0  0.56766  0.17538  0.33226  1.0000
  N   N28       1.0  0.55514  0.14928  0.33355  1.0000
  C   C131      1.0  0.56776  0.13570  0.33419  1.0000
  N   N29       1.0  0.59397  0.14928  0.33354  1.0000
  C   C132      1.0  0.60755  0.17537  0.33225  1.0000
  N   N30       1.0  0.59368  0.18752  0.33175  1.0000
  C   C133      1.0  0.55406  0.10830  0.33418  1.0000
  C   C134      1.0  0.52682  0.09419  0.33322  1.0000
  C   C135      1.0  0.51328  0.06719  0.32987  1.0000
  C   C136      1.0  0.52667  0.05353  0.32780  1.0000
  C   C137      1.0  0.55374  0.06719  0.32991  1.0000
  C   C138      1.0  0.56719  0.09419  0.33322  1.0000
  C   C139      1.0  0.55495  0.19005  0.33245  1.0000
  C   C140      1.0  0.52784  0.17847  0.33823  1.0000
  C   C141      1.0  0.51580  0.19348  0.34110  1.0000
  C   C142      1.0  0.53064  0.22052  0.33765  1.0000
  C   C143      1.0  0.55759  0.23220  0.33107  1.0000
  C   C144      1.0  0.56947  0.21724  0.32838  1.0000
  C   C145      1.0  0.63494  0.19003  0.33245  1.0000
  C   C146      1.0  0.64762  0.21723  0.32837  1.0000
  C   C147      1.0  0.67446  0.23218  0.33111  1.0000
  C   C148      1.0  0.68971  0.22049  0.33776  1.0000
  C   C149      1.0  0.67751  0.19345  0.34118  1.0000
  C   C150      1.0  0.65046  0.17845  0.33827  1.0000
  H   H73       1.0  0.49624  0.18462  0.34680  1.0000
  H   H74       1.0  0.51655  0.15893  0.34179  1.0000
  H   H75       1.0  0.56891  0.25181  0.32954  1.0000
  H   H76       1.0  0.58908  0.22675  0.32438  1.0000
  H   H77       1.0  0.63752  0.22674  0.32430  1.0000
  H   H78       1.0  0.68274  0.25179  0.32959  1.0000
  H   H79       1.0  0.64220  0.15891  0.34187  1.0000
  H   H80       1.0  0.68819  0.18458  0.34701  1.0000
  H   H81       1.0  0.58683  0.10339  0.33341  1.0000
  H   H82       1.0  0.56384  0.05764  0.32733  1.0000
  H   H83       1.0  0.49362  0.05764  0.32731  1.0000
  H   H84       1.0  0.51639  0.10339  0.33338  1.0000
  N   N31       1.0  0.01245  0.50622  0.39406  1.0000
  N   N32       1.0  0.98740  0.49369  0.39408  1.0000
  N   N33       1.0  0.49360  0.50617  0.39407  1.0000
  N   N34       1.0  0.50613  0.49365  0.39407  1.0000
  N   N35       1.0  0.49362  0.98742  0.39409  1.0000
  N   N36       1.0  0.50614  0.01247  0.39409  1.0000
  C   C151      1.0  0.28318  0.52010  0.34489  1.0000
  C   C152      1.0  0.27101  0.51833  0.42794  1.0000
  C   C153      1.0  0.24720  0.51828  0.42807  1.0000
  C   C154      1.0  0.23664  0.51995  0.34527  1.0000
  C   C155      1.0  0.23565  0.51804  0.51076  1.0000
  C   C156      1.0  0.24714  0.51759  0.59177  1.0000
  C   C157      1.0  0.27049  0.51763  0.59165  1.0000
  C   C158      1.0  0.28239  0.51813  0.51054  1.0000
  H   H85       1.0  0.21868  0.51809  0.51312  1.0000
  H   H86       1.0  0.23856  0.51738  0.65088  1.0000
  H   H87       1.0  0.27890  0.51745  0.65069  1.0000
  H   H88       1.0  0.29945  0.51825  0.51277  1.0000
  C   C159      1.0  0.47976  0.76315  0.34519  1.0000
  C   C160      1.0  0.48153  0.75265  0.42802  1.0000
  C   C161      1.0  0.48153  0.72886  0.42801  1.0000
  C   C162      1.0  0.47977  0.71660  0.34519  1.0000
  C   C163      1.0  0.48178  0.71753  0.51066  1.0000
  C   C164      1.0  0.48229  0.72946  0.59173  1.0000
  C   C165      1.0  0.48228  0.75279  0.59173  1.0000
  C   C166      1.0  0.48177  0.76422  0.51067  1.0000
  H   H89       1.0  0.48170  0.70049  0.51296  1.0000
  H   H90       1.0  0.48250  0.72108  0.65080  1.0000
  H   H91       1.0  0.48249  0.76138  0.65080  1.0000
  H   H92       1.0  0.48168  0.78117  0.51298  1.0000
  C   C167      1.0  0.23674  0.71660  0.34517  1.0000
  C   C168      1.0  0.24723  0.72886  0.42803  1.0000
  C   C169      1.0  0.27100  0.75267  0.42806  1.0000
  C   C170      1.0  0.28319  0.76316  0.34515  1.0000
  C   C171      1.0  0.28232  0.76427  0.51069  1.0000
  C   C172      1.0  0.27040  0.75282  0.59175  1.0000
  C   C173      1.0  0.24710  0.72946  0.59174  1.0000
  C   C174      1.0  0.23568  0.71752  0.51067  1.0000
  H   H93       1.0  0.29934  0.78124  0.51298  1.0000
  H   H94       1.0  0.27878  0.76141  0.65082  1.0000
  H   H95       1.0  0.23852  0.72106  0.65081  1.0000
  H   H96       1.0  0.21874  0.70046  0.51298  1.0000
  C   C175      1.0  0.71654  0.47974  0.34495  1.0000
  C   C176      1.0  0.72880  0.48149  0.42781  1.0000
  C   C177      1.0  0.75259  0.48149  0.42779  1.0000
  C   C178      1.0  0.76304  0.47973  0.34482  1.0000
  C   C179      1.0  0.76416  0.48173  0.51043  1.0000
  C   C180      1.0  0.75274  0.48223  0.59151  1.0000
  C   C181      1.0  0.72941  0.48223  0.59154  1.0000
  C   C182      1.0  0.71747  0.48172  0.51049  1.0000
  H   H97       1.0  0.78112  0.48165  0.51273  1.0000
  H   H98       1.0  0.76134  0.48244  0.65057  1.0000
  H   H99       1.0  0.72103  0.48243  0.65062  1.0000
  H   H100      1.0  0.70044  0.48164  0.51284  1.0000
  C   C183      1.0  0.52007  0.23682  0.34488  1.0000
  C   C184      1.0  0.51829  0.24721  0.42793  1.0000
  C   C185      1.0  0.51824  0.27098  0.42807  1.0000
  C   C186      1.0  0.51992  0.28322  0.34528  1.0000
  C   C187      1.0  0.51801  0.28229  0.51076  1.0000
  C   C188      1.0  0.51756  0.27035  0.59177  1.0000
  C   C189      1.0  0.51760  0.24705  0.59165  1.0000
  C   C190      1.0  0.51810  0.23564  0.51052  1.0000
  H   H101      1.0  0.51805  0.29931  0.51314  1.0000
  H   H102      1.0  0.51734  0.27871  0.65088  1.0000
  H   H103      1.0  0.51742  0.23845  0.65068  1.0000
  H   H104      1.0  0.51821  0.21870  0.51275  1.0000
  C   C191      1.0  0.76316  0.28323  0.34523  1.0000
  C   C192      1.0  0.75265  0.27100  0.42806  1.0000
  C   C193      1.0  0.72884  0.24724  0.42803  1.0000
  C   C194      1.0  0.71657  0.23676  0.34517  1.0000
  C   C195      1.0  0.71749  0.23568  0.51066  1.0000
  C   C196      1.0  0.72942  0.24710  0.59174  1.0000
  C   C197      1.0  0.75277  0.27041  0.59176  1.0000
  C   C198      1.0  0.76423  0.28233  0.51070  1.0000
  H   H105      1.0  0.70043  0.21874  0.51296  1.0000
  H   H106      1.0  0.72103  0.23851  0.65080  1.0000
  H   H107      1.0  0.76137  0.27878  0.65084  1.0000
  H   H108      1.0  0.78120  0.29935  0.51301  1.0000
