data_image0
_chemical_formula_structural       C8H5CN2HNC8H5CN2HNC3H2CHC3H2CHC3H2CHC10H6CNCN2C10H6CNCN2C3H2CHC3H2CHC3H2CH
_chemical_formula_sum              "C66 H42 N12"
_cell_length_a       37.0841
_cell_length_b       37.0841
_cell_length_c       14.7463
_cell_angle_alpha    90
_cell_angle_beta     90
_cell_angle_gamma    120

_space_group_name_H-M_alt    "P 1"
_space_group_IT_number       1

loop_
  _space_group_symop_operation_xyz
  'x, y, z'

loop_
  _atom_site_type_symbol
  _atom_site_label
  _atom_site_symmetry_multiplicity
  _atom_site_fract_x
  _atom_site_fract_y
  _atom_site_fract_z
  _atom_site_occupancy
  C   C1        1.0  0.38831  0.62982  0.34978  1.0000
  C   C2        1.0  0.43541  0.78494  0.33638  1.0000
  C   C3        1.0  0.45806  0.82879  0.33466  1.0000
  C   C4        1.0  0.19112  0.56828  0.36076  1.0000
  C   C5        1.0  0.23495  0.58945  0.36168  1.0000
  C   C6        1.0  0.36673  0.58609  0.33644  1.0000
  C   C7        1.0  0.38793  0.56344  0.33472  1.0000
  C   C8        1.0  0.43138  0.58351  0.34786  1.0000
  H   H1        1.0  0.48956  0.84361  0.32409  1.0000
  H   H2        1.0  0.24928  0.57226  0.37131  1.0000
  H   H3        1.0  0.17530  0.53663  0.36830  1.0000
  H   H4        1.0  0.33520  0.57011  0.32652  1.0000
  H   H5        1.0  0.37125  0.53194  0.32417  1.0000
  C   C9        1.0  0.36691  0.65293  0.35031  1.0000
  N   N1        1.0  0.32459  0.63358  0.35027  1.0000
  N   N2        1.0  0.38792  0.69531  0.35026  1.0000
  H   H6        1.0  0.45139  0.76939  0.32647  1.0000
  N   N3        1.0  0.44955  0.56027  0.34375  1.0000
  C   C10       1.0  0.63749  0.38738  0.35171  1.0000
  C   C11       1.0  0.59040  0.23226  0.36510  1.0000
  C   C12       1.0  0.56775  0.18842  0.36684  1.0000
  C   C13       1.0  0.83468  0.44893  0.34074  1.0000
  C   C14       1.0  0.79085  0.42776  0.33981  1.0000
  C   C15       1.0  0.65907  0.43111  0.36509  1.0000
  C   C16       1.0  0.63787  0.45375  0.36682  1.0000
  C   C17       1.0  0.59442  0.43369  0.35365  1.0000
  H   H7        1.0  0.53625  0.17359  0.37741  1.0000
  H   H8        1.0  0.77652  0.44494  0.33018  1.0000
  H   H9        1.0  0.85051  0.48058  0.33321  1.0000
  H   H10       1.0  0.69060  0.44709  0.37503  1.0000
  H   H11       1.0  0.65454  0.48525  0.37738  1.0000
  C   C18       1.0  0.65889  0.36428  0.35118  1.0000
  N   N4        1.0  0.70122  0.38362  0.35123  1.0000
  N   N5        1.0  0.63788  0.32189  0.35122  1.0000
  H   H12       1.0  0.57441  0.24781  0.37500  1.0000
  N   N6        1.0  0.57624  0.45692  0.35778  1.0000
  C   C19       1.0  0.52815  0.48016  0.33829  1.0000
  C   C20       1.0  0.49927  0.48113  0.27694  1.0000
  C   C21       1.0  0.48437  0.50908  0.28895  1.0000
  H   H13       1.0  0.48884  0.46149  0.22222  1.0000
  H   H14       1.0  0.46391  0.50901  0.24223  1.0000
  C   C22       1.0  0.54153  0.45145  0.32590  1.0000
  H   H15       1.0  0.52387  0.42615  0.28902  1.0000
  C   C23       1.0  0.54134  0.05229  0.33834  1.0000
  C   C24       1.0  0.54037  0.02244  0.27696  1.0000
  C   C25       1.0  0.51241  0.97959  0.28894  1.0000
  H   H16       1.0  0.56002  0.03166  0.22225  1.0000
  H   H17       1.0  0.51250  0.95921  0.24223  1.0000
  C   C26       1.0  0.57007  0.09438  0.32598  1.0000
  H   H18       1.0  0.59538  0.10201  0.28915  1.0000
  C   C27       1.0  0.96922  0.49336  0.33835  1.0000
  C   C28       1.0  0.99906  0.52226  0.27701  1.0000
  C   C29       1.0  0.04191  0.53714  0.28897  1.0000
  H   H19       1.0  0.98984  0.53269  0.22231  1.0000
  H   H20       1.0  0.06229  0.55761  0.24227  1.0000
  C   C30       1.0  0.92713  0.48000  0.32601  1.0000
  H   H21       1.0  0.91949  0.49768  0.28920  1.0000
  C   C31       1.0  0.25872  0.63320  0.34976  1.0000
  C   C32       1.0  0.39168  0.76279  0.34976  1.0000
  C   C33       1.0  0.43799  0.85217  0.34780  1.0000
  C   C34       1.0  0.39436  0.83038  0.36075  1.0000
  C   C35       1.0  0.37170  0.78656  0.36168  1.0000
  C   C36       1.0  0.23656  0.65477  0.33637  1.0000
  C   C37       1.0  0.19272  0.63357  0.33465  1.0000
  C   C38       1.0  0.16934  0.59012  0.34775  1.0000
  C   C39       1.0  0.45322  0.62714  0.36075  1.0000
  C   C40       1.0  0.43206  0.64981  0.36168  1.0000
  H   H22       1.0  0.37855  0.84621  0.36832  1.0000
  H   H23       1.0  0.34019  0.77223  0.37131  1.0000
  H   H24       1.0  0.25211  0.68630  0.32649  1.0000
  H   H25       1.0  0.17789  0.65024  0.32409  1.0000
  H   H26       1.0  0.48487  0.64296  0.36832  1.0000
  H   H27       1.0  0.44925  0.68132  0.37127  1.0000
  C   C41       1.0  0.30322  0.65460  0.35030  1.0000
  N   N7        1.0  0.32620  0.69692  0.35026  1.0000
  C   C42       1.0  0.36858  0.71829  0.35030  1.0000
  N   N8        1.0  0.12793  0.57194  0.34369  1.0000
  N   N9        1.0  0.46122  0.89358  0.34369  1.0000
  C   C43       1.0  0.76709  0.38401  0.35174  1.0000
  C   C44       1.0  0.63413  0.25442  0.35172  1.0000
  C   C45       1.0  0.58782  0.16503  0.35374  1.0000
  C   C46       1.0  0.63145  0.18682  0.34073  1.0000
  C   C47       1.0  0.65411  0.23065  0.33981  1.0000
  C   C48       1.0  0.78924  0.36244  0.36513  1.0000
  C   C49       1.0  0.83309  0.38364  0.36684  1.0000
  C   C50       1.0  0.85647  0.42709  0.35376  1.0000
  C   C51       1.0  0.57258  0.39006  0.34072  1.0000
  C   C52       1.0  0.59374  0.36739  0.33979  1.0000
  H   H28       1.0  0.64727  0.17100  0.33321  1.0000
  H   H29       1.0  0.68562  0.24498  0.33019  1.0000
  H   H30       1.0  0.77369  0.33090  0.37500  1.0000
  H   H31       1.0  0.84792  0.36697  0.37742  1.0000
  H   H32       1.0  0.54093  0.37424  0.33315  1.0000
  H   H33       1.0  0.57656  0.33588  0.33018  1.0000
  C   C53       1.0  0.72259  0.36261  0.35119  1.0000
  N   N10       1.0  0.69961  0.32029  0.35123  1.0000
  C   C54       1.0  0.65723  0.29892  0.35119  1.0000
  N   N11       1.0  0.89788  0.44527  0.35784  1.0000
  N   N12       1.0  0.56459  0.12362  0.35782  1.0000
  C   C55       1.0  0.52653  0.53606  0.42454  1.0000
  C   C56       1.0  0.54142  0.50811  0.41254  1.0000
  C   C57       1.0  0.49763  0.53702  0.36320  1.0000
  H   H34       1.0  0.56190  0.50819  0.45924  1.0000
  H   H35       1.0  0.53696  0.55571  0.47925  1.0000
  C   C58       1.0  0.48428  0.56575  0.37556  1.0000
  H   H36       1.0  0.50196  0.59106  0.41237  1.0000
  C   C59       1.0  0.48544  0.99476  0.42456  1.0000
  C   C60       1.0  0.51340  0.03761  0.41257  1.0000
  C   C61       1.0  0.48447  0.96492  0.36320  1.0000
  H   H37       1.0  0.51332  0.05799  0.45931  1.0000
  H   H38       1.0  0.46580  0.98555  0.47929  1.0000
  C   C62       1.0  0.45575  0.92283  0.37557  1.0000
  H   H39       1.0  0.43045  0.91519  0.41243  1.0000
  C   C63       1.0  0.02674  0.49496  0.42452  1.0000
  C   C64       1.0  0.98390  0.48007  0.41255  1.0000
  C   C65       1.0  0.05659  0.52385  0.36318  1.0000
  H   H40       1.0  0.96351  0.45960  0.45926  1.0000
  H   H41       1.0  0.03596  0.48452  0.47922  1.0000
  C   C66       1.0  0.09868  0.53722  0.37554  1.0000
  H   H42       1.0  0.10632  0.51953  0.41230  1.0000
