data_image0
_chemical_formula_structural       C13H9C13H9C13H9C13H9C4HC2H3OC4HC2H3OC4HC2H3ON6C17H12C17H12C17H12C17H12N6C4HC2H3OC4HC2H3OC4HC2H3O
_chemical_formula_sum              "C156 H108 O6 N12"
_cell_length_a       56.9561
_cell_length_b       56.9394
_cell_length_c       14.9825
_cell_angle_alpha    90
_cell_angle_beta     90
_cell_angle_gamma    120.005

_space_group_name_H-M_alt    "P 1"
_space_group_IT_number       1

loop_
  _space_group_symop_operation_xyz
  'x, y, z'

loop_
  _atom_site_type_symbol
  _atom_site_label
  _atom_site_symmetry_multiplicity
  _atom_site_fract_x
  _atom_site_fract_y
  _atom_site_fract_z
  _atom_site_occupancy
  C   C1        1.0  0.90958  0.83707  0.31768  1.0000
  C   C2        1.0  0.93422  0.89466  0.32853  1.0000
  C   C3        1.0  0.90580  0.87788  0.33604  1.0000
  C   C4        1.0  0.89368  0.84945  0.33177  1.0000
  C   C5        1.0  0.94582  0.92268  0.32857  1.0000
  C   C6        1.0  0.06588  0.02358  0.32916  1.0000
  C   C7        1.0  0.11067  0.02839  0.33690  1.0000
  C   C8        1.0  0.15147  0.07297  0.31822  1.0000
  C   C9        1.0  0.13910  0.04470  0.33265  1.0000
  C   C10       1.0  0.96507  0.04286  0.32861  1.0000
  C   C11       1.0  0.92034  0.03843  0.31408  1.0000
  C   C12       1.0  0.91559  0.07895  0.31719  1.0000
  C   C13       1.0  0.90408  0.05053  0.30909  1.0000
  H   H1        1.0  0.87302  0.83788  0.33632  1.0000
  H   H2        1.0  0.89365  0.88622  0.34431  1.0000
  H   H3        1.0  0.91138  0.01786  0.30610  1.0000
  H   H4        1.0  0.10234  0.00789  0.34535  1.0000
  H   H5        1.0  0.15066  0.03560  0.33724  1.0000
  H   H6        1.0  0.88366  0.03833  0.29956  1.0000
  H   H7        1.0  0.05798  0.00813  0.28643  1.0000
  H   H8        1.0  0.93831  0.93060  0.28572  1.0000
  H   H9        1.0  0.98061  0.05049  0.28623  1.0000
  C   C14       1.0  0.52262  0.36534  0.32162  1.0000
  C   C15       1.0  0.47985  0.30982  0.31646  1.0000
  C   C16       1.0  0.50511  0.31788  0.27568  1.0000
  C   C17       1.0  0.52602  0.34508  0.27829  1.0000
  C   C18       1.0  0.46050  0.28242  0.31828  1.0000
  C   C19       1.0  0.35199  0.17965  0.33352  1.0000
  C   C20       1.0  0.30930  0.17706  0.29817  1.0000
  C   C21       1.0  0.26579  0.13515  0.32184  1.0000
  C   C22       1.0  0.28084  0.16245  0.29287  1.0000
  C   C23       1.0  0.45847  0.17215  0.35705  1.0000
  C   C24       1.0  0.50641  0.18803  0.34292  1.0000
  C   C25       1.0  0.52356  0.15616  0.34705  1.0000
  C   C26       1.0  0.52804  0.18286  0.33894  1.0000
  H   H10       1.0  0.54427  0.34962  0.25084  1.0000
  H   H11       1.0  0.50890  0.30385  0.24635  1.0000
  H   H12       1.0  0.51049  0.20764  0.33658  1.0000
  H   H13       1.0  0.31937  0.19673  0.27616  1.0000
  H   H14       1.0  0.27123  0.17220  0.26841  1.0000
  H   H15       1.0  0.54725  0.19898  0.33110  1.0000
  H   H16       1.0  0.36107  0.19116  0.28033  1.0000
  H   H17       1.0  0.45731  0.27198  0.26185  1.0000
  H   H18       1.0  0.44607  0.16631  0.30467  1.0000
  C   C27       1.0  0.62309  0.15766  0.32155  1.0000
  C   C28       1.0  0.67863  0.17049  0.31658  1.0000
  C   C29       1.0  0.67052  0.18763  0.27557  1.0000
  C   C30       1.0  0.64332  0.18132  0.27814  1.0000
  C   C31       1.0  0.70603  0.17861  0.31856  1.0000
  C   C32       1.0  0.80877  0.17265  0.33378  1.0000
  C   C33       1.0  0.81144  0.13264  0.29754  1.0000
  C   C34       1.0  0.85327  0.13095  0.32174  1.0000
  C   C35       1.0  0.82606  0.11879  0.29212  1.0000
  C   C36       1.0  0.81647  0.28666  0.35729  1.0000
  C   C37       1.0  0.80061  0.31873  0.34249  1.0000
  C   C38       1.0  0.83245  0.36776  0.34710  1.0000
  C   C39       1.0  0.80578  0.34554  0.33846  1.0000
  H   H19       1.0  0.63877  0.19501  0.25061  1.0000
  H   H20       1.0  0.68454  0.20546  0.24627  1.0000
  H   H21       1.0  0.78102  0.30321  0.33577  1.0000
  H   H22       1.0  0.79183  0.12311  0.27500  1.0000
  H   H23       1.0  0.81637  0.09950  0.26700  1.0000
  H   H24       1.0  0.78968  0.34864  0.33020  1.0000
  H   H25       1.0  0.79734  0.17032  0.28045  1.0000
  H   H26       1.0  0.71651  0.18589  0.26220  1.0000
  H   H27       1.0  0.82222  0.28006  0.30478  1.0000
  C   C40       1.0  0.83082  0.46574  0.32121  1.0000
  C   C41       1.0  0.81780  0.50832  0.31614  1.0000
  C   C42       1.0  0.80077  0.48307  0.27499  1.0000
  C   C43       1.0  0.80718  0.46225  0.27756  1.0000
  C   C44       1.0  0.80955  0.52752  0.31812  1.0000
  C   C45       1.0  0.81584  0.63650  0.33376  1.0000
  C   C46       1.0  0.85592  0.67921  0.29840  1.0000
  C   C47       1.0  0.85750  0.72272  0.32183  1.0000
  C   C48       1.0  0.86975  0.70768  0.29299  1.0000
  C   C49       1.0  0.70175  0.53004  0.35689  1.0000
  C   C50       1.0  0.66969  0.48208  0.34276  1.0000
  C   C51       1.0  0.62067  0.46491  0.34706  1.0000
  C   C52       1.0  0.64289  0.46044  0.33883  1.0000
  H   H28       1.0  0.79355  0.44400  0.24994  1.0000
  H   H29       1.0  0.78294  0.47920  0.24556  1.0000
  H   H30       1.0  0.68520  0.47801  0.33635  1.0000
  H   H31       1.0  0.86553  0.66915  0.27645  1.0000
  H   H32       1.0  0.88912  0.71730  0.26853  1.0000
  H   H33       1.0  0.63979  0.44122  0.33097  1.0000
  H   H34       1.0  0.81824  0.62741  0.28051  1.0000
  H   H35       1.0  0.80208  0.53053  0.26184  1.0000
  H   H36       1.0  0.70832  0.54240  0.30441  1.0000
  C   C53       1.0  0.23695  0.12012  0.31493  1.0000
  C   C54       1.0  0.22256  0.12318  0.24330  1.0000
  C   C55       1.0  0.19391  0.10777  0.24013  1.0000
  C   C56       1.0  0.18014  0.08929  0.31091  1.0000
  H   H37       1.0  0.23295  0.13599  0.19166  1.0000
  C   C57       1.0  0.18011  0.10952  0.16611  1.0000
  C   C58       1.0  0.17790  0.09323  0.08878  1.0000
  H   H38       1.0  0.19748  0.10141  0.05522  1.0000
  H   H39       1.0  0.16322  0.09310  0.04158  1.0000
  H   H40       1.0  0.17092  0.07225  0.10810  1.0000
  O   O1        1.0  0.18335  0.13207  0.15078  1.0000
  C   C59       1.0  0.86832  0.11718  0.31463  1.0000
  C   C60       1.0  0.86549  0.10000  0.24235  1.0000
  C   C61       1.0  0.88093  0.08679  0.23897  1.0000
  C   C62       1.0  0.89923  0.09127  0.31009  1.0000
  H   H41       1.0  0.85282  0.09776  0.19047  1.0000
  C   C63       1.0  0.87946  0.07161  0.16436  1.0000
  C   C64       1.0  0.89538  0.08565  0.08647  1.0000
  H   H42       1.0  0.88675  0.09662  0.05281  1.0000
  H   H43       1.0  0.89578  0.07115  0.03962  1.0000
  H   H44       1.0  0.91630  0.10005  0.10526  1.0000
  O   O2        1.0  0.85704  0.05199  0.14951  1.0000
  C   C65       1.0  0.87127  0.75156  0.31476  1.0000
  C   C66       1.0  0.88873  0.76594  0.24310  1.0000
  C   C67       1.0  0.90195  0.79459  0.23982  1.0000
  C   C68       1.0  0.89723  0.80838  0.31047  1.0000
  H   H45       1.0  0.89118  0.75553  0.19160  1.0000
  C   C69       1.0  0.91753  0.80836  0.16595  1.0000
  C   C70       1.0  0.90366  0.81072  0.08821  1.0000
  H   H46       1.0  0.89234  0.79120  0.05422  1.0000
  H   H47       1.0  0.91830  0.82552  0.04147  1.0000
  H   H48       1.0  0.88958  0.81762  0.10730  1.0000
  O   O3        1.0  0.93677  0.80509  0.14969  1.0000
  N   N1        1.0  0.56451  0.16509  0.27723  1.0000
  N   N2        1.0  0.58755  0.16557  0.27077  1.0000
  N   N3        1.0  0.82363  0.39980  0.27691  1.0000
  N   N4        1.0  0.82312  0.42236  0.27034  1.0000
  N   N5        1.0  0.58866  0.42393  0.27733  1.0000
  N   N6        1.0  0.56609  0.40087  0.27087  1.0000
  C   C71       1.0  0.93804  0.85390  0.31113  1.0000
  C   C72       1.0  0.95019  0.88229  0.31600  1.0000
  C   C73       1.0  0.96638  0.93932  0.38248  1.0000
  C   C74       1.0  0.97888  0.96749  0.38045  1.0000
  C   C75       1.0  0.96376  0.98104  0.38094  1.0000
  C   C76       1.0  0.97668  0.00968  0.38032  1.0000
  C   C77       1.0  0.00536  0.02481  0.38117  1.0000
  C   C78       1.0  0.02106  0.01188  0.38069  1.0000
  C   C79       1.0  0.00751  0.98320  0.38130  1.0000
  C   C80       1.0  0.04922  0.02755  0.38284  1.0000
  C   C81       1.0  0.09389  0.04002  0.32920  1.0000
  C   C82       1.0  0.10625  0.06835  0.31636  1.0000
  C   C83       1.0  0.13463  0.08459  0.31145  1.0000
  C   C84       1.0  0.96101  0.02217  0.38214  1.0000
  C   C85       1.0  0.94860  0.05439  0.32834  1.0000
  C   C86       1.0  0.96013  0.08277  0.33734  1.0000
  C   C87       1.0  0.94378  0.09484  0.33296  1.0000
  H   H49       1.0  0.95023  0.84563  0.30274  1.0000
  H   H50       1.0  0.97079  0.89384  0.30907  1.0000
  H   H51       1.0  0.01868  0.97360  0.38278  1.0000
  H   H52       1.0  0.94299  0.96986  0.38214  1.0000
  H   H53       1.0  0.01496  0.04558  0.38254  1.0000
  H   H54       1.0  0.14289  0.10505  0.30284  1.0000
  H   H55       1.0  0.09470  0.07739  0.30927  1.0000
  H   H56       1.0  0.95281  0.11547  0.33867  1.0000
  H   H57       1.0  0.98057  0.09492  0.34691  1.0000
  H   H58       1.0  0.05730  0.04324  0.42470  1.0000
  H   H59       1.0  0.97394  0.93122  0.42446  1.0000
  H   H60       1.0  0.94522  0.01449  0.42359  1.0000
  C   C88       1.0  0.49684  0.35717  0.35960  1.0000
  C   C89       1.0  0.47580  0.32990  0.35719  1.0000
  C   C90       1.0  0.45010  0.26877  0.39481  1.0000
  C   C91       1.0  0.43703  0.24075  0.39812  1.0000
  C   C92       1.0  0.45268  0.22794  0.40647  1.0000
  C   C93       1.0  0.44026  0.19941  0.41164  1.0000
  C   C94       1.0  0.41166  0.18363  0.40965  1.0000
  C   C95       1.0  0.39561  0.19610  0.40153  1.0000
  C   C96       1.0  0.40850  0.22474  0.39639  1.0000
  C   C97       1.0  0.36757  0.18037  0.40214  1.0000
  C   C98       1.0  0.32378  0.16494  0.33301  1.0000
  C   C99       1.0  0.30884  0.13772  0.36261  1.0000
  C   C100      1.0  0.28032  0.12320  0.35798  1.0000
  C   C101      1.0  0.45673  0.18805  0.41999  1.0000
  C   C102      1.0  0.47955  0.16661  0.35548  1.0000
  C   C103      1.0  0.47480  0.13982  0.36185  1.0000
  C   C104      1.0  0.49658  0.13470  0.35821  1.0000
  H   H61       1.0  0.49300  0.37097  0.39001  1.0000
  H   H62       1.0  0.45767  0.32474  0.38688  1.0000
  H   H63       1.0  0.39706  0.23400  0.39192  1.0000
  H   H64       1.0  0.47344  0.23958  0.40830  1.0000
  H   H65       1.0  0.40250  0.16293  0.41437  1.0000
  H   H66       1.0  0.27031  0.10342  0.37870  1.0000
  H   H67       1.0  0.31861  0.12805  0.38653  1.0000
  H   H68       1.0  0.49249  0.11507  0.36205  1.0000
  H   H69       1.0  0.45548  0.12388  0.36943  1.0000
  H   H70       1.0  0.35895  0.16928  0.45634  1.0000
  H   H71       1.0  0.45521  0.27859  0.45281  1.0000
  H   H72       1.0  0.47042  0.19517  0.46890  1.0000
  C   C105      1.0  0.63129  0.14009  0.35972  1.0000
  C   C106      1.0  0.65856  0.14637  0.35744  1.0000
  C   C107      1.0  0.71966  0.18169  0.39500  1.0000
  C   C108      1.0  0.74767  0.19661  0.39840  1.0000
  C   C109      1.0  0.76051  0.22507  0.40663  1.0000
  C   C110      1.0  0.78903  0.24116  0.41180  1.0000
  C   C111      1.0  0.80478  0.22830  0.40991  1.0000
  C   C112      1.0  0.79228  0.19977  0.40193  1.0000
  C   C113      1.0  0.76365  0.18405  0.39675  1.0000
  C   C114      1.0  0.80797  0.18742  0.40257  1.0000
  C   C115      1.0  0.82348  0.15915  0.33317  1.0000
  C   C116      1.0  0.85061  0.17133  0.36348  1.0000
  C   C117      1.0  0.86514  0.15734  0.35866  1.0000
  C   C118      1.0  0.80042  0.26900  0.41995  1.0000
  C   C119      1.0  0.82200  0.31329  0.35562  1.0000
  C   C120      1.0  0.84876  0.33532  0.36254  1.0000
  C   C121      1.0  0.85388  0.36223  0.35884  1.0000
  H   H73       1.0  0.61751  0.12246  0.39020  1.0000
  H   H74       1.0  0.66374  0.13341  0.38724  1.0000
  H   H75       1.0  0.75437  0.16334  0.39234  1.0000
  H   H76       1.0  0.74890  0.23423  0.40837  1.0000
  H   H77       1.0  0.82547  0.23982  0.41461  1.0000
  H   H78       1.0  0.88486  0.16704  0.37995  1.0000
  H   H79       1.0  0.86022  0.19071  0.38798  1.0000
  H   H80       1.0  0.87350  0.37778  0.36303  1.0000
  H   H81       1.0  0.86469  0.33195  0.37054  1.0000
  H   H82       1.0  0.81898  0.18980  0.45690  1.0000
  H   H83       1.0  0.70983  0.17688  0.45299  1.0000
  H   H84       1.0  0.79338  0.27565  0.46892  1.0000
  C   C122      1.0  0.84828  0.49151  0.35956  1.0000
  C   C123      1.0  0.84192  0.51245  0.35719  1.0000
  C   C124      1.0  0.80662  0.53825  0.39438  1.0000
  C   C125      1.0  0.79175  0.55138  0.39793  1.0000
  C   C126      1.0  0.76329  0.53577  0.40620  1.0000
  C   C127      1.0  0.74722  0.54823  0.41153  1.0000
  C   C128      1.0  0.76009  0.57684  0.40971  1.0000
  C   C129      1.0  0.78861  0.59285  0.40167  1.0000
  C   C130      1.0  0.80431  0.57993  0.39641  1.0000
  C   C131      1.0  0.80097  0.62091  0.40235  1.0000
  C   C132      1.0  0.82932  0.66471  0.33321  1.0000
  C   C133      1.0  0.81703  0.67964  0.36271  1.0000
  C   C134      1.0  0.83101  0.70817  0.35800  1.0000
  C   C135      1.0  0.71939  0.53178  0.41980  1.0000
  C   C136      1.0  0.67513  0.50894  0.35536  1.0000
  C   C137      1.0  0.65310  0.51369  0.36184  1.0000
  C   C138      1.0  0.62619  0.49189  0.35826  1.0000
  H   H85       1.0  0.86589  0.49539  0.39026  1.0000
  H   H86       1.0  0.85479  0.53058  0.38719  1.0000
  H   H87       1.0  0.82502  0.59135  0.39196  1.0000
  H   H88       1.0  0.75412  0.51500  0.40789  1.0000
  H   H89       1.0  0.74858  0.58603  0.41450  1.0000
  H   H90       1.0  0.82123  0.71818  0.37858  1.0000
  H   H91       1.0  0.79759  0.66986  0.38660  1.0000
  H   H92       1.0  0.61065  0.49597  0.36214  1.0000
  H   H93       1.0  0.65647  0.53300  0.36944  1.0000
  H   H94       1.0  0.79850  0.62953  0.45656  1.0000
  H   H95       1.0  0.81179  0.53357  0.45235  1.0000
  H   H96       1.0  0.71279  0.51812  0.46886  1.0000
  N   N7        1.0  0.19550  0.08715  0.37639  1.0000
  N   N8        1.0  0.22197  0.10148  0.37823  1.0000
  N   N9        1.0  0.90116  0.10852  0.37620  1.0000
  N   N10       1.0  0.88679  0.12063  0.37829  1.0000
  N   N11       1.0  0.87972  0.79304  0.37597  1.0000
  N   N12       1.0  0.86759  0.76656  0.37793  1.0000
  C   C139      1.0  0.59601  0.15303  0.32898  1.0000
  C   C140      1.0  0.57779  0.13828  0.39879  1.0000
  C   C141      1.0  0.55258  0.13749  0.40688  1.0000
  C   C142      1.0  0.54613  0.15187  0.34301  1.0000
  H   H97       1.0  0.58348  0.12950  0.44737  1.0000
  C   C143      1.0  0.53596  0.12491  0.48004  1.0000
  C   C144      1.0  0.54269  0.13970  0.56364  1.0000
  H   H98       1.0  0.56072  0.14076  0.59334  1.0000
  H   H99       1.0  0.52586  0.12957  0.61056  1.0000
  H   H100      1.0  0.54644  0.16029  0.55342  1.0000
  O   O4        1.0  0.52721  0.10047  0.48558  1.0000
  C   C145      1.0  0.83554  0.44334  0.32869  1.0000
  C   C146      1.0  0.85011  0.43982  0.39898  1.0000
  C   C147      1.0  0.85098  0.41544  0.40706  1.0000
  C   C148      1.0  0.83676  0.39464  0.34295  1.0000
  H   H101      1.0  0.85882  0.45428  0.44761  1.0000
  C   C149      1.0  0.86340  0.41137  0.48051  1.0000
  C   C150      1.0  0.84907  0.40377  0.56488  1.0000
  H   H102      1.0  0.84857  0.42103  0.59464  1.0000
  H   H103      1.0  0.85913  0.39683  0.61122  1.0000
  H   H104      1.0  0.82828  0.38721  0.55567  1.0000
  O   O5        1.0  0.88793  0.42675  0.48502  1.0000
  C   C151      1.0  0.54508  0.39242  0.32904  1.0000
  C   C152      1.0  0.54856  0.41065  0.39886  1.0000
  C   C153      1.0  0.57297  0.43587  0.40689  1.0000
  C   C154      1.0  0.59381  0.44232  0.34305  1.0000
  H   H105      1.0  0.53407  0.40498  0.44733  1.0000
  C   C155      1.0  0.57699  0.45248  0.47991  1.0000
  C   C156      1.0  0.58503  0.44592  0.56390  1.0000
  H   H106      1.0  0.56804  0.42799  0.59399  1.0000
  H   H107      1.0  0.59186  0.46288  0.61041  1.0000
  H   H108      1.0  0.60180  0.44204  0.55394  1.0000
  O   O6        1.0  0.56131  0.46122  0.48635  1.0000
