data_image0
_chemical_formula_structural       C4HC4H2NO2C4HC4H2NO2C4HC4H2NO2C4H4C4H4C4H4C6H3C6H3C6H3C6H3C4H4C4H4C4H4C4HC4H2NO2C4HC4H2NO2C4HC4H2NO2
_chemical_formula_sum              "C96 H54 N6 O12"
_cell_length_a       34.3163
_cell_length_b       34.3267
_cell_length_c       14.7782
_cell_angle_alpha    90
_cell_angle_beta     90
_cell_angle_gamma    119.993

_space_group_name_H-M_alt    "P 1"
_space_group_IT_number       1

loop_
  _space_group_symop_operation_xyz
  'x, y, z'

loop_
  _atom_site_type_symbol
  _atom_site_label
  _atom_site_symmetry_multiplicity
  _atom_site_fract_x
  _atom_site_fract_y
  _atom_site_fract_z
  _atom_site_occupancy
  C   C1        1.0  0.34573  0.17615  0.34865  1.0000
  C   C2        1.0  0.24942  0.12807  0.34293  1.0000
  C   C3        1.0  0.27483  0.14751  0.26280  1.0000
  C   C4        1.0  0.32256  0.17161  0.26688  1.0000
  H   H1        1.0  0.34053  0.18544  0.20884  1.0000
  C   C5        1.0  0.20123  0.10358  0.34328  1.0000
  C   C6        1.0  0.10439  0.05439  0.34456  1.0000
  C   C7        1.0  0.12929  0.04161  0.28753  1.0000
  C   C8        1.0  0.17671  0.06568  0.28687  1.0000
  H   H2        1.0  0.11306  0.01487  0.24447  1.0000
  H   H3        1.0  0.19326  0.05498  0.24512  1.0000
  N   N1        1.0  0.25226  0.14343  0.18005  1.0000
  O   O1        1.0  0.26203  0.12312  0.12152  1.0000
  O   O2        1.0  0.26155  0.18118  0.14898  1.0000
  C   C9        1.0  0.83754  0.17332  0.34858  1.0000
  C   C10       1.0  0.88550  0.12498  0.34284  1.0000
  C   C11       1.0  0.86608  0.13099  0.26271  1.0000
  C   C12       1.0  0.84203  0.15466  0.26680  1.0000
  H   H4        1.0  0.82821  0.15883  0.20877  1.0000
  C   C13       1.0  0.90994  0.10123  0.34317  1.0000
  C   C14       1.0  0.95905  0.05349  0.34443  1.0000
  C   C15       1.0  0.97188  0.09119  0.28742  1.0000
  C   C16       1.0  0.94784  0.11456  0.28675  1.0000
  H   H5        1.0  0.99862  0.10166  0.24435  1.0000
  H   H6        1.0  0.95858  0.14182  0.24502  1.0000
  N   N2        1.0  0.87013  0.11248  0.17995  1.0000
  O   O3        1.0  0.89048  0.14255  0.12142  1.0000
  O   O4        1.0  0.83235  0.08407  0.14889  1.0000
  C   C17       1.0  0.84030  0.66781  0.34857  1.0000
  C   C18       1.0  0.88855  0.76409  0.34284  1.0000
  C   C19       1.0  0.88257  0.73867  0.26271  1.0000
  C   C20       1.0  0.85892  0.69096  0.26679  1.0000
  H   H7        1.0  0.85479  0.67300  0.20876  1.0000
  C   C21       1.0  0.91227  0.81227  0.34319  1.0000
  C   C22       1.0  0.95996  0.90909  0.34448  1.0000
  C   C23       1.0  0.92226  0.88421  0.28746  1.0000
  C   C24       1.0  0.89891  0.83680  0.28677  1.0000
  H   H8        1.0  0.91178  0.90046  0.24436  1.0000
  H   H9        1.0  0.87165  0.82027  0.24502  1.0000
  N   N3        1.0  0.90107  0.76123  0.17995  1.0000
  O   O5        1.0  0.87098  0.75149  0.12143  1.0000
  O   O6        1.0  0.92952  0.75191  0.14889  1.0000
  C   C25       1.0  0.49598  0.15492  0.29000  1.0000
  C   C26       1.0  0.53212  0.14653  0.28592  1.0000
  C   C27       1.0  0.63304  0.18646  0.27416  1.0000
  C   C28       1.0  0.67808  0.19674  0.26865  1.0000
  H   H10       1.0  0.62234  0.20220  0.23015  1.0000
  H   H11       1.0  0.69830  0.21928  0.22054  1.0000
  H   H12       1.0  0.47782  0.15114  0.23243  1.0000
  H   H13       1.0  0.53826  0.13578  0.22578  1.0000
  C   C29       1.0  0.85870  0.34469  0.29033  1.0000
  C   C30       1.0  0.86697  0.38917  0.28613  1.0000
  C   C31       1.0  0.82720  0.45022  0.27428  1.0000
  C   C32       1.0  0.81687  0.48495  0.26879  1.0000
  H   H14       1.0  0.81132  0.42372  0.23047  1.0000
  H   H15       1.0  0.79425  0.48258  0.22082  1.0000
  H   H16       1.0  0.86232  0.33028  0.23263  1.0000
  H   H17       1.0  0.87767  0.40599  0.22591  1.0000
  C   C33       1.0  0.66889  0.51766  0.29031  1.0000
  C   C34       1.0  0.62440  0.48147  0.28614  1.0000
  C   C35       1.0  0.56334  0.38063  0.27409  1.0000
  C   C36       1.0  0.52860  0.33560  0.26858  1.0000
  H   H18       1.0  0.58983  0.39127  0.23024  1.0000
  H   H19       1.0  0.53095  0.31536  0.22057  1.0000
  H   H20       1.0  0.68331  0.53570  0.23263  1.0000
  H   H21       1.0  0.60756  0.47532  0.22593  1.0000
  C   C37       1.0  0.05603  0.02998  0.34482  1.0000
  C   C38       1.0  0.03113  0.05275  0.34480  1.0000
  C   C39       1.0  0.98346  0.02954  0.34475  1.0000
  C   C40       1.0  0.96068  0.98189  0.34476  1.0000
  C   C41       1.0  0.98390  0.95743  0.34478  1.0000
  C   C42       1.0  0.03157  0.98231  0.34481  1.0000
  H   H22       1.0  0.92624  0.96452  0.34467  1.0000
  H   H23       1.0  0.04895  0.96526  0.34476  1.0000
  H   H24       1.0  0.04820  0.08718  0.34473  1.0000
  C   C43       1.0  0.46384  0.19674  0.36195  1.0000
  C   C44       1.0  0.48821  0.24398  0.35294  1.0000
  C   C45       1.0  0.46655  0.26950  0.34223  1.0000
  C   C46       1.0  0.41895  0.24658  0.34236  1.0000
  C   C47       1.0  0.39354  0.19909  0.35091  1.0000
  C   C48       1.0  0.41638  0.17446  0.36001  1.0000
  H   H25       1.0  0.40271  0.26458  0.33505  1.0000
  H   H26       1.0  0.39841  0.14012  0.36519  1.0000
  H   H27       1.0  0.52272  0.26021  0.35407  1.0000
  C   C49       1.0  0.81695  0.27082  0.36212  1.0000
  C   C50       1.0  0.76969  0.24795  0.35313  1.0000
  C   C51       1.0  0.74418  0.20079  0.34226  1.0000
  C   C52       1.0  0.76711  0.17613  0.34231  1.0000
  C   C53       1.0  0.81461  0.19820  0.35087  1.0000
  C   C54       1.0  0.83924  0.24564  0.36010  1.0000
  H   H28       1.0  0.74910  0.14189  0.33493  1.0000
  H   H29       1.0  0.87359  0.26201  0.36533  1.0000
  H   H30       1.0  0.75345  0.26621  0.35436  1.0000
  C   C55       1.0  0.74279  0.54974  0.36215  1.0000
  C   C56       1.0  0.76567  0.52537  0.35316  1.0000
  C   C57       1.0  0.81285  0.54701  0.34227  1.0000
  C   C58       1.0  0.83751  0.59460  0.34229  1.0000
  C   C59       1.0  0.81542  0.62001  0.35085  1.0000
  C   C60       1.0  0.76797  0.59719  0.36007  1.0000
  H   H31       1.0  0.87176  0.61083  0.33494  1.0000
  H   H32       1.0  0.75158  0.61516  0.36529  1.0000
  H   H33       1.0  0.74740  0.49087  0.35441  1.0000
  C   C61       1.0  0.32029  0.15640  0.42758  1.0000
  C   C62       1.0  0.27295  0.13323  0.42488  1.0000
  C   C63       1.0  0.17654  0.11618  0.40111  1.0000
  C   C64       1.0  0.12911  0.09222  0.40135  1.0000
  H   H34       1.0  0.19298  0.14340  0.44298  1.0000
  H   H35       1.0  0.11274  0.10235  0.44494  1.0000
  H   H36       1.0  0.33609  0.15904  0.48791  1.0000
  H   H37       1.0  0.25569  0.11925  0.48352  1.0000
  C   C65       1.0  0.85727  0.16760  0.42750  1.0000
  C   C66       1.0  0.88038  0.14336  0.42479  1.0000
  C   C67       1.0  0.89729  0.06393  0.40097  1.0000
  C   C68       1.0  0.92121  0.04042  0.40120  1.0000
  H   H38       1.0  0.87006  0.05318  0.44285  1.0000
  H   H39       1.0  0.91105  0.01392  0.44479  1.0000
  H   H40       1.0  0.85465  0.18076  0.48784  1.0000
  H   H41       1.0  0.89436  0.14007  0.48342  1.0000
  C   C69       1.0  0.84600  0.69324  0.42749  1.0000
  C   C70       1.0  0.87019  0.74058  0.42479  1.0000
  C   C71       1.0  0.94958  0.83693  0.40100  1.0000
  C   C72       1.0  0.97304  0.88435  0.40128  1.0000
  H   H42       1.0  0.96034  0.82048  0.44289  1.0000
  H   H43       1.0  0.99955  0.90070  0.44485  1.0000
  H   H44       1.0  0.83283  0.67746  0.48783  1.0000
  H   H45       1.0  0.87346  0.75784  0.48342  1.0000
  C   C73       1.0  0.48867  0.17388  0.36830  1.0000
  C   C74       1.0  0.56242  0.15730  0.35930  1.0000
  C   C75       1.0  0.55391  0.17436  0.44017  1.0000
  C   C76       1.0  0.51703  0.18207  0.44373  1.0000
  H   H46       1.0  0.51353  0.19790  0.49932  1.0000
  C   C77       1.0  0.60463  0.15919  0.34482  1.0000
  C   C78       1.0  0.69652  0.18042  0.33400  1.0000
  C   C79       1.0  0.66757  0.15081  0.40129  1.0000
  C   C80       1.0  0.62225  0.14025  0.40633  1.0000
  H   H47       1.0  0.68013  0.13975  0.45164  1.0000
  H   H48       1.0  0.60301  0.12104  0.45922  1.0000
  N   N4        1.0  0.58456  0.18778  0.51355  1.0000
  O   O7        1.0  0.56548  0.16682  0.58466  1.0000
  O   O8        1.0  0.60297  0.22930  0.52874  1.0000
  C   C81       1.0  0.83978  0.31848  0.36873  1.0000
  C   C82       1.0  0.85636  0.40879  0.35957  1.0000
  C   C83       1.0  0.83939  0.38327  0.44053  1.0000
  C   C84       1.0  0.83168  0.33870  0.44415  1.0000
  H   H49       1.0  0.81588  0.31940  0.49978  1.0000
  C   C85       1.0  0.85446  0.44909  0.34498  1.0000
  C   C86       1.0  0.83324  0.51975  0.33407  1.0000
  C   C87       1.0  0.86293  0.52047  0.40125  1.0000
  C   C88       1.0  0.87339  0.48565  0.40645  1.0000
  H   H50       1.0  0.87399  0.54410  0.45156  1.0000
  H   H51       1.0  0.89272  0.48571  0.45921  1.0000
  N   N5        1.0  0.82605  0.40054  0.51394  1.0000
  O   O9        1.0  0.84709  0.40247  0.58496  1.0000
  O   O10       1.0  0.78453  0.37746  0.52931  1.0000
  C   C89       1.0  0.69510  0.52491  0.36869  1.0000
  C   C90       1.0  0.60480  0.45118  0.35950  1.0000
  C   C91       1.0  0.63036  0.45971  0.44044  1.0000
  C   C92       1.0  0.67492  0.49662  0.44415  1.0000
  H   H52       1.0  0.69423  0.50003  0.49970  1.0000
  C   C93       1.0  0.56452  0.40895  0.34495  1.0000
  C   C94       1.0  0.49382  0.31714  0.33392  1.0000
  C   C95       1.0  0.49309  0.34610  0.40111  1.0000
  C   C96       1.0  0.52794  0.39136  0.40637  1.0000
  H   H53       1.0  0.46955  0.33351  0.45161  1.0000
  H   H54       1.0  0.52793  0.41057  0.45929  1.0000
  N   N6        1.0  0.61311  0.42905  0.51375  1.0000
  O   O11       1.0  0.61114  0.44807  0.58486  1.0000
  O   O12       1.0  0.63624  0.41066  0.52900  1.0000
