data_image0
_chemical_formula_structural       C5H2NHC3H2NHC3H2NHNCNCNC3O3NCNCNC3O3C4NCONH2NHC4NCONH2NHC4NCONH2NHC5H2NHC3H2NHC3H2NHNCNCNC3O3NCNCNC3O3C4NCONH2NHC4NCONH2NHC4NCONH2NHC5H2NHC3H2NHC3H2NHNCNCNC3O3NCNCNC3O3C4NCONH2NHC4NCONH2NHC4NCONH2NHC5H2NHC3H2NHC3H2NHNCNCNC3O3NCNCNC3O3C4NCONH2NHC4NCONH2NHC4NCONH2NH
_chemical_formula_sum              "C144 H72 N72 O36"
_cell_length_a       43.5669
_cell_length_b       43.5669
_cell_length_c       15.0406
_cell_angle_alpha    90
_cell_angle_beta     90
_cell_angle_gamma    120

_space_group_name_H-M_alt    "P 1"
_space_group_IT_number       1

loop_
  _space_group_symop_operation_xyz
  'x, y, z'

loop_
  _atom_site_type_symbol
  _atom_site_label
  _atom_site_symmetry_multiplicity
  _atom_site_fract_x
  _atom_site_fract_y
  _atom_site_fract_z
  _atom_site_occupancy
  C   C1        1.0  0.12835  0.31530  0.27756  1.0000
  C   C2        1.0  0.36496  0.17019  0.35681  1.0000
  C   C3        1.0  0.25028  0.28995  0.33362  1.0000
  C   C4        1.0  0.29607  0.27396  0.31001  1.0000
  C   C5        1.0  0.28141  0.29542  0.29065  1.0000
  H   H1        1.0  0.29096  0.31184  0.23664  1.0000
  H   H2        1.0  0.31494  0.27531  0.26736  1.0000
  N   N1        1.0  0.23364  0.30700  0.30009  1.0000
  H   H3        1.0  0.24820  0.32946  0.26922  1.0000
  C   C6        1.0  0.20672  0.45966  0.33339  1.0000
  C   C7        1.0  0.22287  0.02146  0.30936  1.0000
  C   C8        1.0  0.20139  0.48535  0.29011  1.0000
  H   H4        1.0  0.18485  0.47841  0.23629  1.0000
  H   H5        1.0  0.22148  0.03904  0.26694  1.0000
  N   N2        1.0  0.18954  0.42593  0.30024  1.0000
  H   H6        1.0  0.16719  0.41807  0.26889  1.0000
  C   C9        1.0  0.03697  0.24631  0.33398  1.0000
  C   C10       1.0  0.47520  0.20056  0.31026  1.0000
  C   C11       1.0  0.01132  0.21517  0.29103  1.0000
  H   H7        1.0  0.01824  0.20568  0.23696  1.0000
  H   H8        1.0  0.45767  0.18169  0.26755  1.0000
  N   N3        1.0  0.07067  0.26294  0.30055  1.0000
  H   H9        1.0  0.07856  0.24838  0.26962  1.0000
  N   N4        1.0  0.14824  0.35122  0.27841  1.0000
  C   C12       1.0  0.18420  0.36824  0.27736  1.0000
  N   N5        1.0  0.20024  0.34836  0.27822  1.0000
  C   C13       1.0  0.18132  0.31240  0.27736  1.0000
  N   N6        1.0  0.14539  0.29638  0.27843  1.0000
  C   C14       1.0  0.20443  0.40502  0.29075  1.0000
  C   C15       1.0  0.19785  0.29216  0.29079  1.0000
  C   C16       1.0  0.09159  0.29874  0.29118  1.0000
  O   O1        1.0  0.17649  0.25661  0.30018  1.0000
  O   O2        1.0  0.07736  0.32007  0.30047  1.0000
  O   O3        1.0  0.23999  0.41923  0.30009  1.0000
  N   N7        1.0  0.33610  0.13715  0.35663  1.0000
  C   C17       1.0  0.30253  0.13170  0.35673  1.0000
  N   N8        1.0  0.29836  0.16056  0.35659  1.0000
  C   C18       1.0  0.32648  0.19413  0.35679  1.0000
  N   N9        1.0  0.35951  0.19830  0.35669  1.0000
  C   C19       1.0  0.27282  0.09732  0.35864  1.0000
  C   C20       1.0  0.32180  0.22384  0.35878  1.0000
  C   C21       1.0  0.39934  0.17485  0.35881  1.0000
  O   O4        1.0  0.35140  0.25627  0.35541  1.0000
  O   O5        1.0  0.40214  0.14524  0.35546  1.0000
  O   O6        1.0  0.24040  0.09448  0.35500  1.0000
  C   C22       1.0  0.23811  0.26710  0.40921  1.0000
  C   C23       1.0  0.25305  0.24517  0.42914  1.0000
  C   C24       1.0  0.28079  0.24689  0.37492  1.0000
  C   C25       1.0  0.24057  0.22426  0.50770  1.0000
  N   N10       1.0  0.21619  0.22573  0.56028  1.0000
  C   C26       1.0  0.20249  0.24661  0.54042  1.0000
  O   O7        1.0  0.25449  0.20517  0.54191  1.0000
  N   N11       1.0  0.21387  0.26740  0.46706  1.0000
  H   H10       1.0  0.18477  0.24764  0.58313  1.0000
  H   H11       1.0  0.20528  0.28398  0.45965  1.0000
  N   N12       1.0  0.28985  0.22104  0.37746  1.0000
  H   H12       1.0  0.27091  0.19762  0.39446  1.0000
  C   C27       1.0  0.22954  0.47036  0.40905  1.0000
  C   C28       1.0  0.25149  0.00723  0.42894  1.0000
  C   C29       1.0  0.24984  0.03326  0.37456  1.0000
  C   C30       1.0  0.27231  0.01567  0.50767  1.0000
  N   N13       1.0  0.27075  0.98981  0.56041  1.0000
  C   C31       1.0  0.24989  0.45524  0.54052  1.0000
  O   O8        1.0  0.29137  0.04868  0.54190  1.0000
  N   N14       1.0  0.22918  0.44582  0.46701  1.0000
  H   H13       1.0  0.24875  0.43649  0.58345  1.0000
  H   H14       1.0  0.21255  0.42066  0.45969  1.0000
  N   N15       1.0  0.27565  0.06817  0.37732  1.0000
  H   H15       1.0  0.29907  0.07268  0.39448  1.0000
  C   C32       1.0  0.02628  0.25849  0.40955  1.0000
  C   C33       1.0  0.48941  0.24356  0.42942  1.0000
  C   C34       1.0  0.46340  0.21583  0.37516  1.0000
  C   C35       1.0  0.48095  0.25604  0.50793  1.0000
  N   N16       1.0  0.50681  0.28036  0.56065  1.0000
  C   C36       1.0  0.04139  0.29407  0.54080  1.0000
  O   O9        1.0  0.44796  0.24203  0.54230  1.0000
  N   N17       1.0  0.05082  0.28273  0.46739  1.0000
  H   H16       1.0  0.06013  0.31170  0.58370  1.0000
  H   H17       1.0  0.07598  0.29126  0.46011  1.0000
  N   N18       1.0  0.42850  0.20679  0.37764  1.0000
  H   H18       1.0  0.42401  0.22572  0.39472  1.0000
  C   C37       1.0  0.12835  0.81530  0.27756  1.0000
  C   C38       1.0  0.36496  0.67019  0.35681  1.0000
  C   C39       1.0  0.25028  0.78995  0.33362  1.0000
  C   C40       1.0  0.29607  0.77396  0.31001  1.0000
  C   C41       1.0  0.28141  0.79542  0.29065  1.0000
  H   H19       1.0  0.29095  0.81184  0.23664  1.0000
  H   H20       1.0  0.31494  0.77531  0.26736  1.0000
  N   N19       1.0  0.23364  0.80700  0.30009  1.0000
  H   H21       1.0  0.24820  0.82946  0.26922  1.0000
  C   C42       1.0  0.20672  0.95966  0.33339  1.0000
  C   C43       1.0  0.22287  0.52146  0.30936  1.0000
  C   C44       1.0  0.20139  0.98535  0.29011  1.0000
  H   H22       1.0  0.18485  0.97841  0.23629  1.0000
  H   H23       1.0  0.22148  0.53904  0.26694  1.0000
  N   N20       1.0  0.18954  0.92592  0.30024  1.0000
  H   H24       1.0  0.16718  0.91807  0.26889  1.0000
  C   C45       1.0  0.03697  0.74631  0.33398  1.0000
  C   C46       1.0  0.47520  0.70056  0.31026  1.0000
  C   C47       1.0  0.01132  0.71517  0.29103  1.0000
  H   H25       1.0  0.01824  0.70568  0.23696  1.0000
  H   H26       1.0  0.45767  0.68169  0.26755  1.0000
  N   N21       1.0  0.07067  0.76294  0.30055  1.0000
  H   H27       1.0  0.07856  0.74838  0.26962  1.0000
  N   N22       1.0  0.14824  0.85122  0.27841  1.0000
  C   C48       1.0  0.18420  0.86824  0.27736  1.0000
  N   N23       1.0  0.20024  0.84836  0.27822  1.0000
  C   C49       1.0  0.18132  0.81240  0.27736  1.0000
  N   N24       1.0  0.14539  0.79638  0.27843  1.0000
  C   C50       1.0  0.20443  0.90502  0.29075  1.0000
  C   C51       1.0  0.19785  0.79216  0.29079  1.0000
  C   C52       1.0  0.09159  0.79874  0.29118  1.0000
  O   O10       1.0  0.17649  0.75661  0.30018  1.0000
  O   O11       1.0  0.07736  0.82007  0.30047  1.0000
  O   O12       1.0  0.23999  0.91923  0.30009  1.0000
  N   N25       1.0  0.33610  0.63716  0.35663  1.0000
  C   C53       1.0  0.30253  0.63170  0.35673  1.0000
  N   N26       1.0  0.29836  0.66056  0.35659  1.0000
  C   C54       1.0  0.32647  0.69413  0.35679  1.0000
  N   N27       1.0  0.35951  0.69830  0.35669  1.0000
  C   C55       1.0  0.27282  0.59731  0.35864  1.0000
  C   C56       1.0  0.32180  0.72383  0.35878  1.0000
  C   C57       1.0  0.39934  0.67485  0.35881  1.0000
  O   O13       1.0  0.35140  0.75627  0.35541  1.0000
  O   O14       1.0  0.40214  0.64524  0.35546  1.0000
  O   O15       1.0  0.24039  0.59448  0.35500  1.0000
  C   C58       1.0  0.23811  0.76710  0.40921  1.0000
  C   C59       1.0  0.25305  0.74517  0.42914  1.0000
  C   C60       1.0  0.28079  0.74689  0.37492  1.0000
  C   C61       1.0  0.24057  0.72426  0.50770  1.0000
  N   N28       1.0  0.21619  0.72573  0.56028  1.0000
  C   C62       1.0  0.20249  0.74661  0.54042  1.0000
  O   O16       1.0  0.25449  0.70517  0.54191  1.0000
  N   N29       1.0  0.21387  0.76740  0.46706  1.0000
  H   H28       1.0  0.18477  0.74764  0.58313  1.0000
  H   H29       1.0  0.20528  0.78398  0.45965  1.0000
  N   N30       1.0  0.28985  0.72104  0.37746  1.0000
  H   H30       1.0  0.27091  0.69762  0.39446  1.0000
  C   C63       1.0  0.22954  0.97036  0.40905  1.0000
  C   C64       1.0  0.25149  0.50723  0.42894  1.0000
  C   C65       1.0  0.24984  0.53326  0.37456  1.0000
  C   C66       1.0  0.27231  0.51567  0.50767  1.0000
  N   N31       1.0  0.27075  0.48981  0.56041  1.0000
  C   C67       1.0  0.24989  0.95524  0.54052  1.0000
  O   O17       1.0  0.29137  0.54867  0.54190  1.0000
  N   N32       1.0  0.22918  0.94582  0.46701  1.0000
  H   H31       1.0  0.24875  0.93649  0.58345  1.0000
  H   H32       1.0  0.21255  0.92066  0.45969  1.0000
  N   N33       1.0  0.27565  0.56817  0.37732  1.0000
  H   H33       1.0  0.29907  0.57268  0.39448  1.0000
  C   C68       1.0  0.02628  0.75849  0.40955  1.0000
  C   C69       1.0  0.48941  0.74356  0.42942  1.0000
  C   C70       1.0  0.46340  0.71583  0.37516  1.0000
  C   C71       1.0  0.48095  0.75604  0.50793  1.0000
  N   N34       1.0  0.50681  0.78035  0.56065  1.0000
  C   C72       1.0  0.04139  0.79407  0.54080  1.0000
  O   O18       1.0  0.44796  0.74203  0.54230  1.0000
  N   N35       1.0  0.05082  0.78273  0.46739  1.0000
  H   H34       1.0  0.06013  0.81170  0.58370  1.0000
  H   H35       1.0  0.07598  0.79126  0.46011  1.0000
  N   N36       1.0  0.42850  0.70679  0.37764  1.0000
  H   H36       1.0  0.42401  0.72572  0.39472  1.0000
  C   C73       1.0  0.62835  0.31530  0.27756  1.0000
  C   C74       1.0  0.86496  0.17019  0.35681  1.0000
  C   C75       1.0  0.75028  0.28995  0.33362  1.0000
  C   C76       1.0  0.79607  0.27396  0.31001  1.0000
  C   C77       1.0  0.78140  0.29542  0.29065  1.0000
  H   H37       1.0  0.79095  0.31184  0.23664  1.0000
  H   H38       1.0  0.81494  0.27531  0.26736  1.0000
  N   N37       1.0  0.73364  0.30700  0.30009  1.0000
  H   H39       1.0  0.74820  0.32946  0.26922  1.0000
  C   C78       1.0  0.70672  0.45966  0.33339  1.0000
  C   C79       1.0  0.72287  0.02146  0.30936  1.0000
  C   C80       1.0  0.70139  0.48535  0.29011  1.0000
  H   H40       1.0  0.68485  0.47841  0.23629  1.0000
  H   H41       1.0  0.72148  0.03904  0.26694  1.0000
  N   N38       1.0  0.68954  0.42593  0.30024  1.0000
  H   H42       1.0  0.66718  0.41807  0.26889  1.0000
  C   C81       1.0  0.53697  0.24631  0.33398  1.0000
  C   C82       1.0  0.97520  0.20056  0.31026  1.0000
  C   C83       1.0  0.51132  0.21517  0.29103  1.0000
  H   H43       1.0  0.51824  0.20568  0.23696  1.0000
  H   H44       1.0  0.95768  0.18169  0.26755  1.0000
  N   N39       1.0  0.57067  0.26294  0.30055  1.0000
  H   H45       1.0  0.57856  0.24838  0.26962  1.0000
  N   N40       1.0  0.64824  0.35122  0.27841  1.0000
  C   C84       1.0  0.68420  0.36824  0.27736  1.0000
  N   N41       1.0  0.70025  0.34836  0.27822  1.0000
  C   C85       1.0  0.68132  0.31240  0.27736  1.0000
  N   N42       1.0  0.64539  0.29638  0.27843  1.0000
  C   C86       1.0  0.70443  0.40502  0.29075  1.0000
  C   C87       1.0  0.69785  0.29216  0.29079  1.0000
  C   C88       1.0  0.59159  0.29874  0.29118  1.0000
  O   O19       1.0  0.67649  0.25661  0.30018  1.0000
  O   O20       1.0  0.57736  0.32007  0.30047  1.0000
  O   O21       1.0  0.73999  0.41923  0.30009  1.0000
  N   N43       1.0  0.83610  0.13715  0.35663  1.0000
  C   C89       1.0  0.80253  0.13170  0.35673  1.0000
  N   N44       1.0  0.79836  0.16056  0.35659  1.0000
  C   C90       1.0  0.82647  0.19413  0.35679  1.0000
  N   N45       1.0  0.85951  0.19830  0.35669  1.0000
  C   C91       1.0  0.77282  0.09732  0.35864  1.0000
  C   C92       1.0  0.82180  0.22384  0.35878  1.0000
  C   C93       1.0  0.89934  0.17485  0.35881  1.0000
  O   O22       1.0  0.85140  0.25627  0.35541  1.0000
  O   O23       1.0  0.90214  0.14524  0.35546  1.0000
  O   O24       1.0  0.74040  0.09448  0.35500  1.0000
  C   C94       1.0  0.73811  0.26710  0.40921  1.0000
  C   C95       1.0  0.75305  0.24517  0.42914  1.0000
  C   C96       1.0  0.78079  0.24689  0.37492  1.0000
  C   C97       1.0  0.74057  0.22426  0.50770  1.0000
  N   N46       1.0  0.71619  0.22573  0.56028  1.0000
  C   C98       1.0  0.70249  0.24661  0.54042  1.0000
  O   O25       1.0  0.75449  0.20517  0.54191  1.0000
  N   N47       1.0  0.71387  0.26740  0.46706  1.0000
  H   H46       1.0  0.68477  0.24764  0.58313  1.0000
  H   H47       1.0  0.70528  0.28398  0.45965  1.0000
  N   N48       1.0  0.78985  0.22104  0.37746  1.0000
  H   H48       1.0  0.77091  0.19762  0.39446  1.0000
  C   C99       1.0  0.72954  0.47036  0.40905  1.0000
  C   C100      1.0  0.75149  0.00723  0.42894  1.0000
  C   C101      1.0  0.74984  0.03326  0.37456  1.0000
  C   C102      1.0  0.77231  0.01567  0.50767  1.0000
  N   N49       1.0  0.77075  0.98981  0.56041  1.0000
  C   C103      1.0  0.74989  0.45524  0.54052  1.0000
  O   O26       1.0  0.79137  0.04868  0.54190  1.0000
  N   N50       1.0  0.72918  0.44582  0.46701  1.0000
  H   H49       1.0  0.74875  0.43649  0.58345  1.0000
  H   H50       1.0  0.71255  0.42066  0.45969  1.0000
  N   N51       1.0  0.77565  0.06817  0.37732  1.0000
  H   H51       1.0  0.79907  0.07268  0.39448  1.0000
  C   C104      1.0  0.52628  0.25849  0.40955  1.0000
  C   C105      1.0  0.98941  0.24356  0.42942  1.0000
  C   C106      1.0  0.96340  0.21583  0.37516  1.0000
  C   C107      1.0  0.98095  0.25604  0.50793  1.0000
  N   N52       1.0  0.00681  0.28036  0.56065  1.0000
  C   C108      1.0  0.54139  0.29407  0.54080  1.0000
  O   O27       1.0  0.94796  0.24203  0.54230  1.0000
  N   N53       1.0  0.55082  0.28273  0.46739  1.0000
  H   H52       1.0  0.56013  0.31170  0.58370  1.0000
  H   H53       1.0  0.57598  0.29126  0.46011  1.0000
  N   N54       1.0  0.92850  0.20679  0.37764  1.0000
  H   H54       1.0  0.92401  0.22572  0.39472  1.0000
  C   C109      1.0  0.62835  0.81530  0.27756  1.0000
  C   C110      1.0  0.86496  0.67019  0.35681  1.0000
  C   C111      1.0  0.75028  0.78995  0.33362  1.0000
  C   C112      1.0  0.79606  0.77396  0.31001  1.0000
  C   C113      1.0  0.78140  0.79542  0.29065  1.0000
  H   H55       1.0  0.79095  0.81184  0.23664  1.0000
  H   H56       1.0  0.81494  0.77531  0.26736  1.0000
  N   N55       1.0  0.73364  0.80700  0.30009  1.0000
  H   H57       1.0  0.74820  0.82946  0.26922  1.0000
  C   C114      1.0  0.70672  0.95966  0.33339  1.0000
  C   C115      1.0  0.72287  0.52146  0.30936  1.0000
  C   C116      1.0  0.70139  0.98535  0.29011  1.0000
  H   H58       1.0  0.68485  0.97841  0.23629  1.0000
  H   H59       1.0  0.72148  0.53904  0.26694  1.0000
  N   N56       1.0  0.68954  0.92592  0.30024  1.0000
  H   H60       1.0  0.66718  0.91807  0.26889  1.0000
  C   C117      1.0  0.53697  0.74631  0.33398  1.0000
  C   C118      1.0  0.97520  0.70056  0.31026  1.0000
  C   C119      1.0  0.51132  0.71517  0.29103  1.0000
  H   H61       1.0  0.51824  0.70568  0.23696  1.0000
  H   H62       1.0  0.95767  0.68169  0.26755  1.0000
  N   N57       1.0  0.57067  0.76294  0.30055  1.0000
  H   H63       1.0  0.57856  0.74838  0.26962  1.0000
  N   N58       1.0  0.64824  0.85122  0.27841  1.0000
  C   C120      1.0  0.68420  0.86824  0.27736  1.0000
  N   N59       1.0  0.70025  0.84836  0.27822  1.0000
  C   C121      1.0  0.68132  0.81240  0.27736  1.0000
  N   N60       1.0  0.64539  0.79638  0.27843  1.0000
  C   C122      1.0  0.70443  0.90502  0.29075  1.0000
  C   C123      1.0  0.69785  0.79216  0.29079  1.0000
  C   C124      1.0  0.59159  0.79874  0.29118  1.0000
  O   O28       1.0  0.67649  0.75661  0.30018  1.0000
  O   O29       1.0  0.57736  0.82007  0.30047  1.0000
  O   O30       1.0  0.73999  0.91923  0.30009  1.0000
  N   N61       1.0  0.83610  0.63716  0.35663  1.0000
  C   C125      1.0  0.80253  0.63170  0.35673  1.0000
  N   N62       1.0  0.79836  0.66056  0.35659  1.0000
  C   C126      1.0  0.82647  0.69413  0.35679  1.0000
  N   N63       1.0  0.85951  0.69830  0.35669  1.0000
  C   C127      1.0  0.77282  0.59731  0.35864  1.0000
  C   C128      1.0  0.82180  0.72383  0.35878  1.0000
  C   C129      1.0  0.89934  0.67485  0.35881  1.0000
  O   O31       1.0  0.85140  0.75627  0.35541  1.0000
  O   O32       1.0  0.90214  0.64524  0.35546  1.0000
  O   O33       1.0  0.74040  0.59448  0.35500  1.0000
  C   C130      1.0  0.73811  0.76710  0.40921  1.0000
  C   C131      1.0  0.75305  0.74517  0.42914  1.0000
  C   C132      1.0  0.78079  0.74689  0.37492  1.0000
  C   C133      1.0  0.74057  0.72426  0.50770  1.0000
  N   N64       1.0  0.71619  0.72573  0.56028  1.0000
  C   C134      1.0  0.70249  0.74661  0.54042  1.0000
  O   O34       1.0  0.75449  0.70517  0.54191  1.0000
  N   N65       1.0  0.71387  0.76740  0.46706  1.0000
  H   H64       1.0  0.68477  0.74764  0.58313  1.0000
  H   H65       1.0  0.70528  0.78398  0.45965  1.0000
  N   N66       1.0  0.78985  0.72104  0.37746  1.0000
  H   H66       1.0  0.77091  0.69762  0.39446  1.0000
  C   C135      1.0  0.72954  0.97036  0.40905  1.0000
  C   C136      1.0  0.75149  0.50723  0.42894  1.0000
  C   C137      1.0  0.74984  0.53326  0.37456  1.0000
  C   C138      1.0  0.77231  0.51567  0.50767  1.0000
  N   N67       1.0  0.77075  0.48981  0.56041  1.0000
  C   C139      1.0  0.74989  0.95524  0.54052  1.0000
  O   O35       1.0  0.79137  0.54867  0.54190  1.0000
  N   N68       1.0  0.72918  0.94582  0.46701  1.0000
  H   H67       1.0  0.74875  0.93649  0.58345  1.0000
  H   H68       1.0  0.71255  0.92066  0.45969  1.0000
  N   N69       1.0  0.77565  0.56817  0.37732  1.0000
  H   H69       1.0  0.79907  0.57268  0.39448  1.0000
  C   C140      1.0  0.52628  0.75849  0.40955  1.0000
  C   C141      1.0  0.98941  0.74356  0.42942  1.0000
  C   C142      1.0  0.96340  0.71583  0.37516  1.0000
  C   C143      1.0  0.98095  0.75604  0.50793  1.0000
  N   N70       1.0  0.00681  0.78035  0.56065  1.0000
  C   C144      1.0  0.54139  0.79407  0.54080  1.0000
  O   O36       1.0  0.94796  0.74203  0.54230  1.0000
  N   N71       1.0  0.55082  0.78273  0.46739  1.0000
  H   H70       1.0  0.56013  0.81170  0.58370  1.0000
  H   H71       1.0  0.57598  0.79126  0.46011  1.0000
  N   N72       1.0  0.92849  0.70679  0.37764  1.0000
  H   H72       1.0  0.92400  0.72572  0.39472  1.0000
