data_image0
_chemical_formula_structural       C8H6NC2H2C8H6NC2H2C8H6NC2H2C8H6NC2H2C8H6NC2H2C8H6NC2H2C2HNH2NC3NH2NH2NC3NH2NH2NC3NH2NH2NC3NH2NH2NC3NH2NH2NC3NH2NH2NC3NH2NH2NC3NH2NH2NC10H4CNCNHCHCHC10H4CNCNHCHCHC10H4CNCNHCHCHC10H4CNCNHCHCHC10H4CNCNHCHCHC10H4CNCNHCHCHCHNH2NC3NH2NH2NC3NH2NH2NC3NH2NH2NC3NH2NH2NC3NH2NH2NC3NH2NH2NC3NH2NH2NC3NH2NH2NCNHC2NH
_chemical_formula_sum              "C198 H162 N72"
_cell_length_a       77.7606
_cell_length_b       77.7606
_cell_length_c       14.8061
_cell_angle_alpha    90
_cell_angle_beta     90
_cell_angle_gamma    120

_space_group_name_H-M_alt    "P 1"
_space_group_IT_number       1

loop_
  _space_group_symop_operation_xyz
  'x, y, z'

loop_
  _atom_site_type_symbol
  _atom_site_label
  _atom_site_symmetry_multiplicity
  _atom_site_fract_x
  _atom_site_fract_y
  _atom_site_fract_z
  _atom_site_occupancy
  C   C1        1.0  0.12742  0.56903  0.34973  1.0000
  C   C2        1.0  0.08446  0.55083  0.35067  1.0000
  C   C3        1.0  0.09706  0.57171  0.34759  1.0000
  C   C4        1.0  0.11791  0.58054  0.34707  1.0000
  C   C5        1.0  0.19189  0.64284  0.37914  1.0000
  C   C6        1.0  0.20768  0.66268  0.38545  1.0000
  C   C7        1.0  0.19417  0.53730  0.33677  1.0000
  C   C8        1.0  0.18197  0.54601  0.33822  1.0000
  H   H1        1.0  0.09115  0.58088  0.34548  1.0000
  H   H2        1.0  0.12609  0.59571  0.34463  1.0000
  H   H3        1.0  0.17959  0.63846  0.41866  1.0000
  H   H4        1.0  0.20635  0.67223  0.42860  1.0000
  H   H5        1.0  0.18781  0.52255  0.32079  1.0000
  H   H6        1.0  0.16725  0.53739  0.32237  1.0000
  N   N1        1.0  0.16037  0.59856  0.34030  1.0000
  C   C9        1.0  0.14876  0.57832  0.34804  1.0000
  C   C10       1.0  0.06375  0.54281  0.35101  1.0000
  H   H7        1.0  0.05858  0.55223  0.35134  1.0000
  H   H8        1.0  0.22096  0.52553  0.34397  1.0000
  C   C11       1.0  0.44738  0.56171  0.34975  1.0000
  C   C12       1.0  0.46560  0.53696  0.35082  1.0000
  C   C13       1.0  0.44472  0.52868  0.34790  1.0000
  C   C14       1.0  0.43588  0.54069  0.34731  1.0000
  C   C15       1.0  0.37359  0.55231  0.37969  1.0000
  C   C16       1.0  0.35375  0.54825  0.38632  1.0000
  C   C17       1.0  0.47909  0.66018  0.33693  1.0000
  C   C18       1.0  0.47036  0.63926  0.33815  1.0000
  H   H9        1.0  0.43555  0.51359  0.34595  1.0000
  H   H10       1.0  0.42071  0.53370  0.34499  1.0000
  H   H11       1.0  0.37804  0.54452  0.41974  1.0000
  H   H12       1.0  0.34428  0.53749  0.43015  1.0000
  H   H13       1.0  0.49385  0.66856  0.32131  1.0000
  H   H14       1.0  0.47900  0.63316  0.32274  1.0000
  N   N2        1.0  0.41785  0.56510  0.34039  1.0000
  C   C19       1.0  0.43808  0.57375  0.34800  1.0000
  C   C20       1.0  0.47362  0.52428  0.35124  1.0000
  H   H15       1.0  0.46420  0.50968  0.35193  1.0000
  H   H16       1.0  0.49086  0.69873  0.34401  1.0000
  C   C21       1.0  0.45467  0.88894  0.34974  1.0000
  C   C22       1.0  0.47945  0.93190  0.35069  1.0000
  C   C23       1.0  0.48772  0.91929  0.34761  1.0000
  C   C24       1.0  0.47569  0.89844  0.34709  1.0000
  C   C25       1.0  0.46398  0.82445  0.37897  1.0000
  C   C26       1.0  0.46801  0.80864  0.38525  1.0000
  C   C27       1.0  0.35618  0.82224  0.33701  1.0000
  C   C28       1.0  0.37709  0.83443  0.33839  1.0000
  H   H17       1.0  0.50280  0.92520  0.34551  1.0000
  H   H18       1.0  0.48267  0.89026  0.34466  1.0000
  H   H19       1.0  0.47184  0.83669  0.41891  1.0000
  H   H20       1.0  0.47883  0.80992  0.42869  1.0000
  H   H21       1.0  0.34780  0.82862  0.32118  1.0000
  H   H22       1.0  0.38320  0.84915  0.32270  1.0000
  N   N3        1.0  0.45124  0.85599  0.34031  1.0000
  C   C29       1.0  0.44261  0.86760  0.34806  1.0000
  C   C30       1.0  0.49214  0.95260  0.35103  1.0000
  H   H23       1.0  0.50674  0.95777  0.35137  1.0000
  H   H24       1.0  0.31762  0.79547  0.34413  1.0000
  C   C31       1.0  0.89223  0.44407  0.35034  1.0000
  C   C32       1.0  0.93519  0.46226  0.35093  1.0000
  C   C33       1.0  0.92258  0.44138  0.34790  1.0000
  C   C34       1.0  0.90173  0.43256  0.34754  1.0000
  C   C35       1.0  0.82768  0.37026  0.37990  1.0000
  C   C36       1.0  0.81185  0.35042  0.38596  1.0000
  C   C37       1.0  0.82550  0.47583  0.33761  1.0000
  C   C38       1.0  0.83770  0.46712  0.33906  1.0000
  H   H25       1.0  0.92849  0.43221  0.34568  1.0000
  H   H26       1.0  0.89355  0.41739  0.34513  1.0000
  H   H27       1.0  0.83993  0.37462  0.41972  1.0000
  H   H28       1.0  0.81314  0.34086  0.42926  1.0000
  H   H29       1.0  0.83186  0.49057  0.32141  1.0000
  H   H30       1.0  0.85240  0.47572  0.32298  1.0000
  N   N4        1.0  0.85927  0.41455  0.34109  1.0000
  C   C39       1.0  0.87089  0.43479  0.34883  1.0000
  C   C40       1.0  0.95590  0.47029  0.35104  1.0000
  H   H31       1.0  0.96107  0.46086  0.35094  1.0000
  H   H32       1.0  0.79873  0.48762  0.34484  1.0000
  C   C41       1.0  0.57234  0.45148  0.35037  1.0000
  C   C42       1.0  0.55413  0.47623  0.35110  1.0000
  C   C43       1.0  0.57501  0.48451  0.34821  1.0000
  C   C44       1.0  0.58384  0.47250  0.34779  1.0000
  C   C45       1.0  0.64613  0.46081  0.38042  1.0000
  C   C46       1.0  0.66597  0.46485  0.38692  1.0000
  C   C47       1.0  0.54061  0.35300  0.33806  1.0000
  C   C48       1.0  0.54933  0.37391  0.33931  1.0000
  H   H33       1.0  0.58418  0.49960  0.34614  1.0000
  H   H34       1.0  0.59901  0.47949  0.34547  1.0000
  H   H35       1.0  0.64173  0.46869  0.42010  1.0000
  H   H36       1.0  0.67548  0.47568  0.43036  1.0000
  H   H37       1.0  0.52584  0.34461  0.32260  1.0000
  H   H38       1.0  0.54068  0.38000  0.32402  1.0000
  N   N5        1.0  0.60187  0.44808  0.34109  1.0000
  C   C49       1.0  0.58163  0.43943  0.34874  1.0000
  C   C50       1.0  0.54610  0.48891  0.35127  1.0000
  H   H39       1.0  0.55553  0.50351  0.35148  1.0000
  H   H40       1.0  0.52884  0.31444  0.34515  1.0000
  C   C51       1.0  0.56494  0.12413  0.35033  1.0000
  C   C52       1.0  0.54020  0.08117  0.35102  1.0000
  C   C53       1.0  0.53191  0.09376  0.34817  1.0000
  C   C54       1.0  0.54392  0.11461  0.34777  1.0000
  C   C55       1.0  0.55554  0.18851  0.38085  1.0000
  C   C56       1.0  0.55149  0.20431  0.38759  1.0000
  C   C57       1.0  0.66341  0.19090  0.33805  1.0000
  C   C58       1.0  0.64249  0.17871  0.33919  1.0000
  H   H41       1.0  0.51682  0.08784  0.34613  1.0000
  H   H42       1.0  0.53692  0.12278  0.34548  1.0000
  H   H43       1.0  0.54778  0.17629  0.42097  1.0000
  H   H44       1.0  0.54075  0.20302  0.43158  1.0000
  H   H45       1.0  0.67179  0.18451  0.32268  1.0000
  H   H46       1.0  0.63639  0.16397  0.32399  1.0000
  N   N6        1.0  0.56832  0.15705  0.34116  1.0000
  C   C59       1.0  0.57698  0.14547  0.34869  1.0000
  C   C60       1.0  0.52753  0.06046  0.35115  1.0000
  H   H47       1.0  0.51292  0.05528  0.35116  1.0000
  H   H48       1.0  0.70195  0.21767  0.34498  1.0000
  C   C61       1.0  0.03086  0.51567  0.35081  1.0000
  C   C62       1.0  0.02039  0.51089  0.26701  1.0000
  H   H49       1.0  0.97444  0.49382  0.18853  1.0000
  N   N7        1.0  0.03090  0.51418  0.18842  1.0000
  H   H50       1.0  0.04517  0.51948  0.18812  1.0000
  H   H51       1.0  0.02459  0.50942  0.13042  1.0000
  N   N8        1.0  0.05083  0.52407  0.35068  1.0000
  C   C63       1.0  0.50075  0.51852  0.35062  1.0000
  C   C64       1.0  0.50553  0.51283  0.26682  1.0000
  C   C65       1.0  0.51413  0.50026  0.26692  1.0000
  N   N9        1.0  0.51739  0.49298  0.18846  1.0000
  H   H52       1.0  0.51261  0.49448  0.13046  1.0000
  H   H53       1.0  0.52269  0.48401  0.18835  1.0000
  N   N10       1.0  0.50220  0.52003  0.18826  1.0000
  H   H54       1.0  0.49684  0.52893  0.18787  1.0000
  H   H55       1.0  0.50685  0.51838  0.13014  1.0000
  N   N11       1.0  0.49235  0.53009  0.35049  1.0000
  C   C66       1.0  0.49792  0.98550  0.35082  1.0000
  C   C67       1.0  0.50360  0.99597  0.26702  1.0000
  C   C68       1.0  0.51620  0.01713  0.26712  1.0000
  N   N12       1.0  0.52352  0.02766  0.18866  1.0000
  H   H56       1.0  0.52206  0.02135  0.13074  1.0000
  H   H57       1.0  0.53251  0.04192  0.18854  1.0000
  N   N13       1.0  0.49638  0.98546  0.18843  1.0000
  H   H58       1.0  0.48740  0.97120  0.18813  1.0000
  H   H59       1.0  0.49795  0.99178  0.13043  1.0000
  N   N14       1.0  0.48634  0.96553  0.35069  1.0000
  C   C69       1.0  0.29508  0.54309  0.33862  1.0000
  C   C70       1.0  0.28638  0.54471  0.25654  1.0000
  C   C71       1.0  0.26912  0.54680  0.26047  1.0000
  N   N15       1.0  0.29481  0.54411  0.17612  1.0000
  H   H60       1.0  0.30619  0.54214  0.17330  1.0000
  H   H61       1.0  0.28877  0.54346  0.11827  1.0000
  N   N16       1.0  0.26114  0.55012  0.18445  1.0000
  H   H62       1.0  0.24952  0.55170  0.18667  1.0000
  H   H63       1.0  0.26728  0.55243  0.12566  1.0000
  N   N17       1.0  0.31273  0.54389  0.33424  1.0000
  C   C72       1.0  0.47333  0.75531  0.33896  1.0000
  C   C73       1.0  0.47183  0.74507  0.25681  1.0000
  C   C74       1.0  0.46973  0.72571  0.26061  1.0000
  N   N18       1.0  0.47254  0.75416  0.17645  1.0000
  H   H64       1.0  0.47452  0.76751  0.17373  1.0000
  H   H65       1.0  0.47325  0.74881  0.11858  1.0000
  N   N19       1.0  0.46649  0.71445  0.18450  1.0000
  H   H66       1.0  0.46494  0.70127  0.18661  1.0000
  H   H67       1.0  0.46431  0.71835  0.12560  1.0000
  N   N20       1.0  0.47251  0.77215  0.33471  1.0000
  C   C75       1.0  0.26104  0.72135  0.33883  1.0000
  C   C76       1.0  0.27131  0.73009  0.25672  1.0000
  C   C77       1.0  0.29066  0.74734  0.26061  1.0000
  N   N21       1.0  0.26224  0.72171  0.17632  1.0000
  H   H68       1.0  0.24888  0.71034  0.17354  1.0000
  H   H69       1.0  0.26759  0.72778  0.11849  1.0000
  N   N22       1.0  0.30195  0.75534  0.18454  1.0000
  H   H70       1.0  0.31514  0.76694  0.18673  1.0000
  H   H71       1.0  0.29809  0.74919  0.12575  1.0000
  N   N23       1.0  0.24420  0.70368  0.33450  1.0000
  C   C78       1.0  0.72463  0.47009  0.33987  1.0000
  C   C79       1.0  0.73335  0.46853  0.25776  1.0000
  C   C80       1.0  0.75060  0.46643  0.26165  1.0000
  N   N24       1.0  0.72494  0.46917  0.17737  1.0000
  H   H72       1.0  0.71357  0.47115  0.17459  1.0000
  H   H73       1.0  0.73097  0.46983  0.11950  1.0000
  N   N25       1.0  0.75862  0.46315  0.18561  1.0000
  H   H74       1.0  0.77024  0.46160  0.18779  1.0000
  H   H75       1.0  0.75254  0.46095  0.12670  1.0000
  N   N26       1.0  0.70698  0.46929  0.33555  1.0000
  C   C81       1.0  0.54638  0.25787  0.33947  1.0000
  C   C82       1.0  0.54802  0.26818  0.25737  1.0000
  C   C83       1.0  0.55010  0.28753  0.26126  1.0000
  N   N27       1.0  0.54745  0.25916  0.17698  1.0000
  H   H76       1.0  0.54549  0.24582  0.17417  1.0000
  H   H77       1.0  0.54684  0.26456  0.11909  1.0000
  N   N28       1.0  0.55340  0.29883  0.18523  1.0000
  H   H78       1.0  0.55495  0.31201  0.18742  1.0000
  H   H79       1.0  0.55568  0.29498  0.12639  1.0000
  N   N29       1.0  0.54717  0.24101  0.33511  1.0000
  C   C84       1.0  0.75856  0.29178  0.33993  1.0000
  C   C85       1.0  0.74833  0.28302  0.25777  1.0000
  C   C86       1.0  0.72896  0.26577  0.26159  1.0000
  N   N30       1.0  0.75743  0.29137  0.17741  1.0000
  H   H80       1.0  0.77080  0.30273  0.17469  1.0000
  H   H81       1.0  0.75210  0.28529  0.11956  1.0000
  N   N31       1.0  0.71771  0.25775  0.18546  1.0000
  H   H82       1.0  0.70452  0.24613  0.18756  1.0000
  H   H83       1.0  0.72162  0.26383  0.12655  1.0000
  N   N32       1.0  0.77541  0.30943  0.33566  1.0000
  C   C87       1.0  0.19391  0.62865  0.32735  1.0000
  C   C88       1.0  0.19000  0.56647  0.35661  1.0000
  C   C89       1.0  0.11479  0.54811  0.35308  1.0000
  C   C90       1.0  0.09385  0.53922  0.35347  1.0000
  C   C91       1.0  0.22577  0.66885  0.33915  1.0000
  C   C92       1.0  0.22733  0.65500  0.28318  1.0000
  C   C93       1.0  0.21168  0.63531  0.27733  1.0000
  C   C94       1.0  0.21059  0.57754  0.37709  1.0000
  C   C95       1.0  0.22269  0.56890  0.37609  1.0000
  C   C96       1.0  0.21486  0.54863  0.35436  1.0000
  H   H84       1.0  0.21389  0.62556  0.23947  1.0000
  H   H85       1.0  0.24031  0.65879  0.24991  1.0000
  H   H86       1.0  0.21729  0.59233  0.39250  1.0000
  H   H87       1.0  0.23746  0.57782  0.39045  1.0000
  C   C97       1.0  0.17856  0.57625  0.35112  1.0000
  N   N33       1.0  0.18878  0.59622  0.34165  1.0000
  C   C98       1.0  0.18052  0.60786  0.33542  1.0000
  N   N34       1.0  0.15833  0.56753  0.35291  1.0000
  H   H88       1.0  0.12074  0.53899  0.35487  1.0000
  C   C99       1.0  0.22707  0.54019  0.34969  1.0000
  H   H89       1.0  0.08549  0.52406  0.35582  1.0000
  C   C100      1.0  0.24280  0.68692  0.35460  1.0000
  H   H90       1.0  0.25496  0.68660  0.37328  1.0000
  C   C101      1.0  0.38772  0.56847  0.32747  1.0000
  C   C102      1.0  0.44988  0.62683  0.35612  1.0000
  C   C103      1.0  0.46830  0.57001  0.35294  1.0000
  C   C104      1.0  0.47720  0.55797  0.35341  1.0000
  C   C105      1.0  0.34751  0.56009  0.33978  1.0000
  C   C106      1.0  0.36129  0.57543  0.28336  1.0000
  C   C107      1.0  0.38099  0.57949  0.27728  1.0000
  C   C108      1.0  0.43879  0.63635  0.37624  1.0000
  C   C109      1.0  0.44744  0.65709  0.37534  1.0000
  C   C110      1.0  0.46774  0.66953  0.35415  1.0000
  H   H91       1.0  0.39070  0.59143  0.23917  1.0000
  H   H92       1.0  0.35746  0.58459  0.25003  1.0000
  H   H93       1.0  0.42398  0.62826  0.39135  1.0000
  H   H94       1.0  0.43851  0.66294  0.38947  1.0000
  C   C111      1.0  0.44011  0.60560  0.35075  1.0000
  N   N35       1.0  0.42014  0.59583  0.34143  1.0000
  C   C112      1.0  0.40852  0.57593  0.33547  1.0000
  N   N36       1.0  0.44886  0.59412  0.35266  1.0000
  H   H95       1.0  0.47742  0.58508  0.35458  1.0000
  C   C113      1.0  0.47620  0.69019  0.34967  1.0000
  H   H96       1.0  0.49236  0.56476  0.35564  1.0000
  C   C114      1.0  0.32949  0.55909  0.35582  1.0000
  H   H97       1.0  0.32987  0.57154  0.37565  1.0000
  C   C115      1.0  0.44777  0.82244  0.32722  1.0000
  C   C116      1.0  0.38951  0.82637  0.35652  1.0000
  C   C117      1.0  0.44639  0.90158  0.35308  1.0000
  C   C118      1.0  0.45845  0.92252  0.35349  1.0000
  C   C119      1.0  0.45606  0.79055  0.33894  1.0000
  C   C120      1.0  0.44069  0.78903  0.28285  1.0000
  C   C121      1.0  0.43669  0.80471  0.27696  1.0000
  C   C122      1.0  0.37999  0.80577  0.37678  1.0000
  C   C123      1.0  0.35924  0.79369  0.37583  1.0000
  C   C124      1.0  0.34681  0.80155  0.35438  1.0000
  H   H98       1.0  0.42474  0.80252  0.23906  1.0000
  H   H99       1.0  0.43153  0.77608  0.24936  1.0000
  H   H100      1.0  0.38807  0.79905  0.39201  1.0000
  H   H101      1.0  0.35338  0.77891  0.39002  1.0000
  C   C125      1.0  0.41074  0.83781  0.35104  1.0000
  N   N37       1.0  0.42048  0.82759  0.34159  1.0000
  C   C126      1.0  0.44038  0.83583  0.33546  1.0000
  N   N38       1.0  0.42225  0.85804  0.35289  1.0000
  H   H102      1.0  0.43132  0.89563  0.35488  1.0000
  C   C127      1.0  0.32615  0.78935  0.34977  1.0000
  H   H103      1.0  0.45166  0.93089  0.35583  1.0000
  C   C128      1.0  0.45710  0.77352  0.35428  1.0000
  H   H104      1.0  0.44458  0.76133  0.37241  1.0000
  C   C129      1.0  0.82571  0.38448  0.32807  1.0000
  C   C130      1.0  0.82967  0.44667  0.35767  1.0000
  C   C131      1.0  0.90486  0.46499  0.35366  1.0000
  C   C132      1.0  0.92580  0.47388  0.35389  1.0000
  C   C133      1.0  0.79380  0.34429  0.33945  1.0000
  C   C134      1.0  0.79230  0.35818  0.28348  1.0000
  C   C135      1.0  0.80799  0.37785  0.27770  1.0000
  C   C136      1.0  0.80909  0.43561  0.37840  1.0000
  C   C137      1.0  0.79700  0.44426  0.37742  1.0000
  C   C138      1.0  0.80483  0.46452  0.35544  1.0000
  H   H105      1.0  0.80583  0.38763  0.23979  1.0000
  H   H106      1.0  0.77937  0.35441  0.24981  1.0000
  H   H107      1.0  0.80240  0.42083  0.39401  1.0000
  H   H108      1.0  0.78224  0.43536  0.39196  1.0000
  C   C139      1.0  0.84110  0.43687  0.35214  1.0000
  N   N39       1.0  0.83087  0.41691  0.34267  1.0000
  C   C140      1.0  0.83911  0.40526  0.33639  1.0000
  N   N40       1.0  0.86133  0.44559  0.35380  1.0000
  H   H109      1.0  0.89892  0.47411  0.35556  1.0000
  C   C141      1.0  0.79261  0.47296  0.35076  1.0000
  H   H110      1.0  0.93417  0.48903  0.35619  1.0000
  C   C142      1.0  0.77675  0.32622  0.35449  1.0000
  H   H111      1.0  0.76453  0.32655  0.37220  1.0000
  C   C143      1.0  0.63198  0.44466  0.32825  1.0000
  C   C144      1.0  0.56982  0.38634  0.35715  1.0000
  C   C145      1.0  0.55142  0.44318  0.35356  1.0000
  C   C146      1.0  0.54252  0.45523  0.35385  1.0000
  C   C147      1.0  0.67217  0.45298  0.34041  1.0000
  C   C148      1.0  0.65836  0.43763  0.28407  1.0000
  C   C149      1.0  0.63867  0.43360  0.27805  1.0000
  C   C150      1.0  0.58092  0.37683  0.37709  1.0000
  C   C151      1.0  0.57227  0.35609  0.37619  1.0000
  C   C152      1.0  0.55196  0.34364  0.35514  1.0000
  H   H112      1.0  0.62895  0.42167  0.23995  1.0000
  H   H113      1.0  0.66217  0.42847  0.25069  1.0000
  H   H114      1.0  0.59573  0.38492  0.39206  1.0000
  H   H115      1.0  0.58121  0.35024  0.39016  1.0000
  C   C153      1.0  0.57959  0.40757  0.35173  1.0000
  N   N41       1.0  0.59956  0.41734  0.34232  1.0000
  C   C154      1.0  0.61119  0.43724  0.33619  1.0000
  N   N42       1.0  0.57085  0.41907  0.35353  1.0000
  H   H116      1.0  0.54230  0.42811  0.35529  1.0000
  C   C155      1.0  0.54351  0.32299  0.35063  1.0000
  H   H117      1.0  0.52736  0.44843  0.35605  1.0000
  C   C156      1.0  0.69021  0.45399  0.35613  1.0000
  H   H118      1.0  0.68985  0.44150  0.37509  1.0000
  C   C157      1.0  0.57167  0.19054  0.32840  1.0000
  C   C158      1.0  0.63005  0.18677  0.35684  1.0000
  C   C159      1.0  0.57325  0.11151  0.35347  1.0000
  C   C160      1.0  0.56121  0.09057  0.35374  1.0000
  C   C161      1.0  0.56330  0.22237  0.34095  1.0000
  C   C162      1.0  0.57861  0.22393  0.28433  1.0000
  C   C163      1.0  0.58267  0.20829  0.27813  1.0000
  C   C164      1.0  0.63957  0.20739  0.37668  1.0000
  C   C165      1.0  0.66031  0.21948  0.37586  1.0000
  C   C166      1.0  0.67276  0.21161  0.35502  1.0000
  H   H119      1.0  0.59458  0.21051  0.23990  1.0000
  H   H120      1.0  0.58775  0.23691  0.25095  1.0000
  H   H121      1.0  0.63148  0.21412  0.39156  1.0000
  H   H122      1.0  0.66616  0.23427  0.38978  1.0000
  C   C167      1.0  0.60882  0.17531  0.35149  1.0000
  N   N43       1.0  0.59904  0.18550  0.34224  1.0000
  C   C168      1.0  0.57914  0.17721  0.33631  1.0000
  N   N44       1.0  0.59734  0.15507  0.35335  1.0000
  H   H123      1.0  0.58832  0.11747  0.35517  1.0000
  C   C169      1.0  0.69342  0.22380  0.35062  1.0000
  H   H124      1.0  0.56801  0.08221  0.35591  1.0000
  C   C170      1.0  0.56232  0.23940  0.35712  1.0000
  H   H125      1.0  0.57475  0.25143  0.37731  1.0000
  C   C171      1.0  0.02042  0.51082  0.43470  1.0000
  H   H126      1.0  0.97444  0.49343  0.51371  1.0000
  N   N45       1.0  0.03098  0.51411  0.51312  1.0000
  H   H127      1.0  0.04526  0.51949  0.51333  1.0000
  H   H128      1.0  0.02473  0.50945  0.57128  1.0000
  N   N46       1.0  0.96882  0.48902  0.35104  1.0000
  C   C172      1.0  0.51898  0.49467  0.35081  1.0000
  C   C173      1.0  0.51419  0.50035  0.43460  1.0000
  C   C174      1.0  0.50560  0.51294  0.43450  1.0000
  N   N47       1.0  0.51748  0.49313  0.51316  1.0000
  H   H129      1.0  0.52280  0.48419  0.51354  1.0000
  H   H130      1.0  0.51279  0.49474  0.57123  1.0000
  N   N48       1.0  0.50237  0.52025  0.51294  1.0000
  H   H131      1.0  0.49711  0.52924  0.51308  1.0000
  H   H132      1.0  0.50719  0.51876  0.57091  1.0000
  N   N49       1.0  0.52737  0.48310  0.35088  1.0000
  C   C175      1.0  0.52177  0.02757  0.35100  1.0000
  C   C176      1.0  0.51606  0.01711  0.43481  1.0000
  C   C177      1.0  0.50351  0.99594  0.43470  1.0000
  N   N50       1.0  0.52323  0.02764  0.51335  1.0000
  H   H133      1.0  0.53214  0.04192  0.51372  1.0000
  H   H134      1.0  0.52154  0.02137  0.57154  1.0000
  N   N51       1.0  0.49623  0.98538  0.51313  1.0000
  H   H135      1.0  0.48732  0.97111  0.51333  1.0000
  H   H136      1.0  0.49784  0.99164  0.57130  1.0000
  N   N52       1.0  0.53334  0.04754  0.35104  1.0000
  C   C178      1.0  0.26047  0.54626  0.34616  1.0000
  C   C179      1.0  0.26897  0.54425  0.42805  1.0000
  C   C180      1.0  0.28595  0.54172  0.42386  1.0000
  N   N53       1.0  0.29354  0.53767  0.49913  1.0000
  H   H137      1.0  0.28673  0.53438  0.55660  1.0000
  H   H138      1.0  0.30430  0.53476  0.49504  1.0000
  N   N54       1.0  0.26118  0.54559  0.50899  1.0000
  H   H139      1.0  0.24980  0.54753  0.51271  1.0000
  H   H140      1.0  0.26763  0.54658  0.56616  1.0000
  N   N55       1.0  0.24616  0.55100  0.35073  1.0000
  C   C181      1.0  0.47016  0.71754  0.34630  1.0000
  C   C182      1.0  0.47206  0.72798  0.42829  1.0000
  C   C183      1.0  0.47457  0.74748  0.42424  1.0000
  N   N56       1.0  0.47843  0.75904  0.49966  1.0000
  H   H141      1.0  0.48161  0.75548  0.55730  1.0000
  H   H142      1.0  0.48128  0.77269  0.49573  1.0000
  N   N57       1.0  0.47065  0.71880  0.50918  1.0000
  H   H143      1.0  0.46870  0.70547  0.51273  1.0000
  H   H144      1.0  0.46956  0.72420  0.56634  1.0000
  N   N58       1.0  0.46540  0.69848  0.35075  1.0000
  C   C184      1.0  0.29881  0.75596  0.34632  1.0000
  C   C185      1.0  0.28833  0.74743  0.42824  1.0000
  C   C186      1.0  0.26883  0.73043  0.42411  1.0000
  N   N59       1.0  0.25724  0.72275  0.49947  1.0000
  H   H145      1.0  0.26078  0.72950  0.55709  1.0000
  H   H146      1.0  0.24359  0.71195  0.49546  1.0000
  N   N60       1.0  0.29749  0.75521  0.50915  1.0000
  H   H147      1.0  0.31079  0.76661  0.51281  1.0000
  H   H148      1.0  0.29205  0.74877  0.56634  1.0000
  N   N61       1.0  0.31786  0.77026  0.35081  1.0000
  C   C187      1.0  0.75922  0.46690  0.34735  1.0000
  C   C188      1.0  0.75070  0.46886  0.42929  1.0000
  C   C189      1.0  0.73372  0.47139  0.42514  1.0000
  N   N62       1.0  0.72608  0.47536  0.50048  1.0000
  H   H149      1.0  0.73286  0.47860  0.55803  1.0000
  H   H150      1.0  0.71531  0.47825  0.49646  1.0000
  N   N63       1.0  0.75847  0.46748  0.51023  1.0000
  H   H151      1.0  0.76983  0.46551  0.51386  1.0000
  H   H152      1.0  0.75198  0.46641  0.56737  1.0000
  N   N64       1.0  0.77353  0.46216  0.35193  1.0000
  C   C190      1.0  0.54956  0.29565  0.34694  1.0000
  C   C191      1.0  0.54755  0.28515  0.42884  1.0000
  C   C192      1.0  0.54500  0.26563  0.42469  1.0000
  N   N65       1.0  0.54091  0.25398  0.49995  1.0000
  H   H153      1.0  0.53760  0.25750  0.55737  1.0000
  H   H154      1.0  0.53797  0.24031  0.49588  1.0000
  N   N66       1.0  0.54891  0.29429  0.50978  1.0000
  H   H155      1.0  0.55087  0.30762  0.51348  1.0000
  H   H156      1.0  0.54991  0.28883  0.56694  1.0000
  N   N67       1.0  0.55431  0.31471  0.35146  1.0000
  C   C193      1.0  0.72078  0.25718  0.34727  1.0000
  C   C194      1.0  0.73121  0.26575  0.42927  1.0000
  C   C195      1.0  0.75071  0.28274  0.42523  1.0000
  N   N68       1.0  0.76225  0.29047  0.50068  1.0000
  H   H157      1.0  0.75867  0.28376  0.55840  1.0000
  H   H158      1.0  0.77590  0.30129  0.49678  1.0000
  N   N69       1.0  0.72202  0.25799  0.51015  1.0000
  H   H159      1.0  0.70869  0.24661  0.51369  1.0000
  H   H160      1.0  0.72741  0.26447  0.56732  1.0000
  N   N70       1.0  0.70171  0.24289  0.35171  1.0000
  C   C196      1.0  0.99923  0.50231  0.26711  1.0000
  N   N71       1.0  0.98870  0.49909  0.18865  1.0000
  H   H161      1.0  0.99501  0.50396  0.13074  1.0000
  C   C197      1.0  0.98879  0.49742  0.35099  1.0000
  C   C198      1.0  0.99925  0.50219  0.43479  1.0000
  N   N72       1.0  0.98872  0.49881  0.51335  1.0000
  H   H162      1.0  0.99499  0.50341  0.57153  1.0000
