data_image0
_chemical_formula_structural       C7HNO2NHC3HNO2NHC3HNO2NHC5H3C2O3C5H3C2O3C3HNO2NHC3HNO2NHC3HNO2NHC7HNO2NHC3HNO2NHC3HNO2NHC5H3C2O3C5H3C2O3C3HNO2NHC3HNO2NHC3HNO2NHC7HNO2NHC3HNO2NHC3HNO2NHC5H3C2O3C5H3C2O3C3HNO2NHC3HNO2NHC3HNO2NHC7HNO2NHC3HNO2NHC3HNO2NHC5H3C2O3C5H3C2O3C3HNO2NHC3HNO2NHC3HNO2NH
_chemical_formula_sum              "C144 H72 N48 O72"
_cell_length_a       44.0749
_cell_length_b       44.0749
_cell_length_c       15.0374
_cell_angle_alpha    90
_cell_angle_beta     90
_cell_angle_gamma    120

_space_group_name_H-M_alt    "P 1"
_space_group_IT_number       1

loop_
  _space_group_symop_operation_xyz
  'x, y, z'

loop_
  _atom_site_type_symbol
  _atom_site_label
  _atom_site_symmetry_multiplicity
  _atom_site_fract_x
  _atom_site_fract_y
  _atom_site_fract_z
  _atom_site_occupancy
  C   C1        1.0  0.19290  0.32450  0.25467  1.0000
  C   C2        1.0  0.22068  0.31722  0.26537  1.0000
  C   C3        1.0  0.30757  0.17867  0.41266  1.0000
  C   C4        1.0  0.28364  0.19114  0.40145  1.0000
  C   C5        1.0  0.23741  0.27231  0.28682  1.0000
  C   C6        1.0  0.23573  0.24225  0.24870  1.0000
  C   C7        1.0  0.25434  0.22656  0.28401  1.0000
  H   H1        1.0  0.22180  0.23229  0.19117  1.0000
  N   N1        1.0  0.25631  0.20035  0.23372  1.0000
  O   O1        1.0  0.22658  0.17440  0.21802  1.0000
  O   O2        1.0  0.27191  0.21214  0.16104  1.0000
  N   N2        1.0  0.21727  0.28504  0.25208  1.0000
  H   H2        1.0  0.19876  0.26963  0.21126  1.0000
  C   C8        1.0  0.22456  0.46447  0.28676  1.0000
  C   C9        1.0  0.25462  0.49284  0.24861  1.0000
  C   C10       1.0  0.27032  0.02715  0.28388  1.0000
  H   H3        1.0  0.26459  0.48885  0.19113  1.0000
  N   N3        1.0  0.29654  0.05530  0.23359  1.0000
  O   O3        1.0  0.32249  0.05151  0.21792  1.0000
  O   O4        1.0  0.28476  0.05912  0.16088  1.0000
  N   N4        1.0  0.21184  0.43159  0.25210  1.0000
  H   H4        1.0  0.22725  0.42848  0.21130  1.0000
  C   C11       1.0  0.03240  0.25945  0.28660  1.0000
  C   C12       1.0  0.00405  0.26118  0.24853  1.0000
  C   C13       1.0  0.46974  0.24257  0.28381  1.0000
  H   H5        1.0  0.00802  0.27510  0.19099  1.0000
  N   N5        1.0  0.44158  0.24063  0.23354  1.0000
  O   O5        1.0  0.44536  0.27036  0.21788  1.0000
  O   O6        1.0  0.43776  0.22504  0.16082  1.0000
  N   N6        1.0  0.06528  0.27960  0.25189  1.0000
  H   H6        1.0  0.06840  0.29814  0.21113  1.0000
  C   C14       1.0  0.17238  0.36776  0.25473  1.0000
  C   C15       1.0  0.13747  0.33947  0.25448  1.0000
  C   C16       1.0  0.12911  0.30398  0.25460  1.0000
  C   C17       1.0  0.15741  0.29736  0.25445  1.0000
  C   C18       1.0  0.19952  0.35941  0.25444  1.0000
  H   H7        1.0  0.15188  0.27201  0.25983  1.0000
  H   H8        1.0  0.22486  0.37922  0.26002  1.0000
  H   H9        1.0  0.11764  0.34499  0.25986  1.0000
  C   C19       1.0  0.17965  0.40281  0.26538  1.0000
  C   C20       1.0  0.09405  0.27619  0.26518  1.0000
  O   O7        1.0  0.25323  0.34419  0.28383  1.0000
  O   O8        1.0  0.15269  0.40839  0.28394  1.0000
  O   O9        1.0  0.08847  0.24364  0.28359  1.0000
  C   C21       1.0  0.31823  0.12830  0.41247  1.0000
  C   C22       1.0  0.35468  0.15258  0.41290  1.0000
  C   C23       1.0  0.36860  0.18932  0.41254  1.0000
  C   C24       1.0  0.34432  0.20148  0.41296  1.0000
  C   C25       1.0  0.29541  0.14223  0.41297  1.0000
  H   H10       1.0  0.35382  0.22777  0.40750  1.0000
  H   H11       1.0  0.26913  0.12545  0.40752  1.0000
  H   H12       1.0  0.37145  0.14308  0.40728  1.0000
  C   C26       1.0  0.30575  0.09189  0.40118  1.0000
  C   C27       1.0  0.40501  0.21326  0.40117  1.0000
  O   O10       1.0  0.24890  0.16742  0.39548  1.0000
  O   O11       1.0  0.32947  0.08088  0.39533  1.0000
  O   O12       1.0  0.41602  0.24800  0.39530  1.0000
  C   C28       1.0  0.27407  0.23986  0.36400  1.0000
  C   C29       1.0  0.27653  0.27057  0.40232  1.0000
  C   C30       1.0  0.25831  0.28612  0.36375  1.0000
  H   H13       1.0  0.25867  0.30656  0.39666  1.0000
  N   N7        1.0  0.29535  0.28423  0.48272  1.0000
  O   O13       1.0  0.27572  0.28277  0.54525  1.0000
  O   O14       1.0  0.31961  0.31540  0.47379  1.0000
  N   N8        1.0  0.29261  0.22560  0.40099  1.0000
  H   H14       1.0  0.31290  0.24107  0.43670  1.0000
  C   C31       1.0  0.25704  0.03359  0.36389  1.0000
  C   C32       1.0  0.22632  0.00534  0.40221  1.0000
  C   C33       1.0  0.21074  0.47158  0.36363  1.0000
  H   H15       1.0  0.19035  0.45151  0.39666  1.0000
  N   N9        1.0  0.21268  0.01051  0.48265  1.0000
  O   O15       1.0  0.21415  0.99234  0.54516  1.0000
  O   O16       1.0  0.18153  0.00364  0.47377  1.0000
  N   N10       1.0  0.27130  0.06639  0.40085  1.0000
  H   H16       1.0  0.25583  0.07122  0.43652  1.0000
  C   C34       1.0  0.46330  0.22284  0.36381  1.0000
  C   C35       1.0  0.49155  0.22035  0.40208  1.0000
  C   C36       1.0  0.02531  0.23852  0.36346  1.0000
  H   H17       1.0  0.04537  0.23818  0.39644  1.0000
  N   N11       1.0  0.48639  0.20155  0.48252  1.0000
  O   O17       1.0  0.50458  0.22118  0.54501  1.0000
  O   O18       1.0  0.49324  0.17725  0.47361  1.0000
  N   N12       1.0  0.43051  0.20431  0.40080  1.0000
  H   H18       1.0  0.42568  0.18401  0.43647  1.0000
  C   C37       1.0  0.19290  0.82449  0.25467  1.0000
  C   C38       1.0  0.22068  0.81722  0.26537  1.0000
  C   C39       1.0  0.30757  0.67867  0.41266  1.0000
  C   C40       1.0  0.28364  0.69115  0.40145  1.0000
  C   C41       1.0  0.23741  0.77231  0.28682  1.0000
  C   C42       1.0  0.23573  0.74225  0.24870  1.0000
  C   C43       1.0  0.25434  0.72656  0.28401  1.0000
  H   H19       1.0  0.22180  0.73230  0.19117  1.0000
  N   N13       1.0  0.25631  0.70035  0.23372  1.0000
  O   O19       1.0  0.22658  0.67440  0.21802  1.0000
  O   O20       1.0  0.27191  0.71214  0.16104  1.0000
  N   N14       1.0  0.21727  0.78504  0.25208  1.0000
  H   H20       1.0  0.19876  0.76963  0.21126  1.0000
  C   C44       1.0  0.22456  0.96447  0.28676  1.0000
  C   C45       1.0  0.25461  0.99284  0.24861  1.0000
  C   C46       1.0  0.27032  0.52715  0.28388  1.0000
  H   H21       1.0  0.26458  0.98885  0.19113  1.0000
  N   N15       1.0  0.29654  0.55530  0.23359  1.0000
  O   O21       1.0  0.32249  0.55151  0.21792  1.0000
  O   O22       1.0  0.28476  0.55912  0.16088  1.0000
  N   N16       1.0  0.21184  0.93159  0.25210  1.0000
  H   H22       1.0  0.22725  0.92848  0.21130  1.0000
  C   C47       1.0  0.03241  0.75945  0.28660  1.0000
  C   C48       1.0  0.00405  0.76118  0.24853  1.0000
  C   C49       1.0  0.46974  0.74257  0.28381  1.0000
  H   H23       1.0  0.00802  0.77510  0.19099  1.0000
  N   N17       1.0  0.44158  0.74063  0.23354  1.0000
  O   O23       1.0  0.44536  0.77036  0.21788  1.0000
  O   O24       1.0  0.43776  0.72503  0.16082  1.0000
  N   N18       1.0  0.06528  0.77960  0.25189  1.0000
  H   H24       1.0  0.06840  0.79814  0.21113  1.0000
  C   C50       1.0  0.17238  0.86776  0.25473  1.0000
  C   C51       1.0  0.13747  0.83947  0.25448  1.0000
  C   C52       1.0  0.12911  0.80398  0.25460  1.0000
  C   C53       1.0  0.15741  0.79736  0.25445  1.0000
  C   C54       1.0  0.19952  0.85941  0.25444  1.0000
  H   H25       1.0  0.15188  0.77201  0.25983  1.0000
  H   H26       1.0  0.22486  0.87922  0.26002  1.0000
  H   H27       1.0  0.11764  0.84499  0.25986  1.0000
  C   C55       1.0  0.17965  0.90281  0.26538  1.0000
  C   C56       1.0  0.09406  0.77619  0.26518  1.0000
  O   O25       1.0  0.25323  0.84419  0.28383  1.0000
  O   O26       1.0  0.15269  0.90839  0.28394  1.0000
  O   O27       1.0  0.08847  0.74364  0.28359  1.0000
  C   C57       1.0  0.31823  0.62830  0.41247  1.0000
  C   C58       1.0  0.35468  0.65258  0.41290  1.0000
  C   C59       1.0  0.36860  0.68932  0.41254  1.0000
  C   C60       1.0  0.34432  0.70148  0.41296  1.0000
  C   C61       1.0  0.29541  0.64222  0.41297  1.0000
  H   H28       1.0  0.35382  0.72777  0.40750  1.0000
  H   H29       1.0  0.26913  0.62545  0.40752  1.0000
  H   H30       1.0  0.37146  0.64308  0.40728  1.0000
  C   C62       1.0  0.30575  0.59189  0.40118  1.0000
  C   C63       1.0  0.40501  0.71326  0.40117  1.0000
  O   O28       1.0  0.24890  0.66742  0.39548  1.0000
  O   O29       1.0  0.32947  0.58088  0.39533  1.0000
  O   O30       1.0  0.41602  0.74800  0.39530  1.0000
  C   C64       1.0  0.27407  0.73986  0.36400  1.0000
  C   C65       1.0  0.27653  0.77057  0.40232  1.0000
  C   C66       1.0  0.25831  0.78612  0.36375  1.0000
  H   H31       1.0  0.25867  0.80656  0.39666  1.0000
  N   N19       1.0  0.29535  0.78423  0.48272  1.0000
  O   O31       1.0  0.27572  0.78277  0.54525  1.0000
  O   O32       1.0  0.31961  0.81540  0.47379  1.0000
  N   N20       1.0  0.29261  0.72560  0.40099  1.0000
  H   H32       1.0  0.31290  0.74107  0.43670  1.0000
  C   C67       1.0  0.25704  0.53359  0.36389  1.0000
  C   C68       1.0  0.22632  0.50534  0.40221  1.0000
  C   C69       1.0  0.21074  0.97158  0.36363  1.0000
  H   H33       1.0  0.19035  0.95151  0.39666  1.0000
  N   N21       1.0  0.21268  0.51051  0.48265  1.0000
  O   O33       1.0  0.21415  0.49234  0.54516  1.0000
  O   O34       1.0  0.18153  0.50364  0.47377  1.0000
  N   N22       1.0  0.27130  0.56639  0.40085  1.0000
  H   H34       1.0  0.25583  0.57122  0.43652  1.0000
  C   C70       1.0  0.46330  0.72284  0.36381  1.0000
  C   C71       1.0  0.49155  0.72035  0.40208  1.0000
  C   C72       1.0  0.02531  0.73852  0.36346  1.0000
  H   H35       1.0  0.04537  0.73818  0.39644  1.0000
  N   N23       1.0  0.48639  0.70155  0.48252  1.0000
  O   O35       1.0  0.50458  0.72118  0.54501  1.0000
  O   O36       1.0  0.49324  0.67725  0.47361  1.0000
  N   N24       1.0  0.43051  0.70431  0.40080  1.0000
  H   H36       1.0  0.42568  0.68401  0.43647  1.0000
  C   C73       1.0  0.69290  0.32450  0.25467  1.0000
  C   C74       1.0  0.72067  0.31722  0.26537  1.0000
  C   C75       1.0  0.80757  0.17867  0.41266  1.0000
  C   C76       1.0  0.78363  0.19114  0.40145  1.0000
  C   C77       1.0  0.73741  0.27231  0.28682  1.0000
  C   C78       1.0  0.73572  0.24225  0.24870  1.0000
  C   C79       1.0  0.75434  0.22656  0.28401  1.0000
  H   H37       1.0  0.72180  0.23229  0.19117  1.0000
  N   N25       1.0  0.75631  0.20035  0.23372  1.0000
  O   O37       1.0  0.72658  0.17440  0.21802  1.0000
  O   O38       1.0  0.77191  0.21214  0.16104  1.0000
  N   N26       1.0  0.71727  0.28504  0.25208  1.0000
  H   H38       1.0  0.69876  0.26963  0.21126  1.0000
  C   C80       1.0  0.72456  0.46447  0.28676  1.0000
  C   C81       1.0  0.75462  0.49284  0.24861  1.0000
  C   C82       1.0  0.77032  0.02715  0.28388  1.0000
  H   H39       1.0  0.76459  0.48885  0.19113  1.0000
  N   N27       1.0  0.79654  0.05530  0.23359  1.0000
  O   O39       1.0  0.82249  0.05151  0.21792  1.0000
  O   O40       1.0  0.78476  0.05912  0.16088  1.0000
  N   N28       1.0  0.71184  0.43159  0.25210  1.0000
  H   H40       1.0  0.72725  0.42848  0.21130  1.0000
  C   C83       1.0  0.53241  0.25945  0.28660  1.0000
  C   C84       1.0  0.50405  0.26118  0.24853  1.0000
  C   C85       1.0  0.96974  0.24257  0.28381  1.0000
  H   H41       1.0  0.50802  0.27510  0.19099  1.0000
  N   N29       1.0  0.94157  0.24063  0.23354  1.0000
  O   O41       1.0  0.94536  0.27036  0.21788  1.0000
  O   O42       1.0  0.93776  0.22504  0.16082  1.0000
  N   N30       1.0  0.56528  0.27960  0.25189  1.0000
  H   H42       1.0  0.56840  0.29814  0.21113  1.0000
  C   C86       1.0  0.67238  0.36776  0.25473  1.0000
  C   C87       1.0  0.63747  0.33947  0.25448  1.0000
  C   C88       1.0  0.62911  0.30398  0.25460  1.0000
  C   C89       1.0  0.65741  0.29736  0.25445  1.0000
  C   C90       1.0  0.69952  0.35941  0.25444  1.0000
  H   H43       1.0  0.65188  0.27201  0.25983  1.0000
  H   H44       1.0  0.72486  0.37922  0.26002  1.0000
  H   H45       1.0  0.61764  0.34499  0.25986  1.0000
  C   C91       1.0  0.67965  0.40281  0.26538  1.0000
  C   C92       1.0  0.59406  0.27619  0.26518  1.0000
  O   O43       1.0  0.75323  0.34419  0.28383  1.0000
  O   O44       1.0  0.65269  0.40839  0.28394  1.0000
  O   O45       1.0  0.58847  0.24364  0.28359  1.0000
  C   C93       1.0  0.81823  0.12830  0.41247  1.0000
  C   C94       1.0  0.85468  0.15258  0.41290  1.0000
  C   C95       1.0  0.86860  0.18932  0.41254  1.0000
  C   C96       1.0  0.84432  0.20148  0.41296  1.0000
  C   C97       1.0  0.79541  0.14223  0.41297  1.0000
  H   H46       1.0  0.85382  0.22777  0.40750  1.0000
  H   H47       1.0  0.76913  0.12545  0.40752  1.0000
  H   H48       1.0  0.87146  0.14308  0.40728  1.0000
  C   C98       1.0  0.80575  0.09189  0.40118  1.0000
  C   C99       1.0  0.90501  0.21326  0.40117  1.0000
  O   O46       1.0  0.74890  0.16742  0.39548  1.0000
  O   O47       1.0  0.82947  0.08088  0.39533  1.0000
  O   O48       1.0  0.91602  0.24800  0.39530  1.0000
  C   C100      1.0  0.77407  0.23986  0.36400  1.0000
  C   C101      1.0  0.77653  0.27057  0.40232  1.0000
  C   C102      1.0  0.75831  0.28612  0.36375  1.0000
  H   H49       1.0  0.75867  0.30656  0.39666  1.0000
  N   N31       1.0  0.79535  0.28423  0.48272  1.0000
  O   O49       1.0  0.77572  0.28277  0.54525  1.0000
  O   O50       1.0  0.81961  0.31540  0.47379  1.0000
  N   N32       1.0  0.79261  0.22560  0.40099  1.0000
  H   H50       1.0  0.81290  0.24107  0.43670  1.0000
  C   C103      1.0  0.75704  0.03359  0.36389  1.0000
  C   C104      1.0  0.72632  0.00534  0.40221  1.0000
  C   C105      1.0  0.71074  0.47158  0.36363  1.0000
  H   H51       1.0  0.69034  0.45151  0.39666  1.0000
  N   N33       1.0  0.71268  0.01051  0.48265  1.0000
  O   O51       1.0  0.71415  0.99234  0.54516  1.0000
  O   O52       1.0  0.68153  0.00364  0.47377  1.0000
  N   N34       1.0  0.77130  0.06639  0.40085  1.0000
  H   H52       1.0  0.75583  0.07122  0.43652  1.0000
  C   C106      1.0  0.96330  0.22284  0.36381  1.0000
  C   C107      1.0  0.99155  0.22035  0.40208  1.0000
  C   C108      1.0  0.52531  0.23852  0.36346  1.0000
  H   H53       1.0  0.54537  0.23818  0.39644  1.0000
  N   N35       1.0  0.98639  0.20155  0.48252  1.0000
  O   O53       1.0  0.00458  0.22118  0.54501  1.0000
  O   O54       1.0  0.99324  0.17725  0.47361  1.0000
  N   N36       1.0  0.93051  0.20431  0.40080  1.0000
  H   H54       1.0  0.92568  0.18401  0.43647  1.0000
  C   C109      1.0  0.69290  0.82449  0.25467  1.0000
  C   C110      1.0  0.72068  0.81722  0.26537  1.0000
  C   C111      1.0  0.80757  0.67867  0.41266  1.0000
  C   C112      1.0  0.78364  0.69115  0.40145  1.0000
  C   C113      1.0  0.73742  0.77231  0.28682  1.0000
  C   C114      1.0  0.73572  0.74225  0.24870  1.0000
  C   C115      1.0  0.75434  0.72656  0.28401  1.0000
  H   H55       1.0  0.72180  0.73230  0.19117  1.0000
  N   N37       1.0  0.75631  0.70035  0.23372  1.0000
  O   O55       1.0  0.72658  0.67440  0.21802  1.0000
  O   O56       1.0  0.77191  0.71214  0.16104  1.0000
  N   N38       1.0  0.71727  0.78504  0.25208  1.0000
  H   H56       1.0  0.69876  0.76963  0.21126  1.0000
  C   C116      1.0  0.72456  0.96447  0.28676  1.0000
  C   C117      1.0  0.75462  0.99284  0.24861  1.0000
  C   C118      1.0  0.77032  0.52715  0.28388  1.0000
  H   H57       1.0  0.76459  0.98885  0.19113  1.0000
  N   N39       1.0  0.79654  0.55530  0.23359  1.0000
  O   O57       1.0  0.82249  0.55151  0.21792  1.0000
  O   O58       1.0  0.78476  0.55912  0.16088  1.0000
  N   N40       1.0  0.71184  0.93159  0.25210  1.0000
  H   H58       1.0  0.72725  0.92848  0.21130  1.0000
  C   C119      1.0  0.53241  0.75945  0.28660  1.0000
  C   C120      1.0  0.50405  0.76118  0.24853  1.0000
  C   C121      1.0  0.96974  0.74257  0.28381  1.0000
  H   H59       1.0  0.50802  0.77510  0.19099  1.0000
  N   N41       1.0  0.94158  0.74063  0.23354  1.0000
  O   O59       1.0  0.94536  0.77036  0.21788  1.0000
  O   O60       1.0  0.93776  0.72503  0.16082  1.0000
  N   N42       1.0  0.56528  0.77960  0.25189  1.0000
  H   H60       1.0  0.56840  0.79814  0.21113  1.0000
  C   C122      1.0  0.67238  0.86776  0.25473  1.0000
  C   C123      1.0  0.63747  0.83947  0.25448  1.0000
  C   C124      1.0  0.62911  0.80398  0.25460  1.0000
  C   C125      1.0  0.65741  0.79736  0.25445  1.0000
  C   C126      1.0  0.69952  0.85941  0.25444  1.0000
  H   H61       1.0  0.65188  0.77201  0.25983  1.0000
  H   H62       1.0  0.72486  0.87922  0.26002  1.0000
  H   H63       1.0  0.61764  0.84499  0.25986  1.0000
  C   C127      1.0  0.67965  0.90281  0.26538  1.0000
  C   C128      1.0  0.59406  0.77619  0.26518  1.0000
  O   O61       1.0  0.75323  0.84419  0.28383  1.0000
  O   O62       1.0  0.65269  0.90839  0.28394  1.0000
  O   O63       1.0  0.58847  0.74364  0.28359  1.0000
  C   C129      1.0  0.81823  0.62830  0.41247  1.0000
  C   C130      1.0  0.85468  0.65258  0.41290  1.0000
  C   C131      1.0  0.86861  0.68932  0.41254  1.0000
  C   C132      1.0  0.84432  0.70148  0.41296  1.0000
  C   C133      1.0  0.79541  0.64222  0.41297  1.0000
  H   H64       1.0  0.85382  0.72777  0.40750  1.0000
  H   H65       1.0  0.76913  0.62545  0.40752  1.0000
  H   H66       1.0  0.87146  0.64308  0.40728  1.0000
  C   C134      1.0  0.80575  0.59189  0.40118  1.0000
  C   C135      1.0  0.90501  0.71326  0.40117  1.0000
  O   O64       1.0  0.74890  0.66742  0.39548  1.0000
  O   O65       1.0  0.82947  0.58088  0.39533  1.0000
  O   O66       1.0  0.91602  0.74800  0.39530  1.0000
  C   C136      1.0  0.77407  0.73986  0.36400  1.0000
  C   C137      1.0  0.77653  0.77057  0.40232  1.0000
  C   C138      1.0  0.75831  0.78612  0.36375  1.0000
  H   H67       1.0  0.75867  0.80656  0.39666  1.0000
  N   N43       1.0  0.79535  0.78423  0.48272  1.0000
  O   O67       1.0  0.77572  0.78277  0.54525  1.0000
  O   O68       1.0  0.81961  0.81540  0.47379  1.0000
  N   N44       1.0  0.79261  0.72560  0.40099  1.0000
  H   H68       1.0  0.81290  0.74107  0.43670  1.0000
  C   C139      1.0  0.75704  0.53359  0.36389  1.0000
  C   C140      1.0  0.72632  0.50534  0.40221  1.0000
  C   C141      1.0  0.71074  0.97158  0.36363  1.0000
  H   H69       1.0  0.69035  0.95151  0.39666  1.0000
  N   N45       1.0  0.71269  0.51051  0.48265  1.0000
  O   O69       1.0  0.71415  0.49234  0.54516  1.0000
  O   O70       1.0  0.68153  0.50364  0.47377  1.0000
  N   N46       1.0  0.77130  0.56639  0.40085  1.0000
  H   H70       1.0  0.75583  0.57122  0.43652  1.0000
  C   C142      1.0  0.96330  0.72284  0.36381  1.0000
  C   C143      1.0  0.99155  0.72035  0.40208  1.0000
  C   C144      1.0  0.52531  0.73852  0.36346  1.0000
  H   H71       1.0  0.54538  0.73818  0.39644  1.0000
  N   N47       1.0  0.98639  0.70155  0.48252  1.0000
  O   O71       1.0  0.00458  0.72118  0.54501  1.0000
  O   O72       1.0  0.99324  0.67725  0.47361  1.0000
  N   N48       1.0  0.93051  0.70431  0.40080  1.0000
  H   H72       1.0  0.92568  0.68401  0.43647  1.0000
