data_image0
_chemical_formula_structural       C3H2C3H2C3OHC3H2NC2OHCHC4H2C3HC6H2C4H2N2HC3O2H2CHC3O2HC2H3C3O2HCHC3OHOHCHC11H5C6H3C6N2HCHC2OHCHC7H5NHCOH
_chemical_formula_sum              "C84 H48 O12 N6"
_cell_length_a       45.3984
_cell_length_b       45.4094
_cell_length_c       14.6601
_cell_angle_alpha    90
_cell_angle_beta     90
_cell_angle_gamma    119.983

_space_group_name_H-M_alt    "P 1"
_space_group_IT_number       1

loop_
  _space_group_symop_operation_xyz
  'x, y, z'

loop_
  _atom_site_type_symbol
  _atom_site_label
  _atom_site_symmetry_multiplicity
  _atom_site_fract_x
  _atom_site_fract_y
  _atom_site_fract_z
  _atom_site_occupancy
  C   C1        1.0  0.21776  0.61296  0.35161  1.0000
  C   C2        1.0  0.16397  0.60915  0.30731  1.0000
  C   C3        1.0  0.19980  0.62687  0.30758  1.0000
  H   H1        1.0  0.21253  0.64994  0.27523  1.0000
  H   H2        1.0  0.15158  0.61980  0.27477  1.0000
  C   C4        1.0  0.33311  0.69655  0.35224  1.0000
  C   C5        1.0  0.31472  0.66062  0.35232  1.0000
  C   C6        1.0  0.33255  0.64250  0.35221  1.0000
  H   H3        1.0  0.31927  0.61636  0.35216  1.0000
  H   H4        1.0  0.32024  0.70983  0.35222  1.0000
  C   C7        1.0  0.28144  0.64426  0.35218  1.0000
  C   C8        1.0  0.25101  0.62931  0.35191  1.0000
  C   C9        1.0  0.03991  0.52368  0.28053  1.0000
  O   O1        1.0  0.06068  0.53361  0.20609  1.0000
  H   H5        1.0  0.06684  0.55731  0.19376  1.0000
  C   C10       1.0  0.19926  0.58108  0.39511  1.0000
  C   C11       1.0  0.16343  0.56350  0.39471  1.0000
  C   C12       1.0  0.14522  0.57733  0.35102  1.0000
  H   H6        1.0  0.21157  0.57027  0.42739  1.0000
  H   H7        1.0  0.15087  0.54039  0.42639  1.0000
  N   N1        1.0  0.11134  0.56219  0.34698  1.0000
  C   C13       1.0  0.05296  0.52444  0.36894  1.0000
  C   C14       1.0  0.02986  0.51207  0.44324  1.0000
  O   O2        1.0  0.04128  0.51328  0.53000  1.0000
  H   H8        1.0  0.03882  0.49084  0.54193  1.0000
  C   C15       1.0  0.08716  0.53504  0.38334  1.0000
  H   H9        1.0  0.09279  0.52130  0.42503  1.0000
  C   C16       1.0  0.41624  0.61080  0.35097  1.0000
  C   C17       1.0  0.41825  0.81131  0.35104  1.0000
  C   C18       1.0  0.42224  0.56297  0.29782  1.0000
  C   C19       1.0  0.40456  0.58112  0.29769  1.0000
  H   H10       1.0  0.41320  0.54151  0.25857  1.0000
  H   H11       1.0  0.38311  0.57237  0.25836  1.0000
  C   C20       1.0  0.36905  0.71437  0.35203  1.0000
  C   C21       1.0  0.36849  0.66004  0.35200  1.0000
  C   C22       1.0  0.38661  0.69597  0.35193  1.0000
  H   H12       1.0  0.41275  0.70883  0.35168  1.0000
  C   C23       1.0  0.40139  0.77806  0.35130  1.0000
  C   C24       1.0  0.38595  0.74764  0.35168  1.0000
  C   C25       1.0  0.39985  0.62768  0.35123  1.0000
  C   C26       1.0  0.38487  0.64313  0.35162  1.0000
  C   C27       1.0  0.40684  0.82976  0.40339  1.0000
  C   C28       1.0  0.42507  0.86557  0.40324  1.0000
  H   H13       1.0  0.38521  0.81740  0.44219  1.0000
  H   H14       1.0  0.41607  0.87808  0.44196  1.0000
  C   C29       1.0  0.45188  0.57388  0.35089  1.0000
  C   C30       1.0  0.45513  0.88384  0.35090  1.0000
  C   C31       1.0  0.46627  0.86513  0.29863  1.0000
  C   C32       1.0  0.44814  0.82931  0.29853  1.0000
  H   H15       1.0  0.48789  0.87755  0.25994  1.0000
  H   H16       1.0  0.45706  0.81662  0.25979  1.0000
  N   N2        1.0  0.46700  0.55512  0.34706  1.0000
  N   N3        1.0  0.47388  0.91771  0.34707  1.0000
  H   H17       1.0  0.53784  0.14613  0.39829  1.0000
  C   C33       1.0  0.53004  0.48844  0.34325  1.0000
  C   C34       1.0  0.51793  0.49931  0.26870  1.0000
  C   C35       1.0  0.50543  0.52197  0.28196  1.0000
  O   O3        1.0  0.51937  0.48917  0.18205  1.0000
  O   O4        1.0  0.49580  0.53301  0.20733  1.0000
  H   H18       1.0  0.49698  0.46915  0.16984  1.0000
  H   H19       1.0  0.47213  0.51553  0.19434  1.0000
  C   C36       1.0  0.54057  0.46480  0.32940  1.0000
  H   H20       1.0  0.52612  0.44465  0.29076  1.0000
  C   C37       1.0  0.54047  0.04738  0.34310  1.0000
  C   C38       1.0  0.52963  0.02441  0.26858  1.0000
  C   C39       1.0  0.50698  0.98925  0.28183  1.0000
  O   O5        1.0  0.53980  0.03597  0.18193  1.0000
  O   O6        1.0  0.49598  0.96858  0.20722  1.0000
  H   H21       1.0  0.51349  0.96241  0.19432  1.0000
  C   C40       1.0  0.44588  0.62198  0.40414  1.0000
  C   C41       1.0  0.46345  0.60373  0.40402  1.0000
  H   H22       1.0  0.48479  0.61255  0.44337  1.0000
  H   H23       1.0  0.45499  0.64344  0.44353  1.0000
  H   H24       1.0  0.54109  0.40236  0.32114  1.0000
  C   C42       1.0  0.50441  0.53410  0.37041  1.0000
  C   C43       1.0  0.51646  0.52314  0.44496  1.0000
  C   C44       1.0  0.52900  0.50051  0.43169  1.0000
  O   O7        1.0  0.53865  0.48942  0.50619  1.0000
  O   O8        1.0  0.51492  0.53309  0.53176  1.0000
  H   H25       1.0  0.53735  0.55299  0.54448  1.0000
  C   C45       1.0  0.49379  0.55769  0.38482  1.0000
  H   H26       1.0  0.50729  0.57681  0.42737  1.0000
  C   C46       1.0  0.49484  0.97611  0.37028  1.0000
  C   C47       1.0  0.50575  0.99913  0.44480  1.0000
  C   C48       1.0  0.52837  0.03428  0.43153  1.0000
  O   O9        1.0  0.53941  0.05501  0.50603  1.0000
  H   H27       1.0  0.52199  0.06131  0.51868  1.0000
  O   O10       1.0  0.49576  0.98763  0.53160  1.0000
  H   H28       1.0  0.47584  0.99015  0.54421  1.0000
  C   C49       1.0  0.47125  0.94192  0.38467  1.0000
  H   H29       1.0  0.45209  0.93630  0.42709  1.0000
  C   C50       1.0  0.81696  0.40999  0.35582  1.0000
  C   C51       1.0  0.61897  0.41284  0.35482  1.0000
  C   C52       1.0  0.61603  0.21187  0.35496  1.0000
  C   C53       1.0  0.58368  0.45006  0.35722  1.0000
  C   C54       1.0  0.61862  0.46600  0.37898  1.0000
  C   C55       1.0  0.63619  0.44773  0.37744  1.0000
  C   C56       1.0  0.87063  0.41211  0.39193  1.0000
  C   C57       1.0  0.83480  0.39441  0.39093  1.0000
  C   C58       1.0  0.57888  0.13939  0.35738  1.0000
  C   C59       1.0  0.56301  0.15835  0.38036  1.0000
  C   C60       1.0  0.58124  0.19417  0.37886  1.0000
  H   H30       1.0  0.63167  0.49125  0.39599  1.0000
  H   H31       1.0  0.66157  0.46020  0.39342  1.0000
  H   H32       1.0  0.82199  0.37013  0.41630  1.0000
  H   H33       1.0  0.88294  0.40024  0.41797  1.0000
  H   H34       1.0  0.56883  0.20706  0.39577  1.0000
  C   C61       1.0  0.66560  0.30880  0.35350  1.0000
  C   C62       1.0  0.70155  0.32654  0.35378  1.0000
  C   C63       1.0  0.72001  0.36248  0.35390  1.0000
  C   C64       1.0  0.70225  0.38067  0.35373  1.0000
  C   C65       1.0  0.66631  0.36321  0.35345  1.0000
  C   C66       1.0  0.64812  0.32727  0.35335  1.0000
  H   H35       1.0  0.71558  0.40681  0.35393  1.0000
  H   H36       1.0  0.71436  0.31321  0.35402  1.0000
  H   H37       1.0  0.62198  0.31447  0.35327  1.0000
  C   C67       1.0  0.63307  0.24512  0.35420  1.0000
  C   C68       1.0  0.64863  0.27554  0.35374  1.0000
  C   C69       1.0  0.63516  0.39577  0.35408  1.0000
  C   C70       1.0  0.65001  0.38019  0.35365  1.0000
  C   C71       1.0  0.75328  0.37877  0.35445  1.0000
  C   C72       1.0  0.78371  0.39368  0.35508  1.0000
  N   N4        1.0  0.56871  0.46892  0.36198  1.0000
  N   N5        1.0  0.56004  0.10556  0.36207  1.0000
  H   H38       1.0  0.55982  0.03359  0.16977  1.0000
  C   C73       1.0  0.56410  0.08154  0.32924  1.0000
  H   H39       1.0  0.58422  0.08725  0.29041  1.0000
  C   C74       1.0  0.98167  0.49879  0.34141  1.0000
  C   C75       1.0  0.00475  0.51117  0.26711  1.0000
  O   O11       1.0  0.99331  0.50998  0.18040  1.0000
  H   H40       1.0  0.99572  0.53241  0.16859  1.0000
  C   C76       1.0  0.94748  0.48822  0.32716  1.0000
  H   H41       1.0  0.94182  0.50223  0.28661  1.0000
  C   C77       1.0  0.58396  0.39658  0.33389  1.0000
  C   C78       1.0  0.56654  0.41499  0.33525  1.0000
  C   C79       1.0  0.83557  0.44353  0.32195  1.0000
  C   C80       1.0  0.87139  0.46107  0.32295  1.0000
  C   C81       1.0  0.88949  0.44556  0.35754  1.0000
  C   C82       1.0  0.63221  0.19315  0.33271  1.0000
  C   C83       1.0  0.61383  0.15734  0.33407  1.0000
  H   H42       1.0  0.82334  0.45558  0.29650  1.0000
  H   H43       1.0  0.88406  0.48544  0.29881  1.0000
  H   H44       1.0  0.65750  0.20529  0.31581  1.0000
  H   H45       1.0  0.62641  0.14453  0.31896  1.0000
  H   H46       1.0  0.57071  0.37120  0.31795  1.0000
  N   N6        1.0  0.92335  0.46065  0.36198  1.0000
  H   H47       1.0  0.56237  0.50682  0.51891  1.0000
  C   C84       1.0  0.99470  0.49953  0.42981  1.0000
  O   O12       1.0  0.97391  0.48960  0.50421  1.0000
  H   H48       1.0  0.96771  0.46589  0.51646  1.0000
