data_image0
_chemical_formula_structural       C2HCH2C3H2C4HNO2NC3H4C2H3C2H2C12H6C3HNOC3HOC2HC2H2C2HC2H3C2HCH2NC18H12C5H2OC5H2NOC4H2
_chemical_formula_sum              "C78 H51 N5 O6"
_cell_length_a       32.4378
_cell_length_b       32.4378
_cell_length_c       14.5667
_cell_angle_alpha    90
_cell_angle_beta     90
_cell_angle_gamma    120

_space_group_name_H-M_alt    "P 1"
_space_group_IT_number       1

loop_
  _space_group_symop_operation_xyz
  'x, y, z'

loop_
  _atom_site_type_symbol
  _atom_site_label
  _atom_site_symmetry_multiplicity
  _atom_site_fract_x
  _atom_site_fract_y
  _atom_site_fract_z
  _atom_site_occupancy
  C   C1        1.0  0.07241  0.53580  0.29586  1.0000
  C   C2        1.0  0.12276  0.56026  0.29250  1.0000
  H   H1        1.0  0.13894  0.56373  0.23048  1.0000
  C   C3        1.0  0.04474  0.51932  0.20865  1.0000
  H   H2        1.0  0.06598  0.53962  0.14956  1.0000
  H   H3        1.0  0.03416  0.48193  0.19778  1.0000
  C   C4        1.0  0.22796  0.63366  0.29248  1.0000
  C   C5        1.0  0.20251  0.60458  0.36846  1.0000
  C   C6        1.0  0.23009  0.60183  0.44143  1.0000
  H   H4        1.0  0.21025  0.63803  0.23879  1.0000
  H   H5        1.0  0.21394  0.58067  0.49712  1.0000
  C   C7        1.0  0.15112  0.57917  0.37203  1.0000
  C   C8        1.0  0.12645  0.57304  0.45552  1.0000
  C   C9        1.0  0.07602  0.54799  0.46154  1.0000
  C   C10       1.0  0.04786  0.52733  0.38129  1.0000
  H   H6        1.0  0.14541  0.58844  0.51397  1.0000
  N   N1        1.0  0.05455  0.54652  0.54714  1.0000
  O   O1        1.0  0.06557  0.52610  0.60775  1.0000
  O   O2        1.0  0.06537  0.58732  0.57542  1.0000
  N   N2        1.0  0.35558  0.68152  0.36092  1.0000
  C   C11       1.0  0.30491  0.65577  0.36311  1.0000
  C   C12       1.0  0.27814  0.65852  0.28950  1.0000
  C   C13       1.0  0.28024  0.62719  0.43927  1.0000
  H   H7        1.0  0.35662  0.62203  0.23553  1.0000
  H   H8        1.0  0.29518  0.67926  0.23380  1.0000
  H   H9        1.0  0.35416  0.73861  0.49143  1.0000
  H   H10       1.0  0.29878  0.62449  0.49342  1.0000
  C   C14       1.0  0.50055  0.54328  0.29629  1.0000
  C   C15       1.0  0.47607  0.56915  0.29289  1.0000
  H   H11       1.0  0.47184  0.58109  0.23060  1.0000
  H   H12       1.0  0.47324  0.45399  0.22060  1.0000
  H   H13       1.0  0.49496  0.53131  0.15042  1.0000
  C   C16       1.0  0.49419  0.96473  0.29416  1.0000
  C   C17       1.0  0.46828  0.91437  0.29083  1.0000
  H   H14       1.0  0.45638  0.89818  0.22855  1.0000
  H   H15       1.0  0.47977  0.00282  0.19368  1.0000
  C   C18       1.0  0.38131  0.65658  0.36338  1.0000
  C   C19       1.0  0.38049  0.73220  0.36261  1.0000
  C   C20       1.0  0.41062  0.66127  0.43879  1.0000
  C   C21       1.0  0.43606  0.63656  0.44105  1.0000
  C   C22       1.0  0.43261  0.60547  0.36902  1.0000
  C   C23       1.0  0.40274  0.60099  0.29387  1.0000
  C   C24       1.0  0.37787  0.62629  0.29070  1.0000
  C   C25       1.0  0.41068  0.75884  0.28964  1.0000
  C   C26       1.0  0.43604  0.80903  0.29233  1.0000
  C   C27       1.0  0.43172  0.83463  0.36729  1.0000
  C   C28       1.0  0.40065  0.80719  0.43951  1.0000
  C   C29       1.0  0.37591  0.75704  0.43775  1.0000
  H   H16       1.0  0.45781  0.64222  0.49605  1.0000
  H   H17       1.0  0.41387  0.68311  0.49225  1.0000
  H   H18       1.0  0.39785  0.57835  0.24088  1.0000
  H   H19       1.0  0.41489  0.74170  0.23469  1.0000
  H   H20       1.0  0.45865  0.82662  0.23923  1.0000
  H   H21       1.0  0.39510  0.82342  0.49439  1.0000
  C   C30       1.0  0.45812  0.57957  0.37266  1.0000
  C   C31       1.0  0.46533  0.56210  0.45650  1.0000
  C   C32       1.0  0.49046  0.53682  0.46255  1.0000
  H   H22       1.0  0.45068  0.56642  0.51531  1.0000
  N   N3        1.0  0.49309  0.51800  0.54877  1.0000
  O   O3        1.0  0.45270  0.48845  0.57949  1.0000
  C   C33       1.0  0.45776  0.88604  0.37068  1.0000
  C   C34       1.0  0.47532  0.91075  0.45447  1.0000
  C   C35       1.0  0.50061  0.96117  0.46045  1.0000
  H   H23       1.0  0.47100  0.89182  0.51331  1.0000
  O   O4        1.0  0.48726  0.97163  0.60553  1.0000
  C   C36       1.0  0.56074  0.45228  0.29513  1.0000
  C   C37       1.0  0.53596  0.47793  0.29869  1.0000
  H   H24       1.0  0.55883  0.43407  0.23649  1.0000
  C   C38       1.0  0.51092  0.48106  0.21561  1.0000
  C   C39       1.0  0.51598  0.53107  0.20891  1.0000
  H   H25       1.0  0.52510  0.47439  0.15276  1.0000
  H   H26       1.0  0.55321  0.55772  0.19612  1.0000
  C   C40       1.0  0.58500  0.11601  0.29337  1.0000
  C   C41       1.0  0.55938  0.06557  0.29673  1.0000
  H   H27       1.0  0.60332  0.13238  0.23487  1.0000
  C   C42       1.0  0.55642  0.03746  0.21367  1.0000
  C   C43       1.0  0.50650  0.99237  0.20678  1.0000
  H   H28       1.0  0.58358  0.02697  0.21876  1.0000
  H   H29       1.0  0.56307  0.05831  0.15084  1.0000
  H   H30       1.0  0.50645  0.97115  0.14841  1.0000
  C   C44       1.0  0.92120  0.47561  0.29404  1.0000
  C   C45       1.0  0.97163  0.50043  0.29750  1.0000
  H   H31       1.0  0.90489  0.47689  0.23490  1.0000
  C   C46       1.0  0.99978  0.52444  0.21376  1.0000
  H   H32       1.0  0.01040  0.56217  0.21677  1.0000
  H   H33       1.0  0.97891  0.50948  0.15119  1.0000
  N   N4        1.0  0.68891  0.34819  0.35878  1.0000
  C   C47       1.0  0.66329  0.37316  0.36157  1.0000
  C   C48       1.0  0.66392  0.29760  0.36118  1.0000
  C   C49       1.0  0.73950  0.37378  0.36151  1.0000
  C   C50       1.0  0.76409  0.39876  0.44109  1.0000
  C   C51       1.0  0.81425  0.42373  0.44369  1.0000
  C   C52       1.0  0.84172  0.42471  0.36699  1.0000
  C   C53       1.0  0.81647  0.39956  0.28735  1.0000
  C   C54       1.0  0.76629  0.37452  0.28462  1.0000
  C   C55       1.0  0.63870  0.37310  0.44148  1.0000
  C   C56       1.0  0.61378  0.39834  0.44422  1.0000
  C   C57       1.0  0.61242  0.42448  0.36728  1.0000
  C   C58       1.0  0.63714  0.42401  0.28726  1.0000
  C   C59       1.0  0.66219  0.39889  0.28446  1.0000
  C   C60       1.0  0.63842  0.27094  0.28373  1.0000
  C   C61       1.0  0.61335  0.22076  0.28607  1.0000
  C   C62       1.0  0.61269  0.19540  0.36596  1.0000
  C   C63       1.0  0.63863  0.22273  0.44322  1.0000
  C   C64       1.0  0.66382  0.27289  0.44093  1.0000
  H   H34       1.0  0.59594  0.39680  0.50315  1.0000
  H   H35       1.0  0.63900  0.35475  0.49827  1.0000
  H   H36       1.0  0.67986  0.39955  0.22587  1.0000
  H   H37       1.0  0.63811  0.44295  0.23043  1.0000
  H   H38       1.0  0.74548  0.39876  0.49770  1.0000
  H   H39       1.0  0.83055  0.44191  0.50231  1.0000
  H   H40       1.0  0.63789  0.28807  0.22522  1.0000
  H   H41       1.0  0.59455  0.20291  0.22903  1.0000
  H   H42       1.0  0.64005  0.20631  0.50207  1.0000
  H   H43       1.0  0.68204  0.29142  0.49793  1.0000
  H   H44       1.0  0.74926  0.35658  0.22627  1.0000
  H   H45       1.0  0.83438  0.39826  0.23072  1.0000
  C   C65       1.0  0.51006  0.52824  0.38190  1.0000
  C   C66       1.0  0.53565  0.50201  0.38040  1.0000
  C   C67       1.0  0.56454  0.50236  0.45377  1.0000
  C   C68       1.0  0.58909  0.47684  0.44965  1.0000
  C   C69       1.0  0.58722  0.45050  0.37081  1.0000
  H   H46       1.0  0.57002  0.52294  0.51032  1.0000
  H   H47       1.0  0.60983  0.47906  0.50442  1.0000
  O   O5        1.0  0.51436  0.55029  0.60757  1.0000
  C   C70       1.0  0.50912  0.98930  0.37978  1.0000
  C   C71       1.0  0.53523  0.04110  0.37833  1.0000
  C   C72       1.0  0.53465  0.06954  0.45166  1.0000
  C   C73       1.0  0.56011  0.11961  0.44772  1.0000
  C   C74       1.0  0.58666  0.14417  0.36913  1.0000
  H   H48       1.0  0.51398  0.05436  0.50808  1.0000
  H   H49       1.0  0.55780  0.13806  0.50251  1.0000
  N   N5        1.0  0.51949  0.98265  0.54661  1.0000
  O   O6        1.0  0.54909  0.97184  0.57720  1.0000
  C   C75       1.0  0.99606  0.50172  0.37983  1.0000
  C   C76       1.0  0.96757  0.47366  0.45405  1.0000
  C   C77       1.0  0.91750  0.44899  0.44993  1.0000
  C   C78       1.0  0.89297  0.44997  0.37041  1.0000
  H   H50       1.0  0.98273  0.46880  0.51121  1.0000
  H   H51       1.0  0.89904  0.42881  0.50531  1.0000
