data_image0
_chemical_formula_structural       NCH2C2NH2NCH2C2NH2N2C5HC2NH2C2NH2N2C5HC2NH2C2NH2N2HCHCHN2HCHCHNC6H2C4HNC6H2C4HN6C6H3C6H3C4NH3C4NH3C4NH3N6C6H3C6H3C4NH3C4NH3C4NH3
_chemical_formula_sum              "N36 C96 H60"
_cell_length_a       29.1892
_cell_length_b       29.1892
_cell_length_c       14.7222
_cell_angle_alpha    90
_cell_angle_beta     90
_cell_angle_gamma    120

_space_group_name_H-M_alt    "P 1"
_space_group_IT_number       1

loop_
  _space_group_symop_operation_xyz
  'x, y, z'

loop_
  _atom_site_type_symbol
  _atom_site_label
  _atom_site_symmetry_multiplicity
  _atom_site_fract_x
  _atom_site_fract_y
  _atom_site_fract_z
  _atom_site_occupancy
  N   N1        1.0  0.04050  0.27260  0.27976  1.0000
  C   C1        1.0  0.12468  0.31470  0.35006  1.0000
  H   H1        1.0  0.13271  0.24656  0.35370  1.0000
  H   H2        1.0  0.13271  0.39087  0.35370  1.0000
  C   C2        1.0  0.04173  0.27323  0.44212  1.0000
  C   C3        1.0  0.06922  0.28696  0.35784  1.0000
  N   N2        1.0  0.06683  0.28578  0.52379  1.0000
  H   H3        1.0  0.04702  0.27588  0.58050  1.0000
  H   H4        1.0  0.10518  0.30495  0.52828  1.0000
  N   N3        1.0  0.04050  0.77260  0.27976  1.0000
  C   C4        1.0  0.12468  0.81470  0.35006  1.0000
  H   H5        1.0  0.13271  0.74656  0.35370  1.0000
  H   H6        1.0  0.13271  0.89087  0.35370  1.0000
  C   C5        1.0  0.04173  0.77323  0.44212  1.0000
  C   C6        1.0  0.06922  0.78696  0.35784  1.0000
  N   N4        1.0  0.06683  0.78578  0.52379  1.0000
  H   H7        1.0  0.04702  0.77588  0.58050  1.0000
  H   H8        1.0  0.10519  0.80495  0.52828  1.0000
  N   N5        1.0  0.25096  0.27259  0.27977  1.0000
  N   N6        1.0  0.25099  0.48310  0.27977  1.0000
  C   C7        1.0  0.15298  0.37061  0.35090  1.0000
  C   C8        1.0  0.20889  0.39891  0.35004  1.0000
  C   C9        1.0  0.23649  0.37061  0.35091  1.0000
  C   C10       1.0  0.20889  0.31470  0.35006  1.0000
  C   C11       1.0  0.15298  0.28709  0.35084  1.0000
  H   H9        1.0  0.25125  0.12798  0.35215  1.0000
  C   C12       1.0  0.25037  0.27324  0.44212  1.0000
  C   C13       1.0  0.23661  0.28696  0.35785  1.0000
  N   N7        1.0  0.23783  0.28579  0.52379  1.0000
  H   H10       1.0  0.24774  0.27589  0.58050  1.0000
  H   H11       1.0  0.21864  0.30495  0.52829  1.0000
  C   C14       1.0  0.25036  0.48185  0.44212  1.0000
  C   C15       1.0  0.23662  0.45437  0.35783  1.0000
  N   N8        1.0  0.23780  0.45674  0.52378  1.0000
  H   H12       1.0  0.24770  0.47655  0.58050  1.0000
  H   H13       1.0  0.21863  0.41839  0.52826  1.0000
  N   N9        1.0  0.25096  0.77259  0.27977  1.0000
  N   N10       1.0  0.25099  0.98310  0.27977  1.0000
  C   C16       1.0  0.15298  0.87061  0.35090  1.0000
  C   C17       1.0  0.20889  0.89891  0.35004  1.0000
  C   C18       1.0  0.23649  0.87061  0.35091  1.0000
  C   C19       1.0  0.20889  0.81470  0.35006  1.0000
  C   C20       1.0  0.15298  0.78709  0.35084  1.0000
  H   H14       1.0  0.25125  0.62799  0.35215  1.0000
  C   C21       1.0  0.25037  0.77324  0.44212  1.0000
  C   C22       1.0  0.23661  0.78696  0.35785  1.0000
  N   N11       1.0  0.23783  0.78579  0.52379  1.0000
  H   H15       1.0  0.24774  0.77589  0.58050  1.0000
  H   H16       1.0  0.21864  0.80495  0.52829  1.0000
  C   C23       1.0  0.25036  0.98185  0.44212  1.0000
  C   C24       1.0  0.23662  0.95437  0.35783  1.0000
  N   N12       1.0  0.23780  0.95674  0.52378  1.0000
  H   H17       1.0  0.24770  0.97654  0.58050  1.0000
  H   H18       1.0  0.21863  0.91839  0.52826  1.0000
  N   N13       1.0  0.27685  0.24670  0.27830  1.0000
  N   N14       1.0  0.27688  0.03488  0.27832  1.0000
  H   H19       1.0  0.27703  0.39087  0.35371  1.0000
  C   C25       1.0  0.27837  0.24524  0.43927  1.0000
  H   H20       1.0  0.28908  0.23456  0.49837  1.0000
  C   C26       1.0  0.27835  0.03784  0.43929  1.0000
  H   H21       1.0  0.28904  0.05922  0.49840  1.0000
  N   N15       1.0  0.27685  0.74670  0.27830  1.0000
  N   N16       1.0  0.27687  0.53488  0.27832  1.0000
  H   H22       1.0  0.27703  0.89087  0.35371  1.0000
  C   C27       1.0  0.27837  0.74524  0.43927  1.0000
  H   H23       1.0  0.28908  0.73456  0.49837  1.0000
  C   C28       1.0  0.27835  0.53784  0.43929  1.0000
  H   H24       1.0  0.28904  0.55922  0.49840  1.0000
  N   N17       1.0  0.48872  0.24671  0.27830  1.0000
  C   C29       1.0  0.40361  0.20417  0.34938  1.0000
  C   C30       1.0  0.37533  0.14826  0.35014  1.0000
  C   C31       1.0  0.31942  0.11998  0.34943  1.0000
  C   C32       1.0  0.29180  0.14826  0.35010  1.0000
  C   C33       1.0  0.31942  0.20417  0.34938  1.0000
  C   C34       1.0  0.37533  0.23179  0.35009  1.0000
  H   H25       1.0  0.39560  0.27234  0.35213  1.0000
  H   H26       1.0  0.39560  0.12798  0.35215  1.0000
  C   C35       1.0  0.29169  0.23191  0.35515  1.0000
  C   C36       1.0  0.29168  0.06450  0.35518  1.0000
  C   C37       1.0  0.45909  0.23191  0.35515  1.0000
  C   C38       1.0  0.48574  0.24523  0.43927  1.0000
  H   H27       1.0  0.46435  0.23454  0.49837  1.0000
  N   N18       1.0  0.48872  0.74671  0.27830  1.0000
  C   C39       1.0  0.40361  0.70416  0.34938  1.0000
  C   C40       1.0  0.37533  0.64826  0.35014  1.0000
  C   C41       1.0  0.31942  0.61998  0.34943  1.0000
  C   C42       1.0  0.29180  0.64826  0.35010  1.0000
  C   C43       1.0  0.31942  0.70416  0.34938  1.0000
  C   C44       1.0  0.37533  0.73179  0.35009  1.0000
  H   H28       1.0  0.39560  0.77234  0.35213  1.0000
  H   H29       1.0  0.39560  0.62799  0.35215  1.0000
  C   C45       1.0  0.29169  0.73191  0.35515  1.0000
  C   C46       1.0  0.29168  0.56450  0.35518  1.0000
  C   C47       1.0  0.45909  0.73191  0.35515  1.0000
  C   C48       1.0  0.48574  0.74523  0.43927  1.0000
  H   H30       1.0  0.46435  0.73454  0.49837  1.0000
  N   N19       1.0  0.75096  0.27259  0.27977  1.0000
  N   N20       1.0  0.77685  0.24670  0.27830  1.0000
  N   N21       1.0  0.75099  0.48310  0.27977  1.0000
  N   N22       1.0  0.77687  0.03488  0.27832  1.0000
  N   N23       1.0  0.54050  0.27260  0.27976  1.0000
  N   N24       1.0  0.98872  0.24671  0.27830  1.0000
  C   C49       1.0  0.62468  0.31470  0.35006  1.0000
  C   C50       1.0  0.65298  0.37061  0.35090  1.0000
  C   C51       1.0  0.70889  0.39891  0.35004  1.0000
  C   C52       1.0  0.73649  0.37061  0.35091  1.0000
  C   C53       1.0  0.70889  0.31470  0.35006  1.0000
  C   C54       1.0  0.65298  0.28709  0.35084  1.0000
  H   H31       1.0  0.77703  0.39087  0.35371  1.0000
  H   H32       1.0  0.63271  0.24656  0.35370  1.0000
  H   H33       1.0  0.63272  0.39087  0.35370  1.0000
  C   C55       1.0  0.90361  0.20417  0.34938  1.0000
  C   C56       1.0  0.87533  0.14826  0.35014  1.0000
  C   C57       1.0  0.81942  0.11998  0.34943  1.0000
  C   C58       1.0  0.79180  0.14826  0.35010  1.0000
  C   C59       1.0  0.81942  0.20417  0.34938  1.0000
  C   C60       1.0  0.87533  0.23179  0.35009  1.0000
  H   H34       1.0  0.75125  0.12798  0.35215  1.0000
  H   H35       1.0  0.89560  0.27234  0.35213  1.0000
  H   H36       1.0  0.89560  0.12798  0.35215  1.0000
  C   C61       1.0  0.79169  0.23191  0.35515  1.0000
  C   C62       1.0  0.77837  0.24524  0.43927  1.0000
  C   C63       1.0  0.75037  0.27324  0.44212  1.0000
  C   C64       1.0  0.73661  0.28696  0.35785  1.0000
  N   N25       1.0  0.73783  0.28579  0.52379  1.0000
  H   H37       1.0  0.74774  0.27589  0.58050  1.0000
  H   H38       1.0  0.71864  0.30495  0.52829  1.0000
  H   H39       1.0  0.78908  0.23456  0.49837  1.0000
  C   C65       1.0  0.79168  0.06450  0.35518  1.0000
  C   C66       1.0  0.77835  0.03784  0.43929  1.0000
  C   C67       1.0  0.75036  0.48185  0.44212  1.0000
  C   C68       1.0  0.73662  0.45437  0.35783  1.0000
  N   N26       1.0  0.73780  0.45674  0.52378  1.0000
  H   H40       1.0  0.74770  0.47655  0.58050  1.0000
  H   H41       1.0  0.71863  0.41839  0.52826  1.0000
  H   H42       1.0  0.78904  0.05922  0.49840  1.0000
  C   C69       1.0  0.95909  0.23191  0.35515  1.0000
  C   C70       1.0  0.98574  0.24523  0.43927  1.0000
  C   C71       1.0  0.54173  0.27323  0.44212  1.0000
  C   C72       1.0  0.56922  0.28696  0.35784  1.0000
  N   N27       1.0  0.56683  0.28578  0.52379  1.0000
  H   H43       1.0  0.54702  0.27588  0.58050  1.0000
  H   H44       1.0  0.60518  0.30495  0.52828  1.0000
  H   H45       1.0  0.96435  0.23454  0.49837  1.0000
  N   N28       1.0  0.75096  0.77259  0.27977  1.0000
  N   N29       1.0  0.77685  0.74670  0.27830  1.0000
  N   N30       1.0  0.75099  0.98310  0.27977  1.0000
  N   N31       1.0  0.77687  0.53488  0.27832  1.0000
  N   N32       1.0  0.54050  0.77260  0.27976  1.0000
  N   N33       1.0  0.98872  0.74671  0.27830  1.0000
  C   C73       1.0  0.62468  0.81470  0.35006  1.0000
  C   C74       1.0  0.65298  0.87061  0.35090  1.0000
  C   C75       1.0  0.70889  0.89891  0.35004  1.0000
  C   C76       1.0  0.73650  0.87061  0.35091  1.0000
  C   C77       1.0  0.70889  0.81470  0.35006  1.0000
  C   C78       1.0  0.65298  0.78709  0.35084  1.0000
  H   H46       1.0  0.77703  0.89087  0.35371  1.0000
  H   H47       1.0  0.63272  0.74656  0.35370  1.0000
  H   H48       1.0  0.63271  0.89087  0.35370  1.0000
  C   C79       1.0  0.90361  0.70416  0.34938  1.0000
  C   C80       1.0  0.87533  0.64826  0.35014  1.0000
  C   C81       1.0  0.81942  0.61998  0.34943  1.0000
  C   C82       1.0  0.79180  0.64826  0.35010  1.0000
  C   C83       1.0  0.81942  0.70416  0.34938  1.0000
  C   C84       1.0  0.87533  0.73179  0.35009  1.0000
  H   H49       1.0  0.75125  0.62799  0.35215  1.0000
  H   H50       1.0  0.89560  0.77234  0.35213  1.0000
  H   H51       1.0  0.89560  0.62799  0.35215  1.0000
  C   C85       1.0  0.79169  0.73191  0.35515  1.0000
  C   C86       1.0  0.77837  0.74524  0.43927  1.0000
  C   C87       1.0  0.75037  0.77324  0.44212  1.0000
  C   C88       1.0  0.73661  0.78696  0.35785  1.0000
  N   N34       1.0  0.73783  0.78579  0.52379  1.0000
  H   H52       1.0  0.74774  0.77589  0.58050  1.0000
  H   H53       1.0  0.71864  0.80495  0.52829  1.0000
  H   H54       1.0  0.78908  0.73456  0.49837  1.0000
  C   C89       1.0  0.79168  0.56450  0.35518  1.0000
  C   C90       1.0  0.77835  0.53784  0.43929  1.0000
  C   C91       1.0  0.75036  0.98185  0.44212  1.0000
  C   C92       1.0  0.73662  0.95437  0.35783  1.0000
  N   N35       1.0  0.73780  0.95674  0.52378  1.0000
  H   H55       1.0  0.74770  0.97654  0.58050  1.0000
  H   H56       1.0  0.71863  0.91839  0.52826  1.0000
  H   H57       1.0  0.78904  0.55922  0.49840  1.0000
  C   C93       1.0  0.95909  0.73191  0.35515  1.0000
  C   C94       1.0  0.98574  0.74523  0.43927  1.0000
  C   C95       1.0  0.54173  0.77323  0.44212  1.0000
  C   C96       1.0  0.56922  0.78696  0.35784  1.0000
  N   N36       1.0  0.56683  0.78578  0.52379  1.0000
  H   H58       1.0  0.54702  0.77588  0.58050  1.0000
  H   H59       1.0  0.60519  0.80495  0.52828  1.0000
  H   H60       1.0  0.96435  0.73454  0.49837  1.0000
