data_image0
_chemical_formula_structural       C18H12C8H3NH3C7H4C2H2C2H2C6H2C6H5NHC18H12C8H3NH3C7H4C2H2C2H2C6H2C6H5NHC18H12C8H3NH3C7H4C2H2C2H2C6H2C6H5NHC18H12C8H3NH3C7H4C2H2C2H2C6H2C6H5NH
_chemical_formula_sum              "C196 H136 N8"
_cell_length_a       32.8058
_cell_length_b       32.8064
_cell_length_c       15.0076
_cell_angle_alpha    90
_cell_angle_beta     90
_cell_angle_gamma    89.9486

_space_group_name_H-M_alt    "P 1"
_space_group_IT_number       1

loop_
  _space_group_symop_operation_xyz
  'x, y, z'

loop_
  _atom_site_type_symbol
  _atom_site_label
  _atom_site_symmetry_multiplicity
  _atom_site_fract_x
  _atom_site_fract_y
  _atom_site_fract_z
  _atom_site_occupancy
  C   C1        1.0  0.99372  0.39722  0.29189  1.0000
  C   C2        1.0  0.03149  0.41231  0.26047  1.0000
  C   C3        1.0  0.03315  0.44600  0.20262  1.0000
  C   C4        1.0  0.99720  0.46460  0.16921  1.0000
  C   C5        1.0  0.46014  0.45284  0.21098  1.0000
  C   C6        1.0  0.45829  0.41970  0.27014  1.0000
  C   C7        1.0  0.99792  0.99859  0.09963  1.0000
  C   C8        1.0  0.00018  0.03548  0.16150  1.0000
  C   C9        1.0  0.46493  0.05492  0.19633  1.0000
  C   C10       1.0  0.46770  0.09009  0.24959  1.0000
  C   C11       1.0  0.00607  0.10619  0.27397  1.0000
  C   C12       1.0  0.04126  0.08408  0.24923  1.0000
  C   C13       1.0  0.03823  0.04915  0.19554  1.0000
  C   C14       1.0  0.03268  0.99813  0.03181  1.0000
  C   C15       1.0  0.46155  0.49621  0.03630  1.0000
  C   C16       1.0  0.44248  0.03135  0.00007  1.0000
  C   C17       1.0  0.44778  0.45807  0.00297  1.0000
  C   C18       1.0  0.05141  0.46164  0.00170  1.0000
  H   H1        1.0  0.45269  0.05982  0.01614  1.0000
  H   H2        1.0  0.46182  0.43162  0.02191  1.0000
  H   H3        1.0  0.04173  0.43399  0.02465  1.0000
  H   H4        1.0  0.03137  0.06165  0.00273  1.0000
  H   H5        1.0  0.06472  0.03488  0.17770  1.0000
  H   H6        1.0  0.06964  0.09430  0.26668  1.0000
  H   H7        1.0  0.44137  0.10515  0.26571  1.0000
  H   H8        1.0  0.43649  0.04480  0.17978  1.0000
  H   H9        1.0  0.43332  0.46680  0.19440  1.0000
  H   H10       1.0  0.06117  0.45519  0.18083  1.0000
  H   H11       1.0  0.05808  0.39713  0.27351  1.0000
  H   H12       1.0  0.43033  0.41065  0.29297  1.0000
  C   C19       1.0  0.00927  0.14625  0.31016  1.0000
  C   C20       1.0  0.53470  0.17505  0.26745  1.0000
  C   C21       1.0  0.03331  0.21707  0.28815  1.0000
  C   C22       1.0  0.00632  0.23041  0.35670  1.0000
  C   C23       1.0  0.99671  0.27230  0.36597  1.0000
  C   C24       1.0  0.46414  0.28787  0.31484  1.0000
  C   C25       1.0  0.46138  0.32980  0.29732  1.0000
  C   C26       1.0  0.99092  0.35744  0.33046  1.0000
  H   H13       1.0  0.44502  0.26854  0.28129  1.0000
  H   H14       1.0  0.44020  0.33899  0.25147  1.0000
  H   H15       1.0  0.55224  0.16586  0.21462  1.0000
  N   N1        1.0  0.05628  0.24295  0.23787  1.0000
  H   H16       1.0  0.07392  0.23291  0.19052  1.0000
  H   H17       1.0  0.05605  0.27221  0.24710  1.0000
  H   H18       1.0  0.30599  0.56316  0.36591  1.0000
  C   C27       1.0  0.40761  0.02846  0.61256  1.0000
  C   C28       1.0  0.39139  0.49009  0.58821  1.0000
  C   C29       1.0  0.41322  0.45496  0.61477  1.0000
  C   C30       1.0  0.08581  0.46232  0.61242  1.0000
  C   C31       1.0  0.10159  0.99949  0.57913  1.0000
  C   C32       1.0  0.07915  0.03534  0.59778  1.0000
  C   C33       1.0  0.04536  0.03455  0.65534  1.0000
  H   H19       1.0  0.39296  0.05485  0.59530  1.0000
  H   H20       1.0  0.40326  0.42653  0.59705  1.0000
  H   H21       1.0  0.10070  0.43538  0.60146  1.0000
  H   H22       1.0  0.08840  0.06290  0.57314  1.0000
  C   C34       1.0  0.98193  0.20160  0.40204  1.0000
  C   C35       1.0  0.98340  0.16008  0.37907  1.0000
  H   H23       1.0  0.96097  0.21096  0.44832  1.0000
  H   H24       1.0  0.96388  0.14033  0.41009  1.0000
  C   C36       1.0  0.02137  0.34188  0.38830  1.0000
  C   C37       1.0  0.02442  0.29978  0.40559  1.0000
  H   H25       1.0  0.04379  0.36059  0.41216  1.0000
  H   H26       1.0  0.04931  0.28906  0.43945  1.0000
  C   C38       1.0  0.35196  0.98700  0.54814  1.0000
  C   C39       1.0  0.33856  0.51449  0.48154  1.0000
  C   C40       1.0  0.29716  0.01680  0.45478  1.0000
  C   C41       1.0  0.26840  0.98996  0.49484  1.0000
  C   C42       1.0  0.28214  0.96084  0.55746  1.0000
  C   C43       1.0  0.32312  0.95944  0.58367  1.0000
  H   H27       1.0  0.26181  0.94265  0.59073  1.0000
  H   H28       1.0  0.33077  0.94027  0.63483  1.0000
  C   C44       1.0  0.22568  0.99705  0.49258  1.0000
  C   C45       1.0  0.19822  0.46677  0.46321  1.0000
  C   C46       1.0  0.15652  0.46920  0.48489  1.0000
  C   C47       1.0  0.14119  0.00126  0.53877  1.0000
  C   C48       1.0  0.16873  0.03253  0.56379  1.0000
  C   C49       1.0  0.21021  0.03054  0.54106  1.0000
  H   H29       1.0  0.20885  0.44140  0.43097  1.0000
  H   H30       1.0  0.13793  0.44578  0.46568  1.0000
  H   H31       1.0  0.15996  0.05514  0.60667  1.0000
  H   H32       1.0  0.35904  0.53456  0.45468  1.0000
  H   H33       1.0  0.22960  0.05170  0.56793  1.0000
  N   N2        1.0  0.28601  0.04512  0.39319  1.0000
  H   H34       1.0  0.25820  0.04696  0.37124  1.0000
  C   C50       1.0  0.99372  0.89722  0.29189  1.0000
  C   C51       1.0  0.03149  0.91231  0.26047  1.0000
  C   C52       1.0  0.03315  0.94600  0.20262  1.0000
  C   C53       1.0  0.99720  0.96460  0.16921  1.0000
  C   C54       1.0  0.46014  0.95284  0.21098  1.0000
  C   C55       1.0  0.45829  0.91970  0.27014  1.0000
  C   C56       1.0  0.99792  0.49860  0.09963  1.0000
  C   C57       1.0  0.00018  0.53548  0.16150  1.0000
  C   C58       1.0  0.46493  0.55492  0.19633  1.0000
  C   C59       1.0  0.46770  0.59009  0.24959  1.0000
  C   C60       1.0  0.00607  0.60619  0.27397  1.0000
  C   C61       1.0  0.04126  0.58408  0.24923  1.0000
  C   C62       1.0  0.03823  0.54915  0.19554  1.0000
  C   C63       1.0  0.03268  0.49813  0.03181  1.0000
  C   C64       1.0  0.46155  0.99621  0.03630  1.0000
  C   C65       1.0  0.44248  0.53135  0.00007  1.0000
  C   C66       1.0  0.44779  0.95807  0.00297  1.0000
  C   C67       1.0  0.05141  0.96164  0.00170  1.0000
  H   H35       1.0  0.45269  0.55982  0.01614  1.0000
  H   H36       1.0  0.46182  0.93162  0.02191  1.0000
  H   H37       1.0  0.04173  0.93398  0.02465  1.0000
  H   H38       1.0  0.03137  0.56165  0.00273  1.0000
  H   H39       1.0  0.06472  0.53488  0.17770  1.0000
  H   H40       1.0  0.06964  0.59430  0.26668  1.0000
  H   H41       1.0  0.44137  0.60515  0.26571  1.0000
  H   H42       1.0  0.43649  0.54480  0.17978  1.0000
  H   H43       1.0  0.43332  0.96680  0.19440  1.0000
  H   H44       1.0  0.06117  0.95519  0.18083  1.0000
  H   H45       1.0  0.05808  0.89713  0.27351  1.0000
  H   H46       1.0  0.43033  0.91065  0.29297  1.0000
  C   C68       1.0  0.00927  0.64625  0.31016  1.0000
  C   C69       1.0  0.53470  0.67505  0.26745  1.0000
  C   C70       1.0  0.03331  0.71707  0.28815  1.0000
  C   C71       1.0  0.00632  0.73041  0.35670  1.0000
  C   C72       1.0  0.99671  0.77230  0.36597  1.0000
  C   C73       1.0  0.46414  0.78787  0.31484  1.0000
  C   C74       1.0  0.46138  0.82979  0.29732  1.0000
  C   C75       1.0  0.99092  0.85744  0.33046  1.0000
  H   H47       1.0  0.44501  0.76855  0.28129  1.0000
  H   H48       1.0  0.44020  0.83899  0.25147  1.0000
  H   H49       1.0  0.55224  0.66586  0.21462  1.0000
  N   N3        1.0  0.05628  0.74295  0.23787  1.0000
  H   H50       1.0  0.07392  0.73291  0.19052  1.0000
  H   H51       1.0  0.05605  0.77221  0.24710  1.0000
  H   H52       1.0  0.30599  0.06316  0.36591  1.0000
  C   C76       1.0  0.40761  0.52846  0.61256  1.0000
  C   C77       1.0  0.39139  0.99010  0.58821  1.0000
  C   C78       1.0  0.41322  0.95496  0.61477  1.0000
  C   C79       1.0  0.08581  0.96232  0.61242  1.0000
  C   C80       1.0  0.10159  0.49949  0.57913  1.0000
  C   C81       1.0  0.07915  0.53534  0.59778  1.0000
  C   C82       1.0  0.04536  0.53455  0.65534  1.0000
  H   H53       1.0  0.39295  0.55485  0.59530  1.0000
  H   H54       1.0  0.40326  0.92653  0.59705  1.0000
  H   H55       1.0  0.10070  0.93538  0.60146  1.0000
  H   H56       1.0  0.08840  0.56290  0.57314  1.0000
  C   C83       1.0  0.98193  0.70160  0.40204  1.0000
  C   C84       1.0  0.98340  0.66008  0.37907  1.0000
  H   H57       1.0  0.96097  0.71096  0.44832  1.0000
  H   H58       1.0  0.96388  0.64033  0.41009  1.0000
  C   C85       1.0  0.02137  0.84188  0.38830  1.0000
  C   C86       1.0  0.02442  0.79978  0.40559  1.0000
  H   H59       1.0  0.04379  0.86059  0.41216  1.0000
  H   H60       1.0  0.04931  0.78906  0.43945  1.0000
  C   C87       1.0  0.35196  0.48700  0.54814  1.0000
  C   C88       1.0  0.33856  0.01449  0.48154  1.0000
  C   C89       1.0  0.29716  0.51680  0.45478  1.0000
  C   C90       1.0  0.26840  0.48997  0.49484  1.0000
  C   C91       1.0  0.28214  0.46084  0.55746  1.0000
  C   C92       1.0  0.32312  0.45944  0.58367  1.0000
  H   H61       1.0  0.26181  0.44265  0.59073  1.0000
  H   H62       1.0  0.33077  0.44027  0.63483  1.0000
  C   C93       1.0  0.22568  0.49705  0.49258  1.0000
  C   C94       1.0  0.19822  0.96677  0.46321  1.0000
  C   C95       1.0  0.15652  0.96920  0.48489  1.0000
  C   C96       1.0  0.14119  0.50126  0.53877  1.0000
  C   C97       1.0  0.16873  0.53253  0.56379  1.0000
  C   C98       1.0  0.21021  0.53054  0.54106  1.0000
  H   H63       1.0  0.20885  0.94140  0.43097  1.0000
  H   H64       1.0  0.13793  0.94578  0.46568  1.0000
  H   H65       1.0  0.15996  0.55514  0.60667  1.0000
  H   H66       1.0  0.35904  0.03456  0.45468  1.0000
  H   H67       1.0  0.22960  0.55170  0.56793  1.0000
  N   N4        1.0  0.28601  0.54512  0.39319  1.0000
  H   H68       1.0  0.25820  0.54696  0.37124  1.0000
  C   C99       1.0  0.49372  0.39722  0.29189  1.0000
  C   C100      1.0  0.53149  0.41231  0.26047  1.0000
  C   C101      1.0  0.53316  0.44600  0.20262  1.0000
  C   C102      1.0  0.49720  0.46460  0.16921  1.0000
  C   C103      1.0  0.96014  0.45284  0.21098  1.0000
  C   C104      1.0  0.95829  0.41970  0.27014  1.0000
  C   C105      1.0  0.49792  0.99859  0.09963  1.0000
  C   C106      1.0  0.50018  0.03548  0.16150  1.0000
  C   C107      1.0  0.96493  0.05492  0.19633  1.0000
  C   C108      1.0  0.96770  0.09009  0.24959  1.0000
  C   C109      1.0  0.50606  0.10619  0.27397  1.0000
  C   C110      1.0  0.54126  0.08408  0.24923  1.0000
  C   C111      1.0  0.53823  0.04915  0.19554  1.0000
  C   C112      1.0  0.53268  0.99813  0.03181  1.0000
  C   C113      1.0  0.96155  0.49621  0.03630  1.0000
  C   C114      1.0  0.94248  0.03135  0.00007  1.0000
  C   C115      1.0  0.94779  0.45807  0.00297  1.0000
  C   C116      1.0  0.55141  0.46164  0.00170  1.0000
  H   H69       1.0  0.95269  0.05982  0.01614  1.0000
  H   H70       1.0  0.96182  0.43162  0.02191  1.0000
  H   H71       1.0  0.54173  0.43399  0.02465  1.0000
  H   H72       1.0  0.53137  0.06165  0.00273  1.0000
  H   H73       1.0  0.56472  0.03488  0.17770  1.0000
  H   H74       1.0  0.56964  0.09430  0.26668  1.0000
  H   H75       1.0  0.94137  0.10515  0.26571  1.0000
  H   H76       1.0  0.93649  0.04480  0.17978  1.0000
  H   H77       1.0  0.93332  0.46680  0.19440  1.0000
  H   H78       1.0  0.56117  0.45519  0.18083  1.0000
  H   H79       1.0  0.55808  0.39713  0.27351  1.0000
  H   H80       1.0  0.93033  0.41065  0.29297  1.0000
  C   C117      1.0  0.50927  0.14625  0.31016  1.0000
  C   C118      1.0  0.03470  0.17505  0.26745  1.0000
  C   C119      1.0  0.53331  0.21707  0.28815  1.0000
  C   C120      1.0  0.50632  0.23041  0.35670  1.0000
  C   C121      1.0  0.49671  0.27230  0.36597  1.0000
  C   C122      1.0  0.96415  0.28787  0.31484  1.0000
  C   C123      1.0  0.96139  0.32980  0.29732  1.0000
  C   C124      1.0  0.49093  0.35744  0.33046  1.0000
  H   H81       1.0  0.94502  0.26854  0.28129  1.0000
  H   H82       1.0  0.94020  0.33899  0.25147  1.0000
  H   H83       1.0  0.05224  0.16586  0.21462  1.0000
  N   N5        1.0  0.55628  0.24295  0.23787  1.0000
  H   H84       1.0  0.57393  0.23291  0.19052  1.0000
  H   H85       1.0  0.55605  0.27221  0.24710  1.0000
  H   H86       1.0  0.80599  0.56316  0.36591  1.0000
  C   C125      1.0  0.90761  0.02846  0.61256  1.0000
  C   C126      1.0  0.89139  0.49009  0.58821  1.0000
  C   C127      1.0  0.91322  0.45496  0.61477  1.0000
  C   C128      1.0  0.58581  0.46232  0.61242  1.0000
  C   C129      1.0  0.60159  0.99949  0.57913  1.0000
  C   C130      1.0  0.57915  0.03534  0.59778  1.0000
  C   C131      1.0  0.54536  0.03455  0.65534  1.0000
  H   H87       1.0  0.89296  0.05485  0.59530  1.0000
  H   H88       1.0  0.90326  0.42653  0.59705  1.0000
  H   H89       1.0  0.60071  0.43538  0.60146  1.0000
  H   H90       1.0  0.58840  0.06290  0.57314  1.0000
  C   C132      1.0  0.48193  0.20160  0.40204  1.0000
  C   C133      1.0  0.48340  0.16008  0.37907  1.0000
  H   H91       1.0  0.46097  0.21096  0.44832  1.0000
  H   H92       1.0  0.46388  0.14033  0.41009  1.0000
  C   C134      1.0  0.52137  0.34188  0.38830  1.0000
  C   C135      1.0  0.52442  0.29978  0.40559  1.0000
  H   H93       1.0  0.54379  0.36059  0.41216  1.0000
  H   H94       1.0  0.54931  0.28906  0.43945  1.0000
  C   C136      1.0  0.85196  0.98700  0.54814  1.0000
  C   C137      1.0  0.83856  0.51449  0.48154  1.0000
  C   C138      1.0  0.79716  0.01680  0.45478  1.0000
  C   C139      1.0  0.76840  0.98996  0.49484  1.0000
  C   C140      1.0  0.78214  0.96084  0.55746  1.0000
  C   C141      1.0  0.82312  0.95944  0.58367  1.0000
  H   H95       1.0  0.76181  0.94265  0.59073  1.0000
  H   H96       1.0  0.83077  0.94027  0.63483  1.0000
  C   C142      1.0  0.72568  0.99705  0.49258  1.0000
  C   C143      1.0  0.69822  0.46677  0.46321  1.0000
  C   C144      1.0  0.65651  0.46920  0.48489  1.0000
  C   C145      1.0  0.64119  0.00126  0.53877  1.0000
  C   C146      1.0  0.66873  0.03253  0.56379  1.0000
  C   C147      1.0  0.71021  0.03054  0.54106  1.0000
  H   H97       1.0  0.70884  0.44140  0.43097  1.0000
  H   H98       1.0  0.63793  0.44578  0.46568  1.0000
  H   H99       1.0  0.65996  0.05514  0.60667  1.0000
  H   H100      1.0  0.85905  0.53456  0.45468  1.0000
  H   H101      1.0  0.72960  0.05170  0.56793  1.0000
  N   N6        1.0  0.78601  0.04512  0.39319  1.0000
  H   H102      1.0  0.75820  0.04696  0.37124  1.0000
  C   C148      1.0  0.49372  0.89722  0.29189  1.0000
  C   C149      1.0  0.53149  0.91231  0.26047  1.0000
  C   C150      1.0  0.53316  0.94600  0.20262  1.0000
  C   C151      1.0  0.49720  0.96460  0.16921  1.0000
  C   C152      1.0  0.96014  0.95284  0.21098  1.0000
  C   C153      1.0  0.95830  0.91970  0.27014  1.0000
  C   C154      1.0  0.49792  0.49860  0.09963  1.0000
  C   C155      1.0  0.50018  0.53548  0.16150  1.0000
  C   C156      1.0  0.96493  0.55492  0.19633  1.0000
  C   C157      1.0  0.96770  0.59009  0.24959  1.0000
  C   C158      1.0  0.50606  0.60619  0.27397  1.0000
  C   C159      1.0  0.54126  0.58408  0.24923  1.0000
  C   C160      1.0  0.53823  0.54915  0.19554  1.0000
  C   C161      1.0  0.53268  0.49813  0.03181  1.0000
  C   C162      1.0  0.96155  0.99621  0.03630  1.0000
  C   C163      1.0  0.94248  0.53135  0.00007  1.0000
  C   C164      1.0  0.94779  0.95807  0.00297  1.0000
  C   C165      1.0  0.55141  0.96164  0.00170  1.0000
  H   H103      1.0  0.95269  0.55982  0.01614  1.0000
  H   H104      1.0  0.96182  0.93162  0.02191  1.0000
  H   H105      1.0  0.54173  0.93398  0.02465  1.0000
  H   H106      1.0  0.53137  0.56165  0.00273  1.0000
  H   H107      1.0  0.56472  0.53488  0.17770  1.0000
  H   H108      1.0  0.56964  0.59430  0.26668  1.0000
  H   H109      1.0  0.94137  0.60515  0.26571  1.0000
  H   H110      1.0  0.93649  0.54480  0.17978  1.0000
  H   H111      1.0  0.93332  0.96680  0.19440  1.0000
  H   H112      1.0  0.56117  0.95519  0.18083  1.0000
  H   H113      1.0  0.55808  0.89713  0.27351  1.0000
  H   H114      1.0  0.93033  0.91065  0.29297  1.0000
  C   C166      1.0  0.50927  0.64625  0.31016  1.0000
  C   C167      1.0  0.03470  0.67505  0.26745  1.0000
  C   C168      1.0  0.53331  0.71707  0.28815  1.0000
  C   C169      1.0  0.50632  0.73041  0.35670  1.0000
  C   C170      1.0  0.49671  0.77230  0.36597  1.0000
  C   C171      1.0  0.96414  0.78787  0.31484  1.0000
  C   C172      1.0  0.96139  0.82979  0.29732  1.0000
  C   C173      1.0  0.49093  0.85744  0.33046  1.0000
  H   H115      1.0  0.94502  0.76855  0.28129  1.0000
  H   H116      1.0  0.94021  0.83899  0.25147  1.0000
  H   H117      1.0  0.05224  0.66586  0.21462  1.0000
  N   N7        1.0  0.55628  0.74295  0.23787  1.0000
  H   H118      1.0  0.57392  0.73291  0.19052  1.0000
  H   H119      1.0  0.55605  0.77221  0.24710  1.0000
  H   H120      1.0  0.80599  0.06316  0.36591  1.0000
  C   C174      1.0  0.90761  0.52846  0.61256  1.0000
  C   C175      1.0  0.89139  0.99010  0.58821  1.0000
  C   C176      1.0  0.91322  0.95496  0.61477  1.0000
  C   C177      1.0  0.58581  0.96232  0.61242  1.0000
  C   C178      1.0  0.60159  0.49949  0.57913  1.0000
  C   C179      1.0  0.57915  0.53534  0.59778  1.0000
  C   C180      1.0  0.54536  0.53455  0.65534  1.0000
  H   H121      1.0  0.89295  0.55485  0.59530  1.0000
  H   H122      1.0  0.90326  0.92653  0.59705  1.0000
  H   H123      1.0  0.60070  0.93538  0.60146  1.0000
  H   H124      1.0  0.58840  0.56290  0.57314  1.0000
  C   C181      1.0  0.48193  0.70160  0.40204  1.0000
  C   C182      1.0  0.48340  0.66008  0.37907  1.0000
  H   H125      1.0  0.46097  0.71096  0.44832  1.0000
  H   H126      1.0  0.46388  0.64033  0.41009  1.0000
  C   C183      1.0  0.52137  0.84188  0.38830  1.0000
  C   C184      1.0  0.52442  0.79978  0.40559  1.0000
  H   H127      1.0  0.54379  0.86059  0.41216  1.0000
  H   H128      1.0  0.54931  0.78906  0.43945  1.0000
  C   C185      1.0  0.85196  0.48700  0.54814  1.0000
  C   C186      1.0  0.83856  0.01449  0.48154  1.0000
  C   C187      1.0  0.79716  0.51680  0.45478  1.0000
  C   C188      1.0  0.76840  0.48997  0.49484  1.0000
  C   C189      1.0  0.78214  0.46084  0.55746  1.0000
  C   C190      1.0  0.82312  0.45944  0.58367  1.0000
  H   H129      1.0  0.76181  0.44265  0.59073  1.0000
  H   H130      1.0  0.83077  0.44027  0.63483  1.0000
  C   C191      1.0  0.72568  0.49705  0.49258  1.0000
  C   C192      1.0  0.69823  0.96677  0.46321  1.0000
  C   C193      1.0  0.65652  0.96920  0.48489  1.0000
  C   C194      1.0  0.64119  0.50126  0.53877  1.0000
  C   C195      1.0  0.66873  0.53253  0.56379  1.0000
  C   C196      1.0  0.71021  0.53054  0.54106  1.0000
  H   H131      1.0  0.70884  0.94140  0.43097  1.0000
  H   H132      1.0  0.63793  0.94578  0.46568  1.0000
  H   H133      1.0  0.65996  0.55514  0.60667  1.0000
  H   H134      1.0  0.85904  0.03456  0.45468  1.0000
  H   H135      1.0  0.72960  0.55170  0.56793  1.0000
  N   N8        1.0  0.78601  0.54512  0.39319  1.0000
  H   H136      1.0  0.75820  0.54696  0.37124  1.0000
