data_image0
_chemical_formula_structural       C8H8C3HC4HCH3CH6C16H4C6H2CH3CH3C6HC6H3CH2CH2CH3CH2C8H8C3HC4HCH3CH6C16H4C6H2CH3CH3C6HC6H3CH2CH2CH3CH2C8H8C3HC4HCH3CH6C16H4C6H2CH3CH3C6HC6H3CH2CH2CH3CH2C8H8C3HC4HCH3CH6C16H4C6H2CH3CH3C6HC6H3CH2CH2CH3CH2
_chemical_formula_sum              "C228 H176"
_cell_length_a       33.901
_cell_length_b       33.901
_cell_length_c       14.9354
_cell_angle_alpha    90
_cell_angle_beta     90
_cell_angle_gamma    89.9983

_space_group_name_H-M_alt    "P 1"
_space_group_IT_number       1

loop_
  _space_group_symop_operation_xyz
  'x, y, z'

loop_
  _atom_site_type_symbol
  _atom_site_label
  _atom_site_symmetry_multiplicity
  _atom_site_fract_x
  _atom_site_fract_y
  _atom_site_fract_z
  _atom_site_occupancy
  C   C1        1.0  0.00148  0.48127  0.29328  1.0000
  C   C2        1.0  0.00176  0.02253  0.29303  1.0000
  C   C3        1.0  0.00397  0.10510  0.32917  1.0000
  C   C4        1.0  0.00220  0.09032  0.24019  1.0000
  C   C5        1.0  0.00151  0.04964  0.22201  1.0000
  C   C6        1.0  0.00079  0.45389  0.22260  1.0000
  C   C7        1.0  0.99982  0.41325  0.24185  1.0000
  C   C8        1.0  0.99996  0.39921  0.33138  1.0000
  H   H1        1.0  0.11055  0.00491  0.03222  1.0000
  H   H2        1.0  0.04138  0.00348  0.06377  1.0000
  H   H3        1.0  0.46405  0.50340  0.06404  1.0000
  H   H4        1.0  0.39524  0.50326  0.03482  1.0000
  H   H5        1.0  0.00113  0.10915  0.18674  1.0000
  H   H6        1.0  0.00097  0.04035  0.15752  1.0000
  H   H7        1.0  0.00092  0.46301  0.15779  1.0000
  H   H8        1.0  0.99949  0.39384  0.18935  1.0000
  C   C9        1.0  0.00068  0.27355  0.36519  1.0000
  C   C10       1.0  0.47031  0.29214  0.31416  1.0000
  C   C11       1.0  0.47004  0.33374  0.30662  1.0000
  H   H9        1.0  0.44866  0.34696  0.26848  1.0000
  C   C12       1.0  0.00455  0.23145  0.36300  1.0000
  C   C13       1.0  0.00586  0.14702  0.34454  1.0000
  C   C14       1.0  0.02796  0.17182  0.28723  1.0000
  C   C15       1.0  0.02736  0.21342  0.29396  1.0000
  H   H10       1.0  0.04471  0.15928  0.23776  1.0000
  C   C16       1.0  0.05043  0.23548  0.22507  1.0000
  H   H11       1.0  0.04927  0.26740  0.23269  1.0000
  H   H12       1.0  0.03916  0.22841  0.15847  1.0000
  H   H13       1.0  0.08139  0.22676  0.22854  1.0000
  C   C17       1.0  0.43871  0.27063  0.26463  1.0000
  H   H14       1.0  0.40985  0.28048  0.28815  1.0000
  H   H15       1.0  0.43981  0.23873  0.27282  1.0000
  H   H16       1.0  0.44108  0.27696  0.19315  1.0000
  H   H17       1.0  0.27600  0.96524  0.06306  1.0000
  H   H18       1.0  0.29388  0.53423  0.32488  1.0000
  H   H19       1.0  0.22742  0.06330  0.02847  1.0000
  C   C18       1.0  0.00199  0.46811  0.38202  1.0000
  C   C19       1.0  0.00225  0.03608  0.38141  1.0000
  C   C20       1.0  0.00346  0.07704  0.40003  1.0000
  C   C21       1.0  0.00159  0.42729  0.40177  1.0000
  C   C22       1.0  0.03629  0.00238  0.50622  1.0000
  C   C23       1.0  0.02313  0.00291  0.59495  1.0000
  C   C24       1.0  0.48187  0.50265  0.59519  1.0000
  C   C25       1.0  0.46831  0.50218  0.50681  1.0000
  C   C26       1.0  0.45476  0.50288  0.66622  1.0000
  C   C27       1.0  0.41408  0.50219  0.64804  1.0000
  C   C28       1.0  0.39930  0.50043  0.55905  1.0000
  C   C29       1.0  0.42736  0.50095  0.48819  1.0000
  C   C30       1.0  0.07711  0.00277  0.48646  1.0000
  C   C31       1.0  0.10519  0.00443  0.55686  1.0000
  C   C32       1.0  0.09115  0.00458  0.64639  1.0000
  C   C33       1.0  0.05051  0.00360  0.66563  1.0000
  H   H20       1.0  0.41834  0.49944  0.42297  1.0000
  H   H21       1.0  0.08609  0.00298  0.42108  1.0000
  H   H22       1.0  0.00498  0.08606  0.46525  1.0000
  H   H23       1.0  0.00141  0.41831  0.46715  1.0000
  C   C34       1.0  0.00222  0.00218  0.44412  1.0000
  C   C35       1.0  0.99872  0.35768  0.34825  1.0000
  C   C36       1.0  0.02755  0.33892  0.40141  1.0000
  C   C37       1.0  0.02926  0.29732  0.41020  1.0000
  C   C38       1.0  0.48361  0.20710  0.42485  1.0000
  C   C39       1.0  0.48453  0.16554  0.41415  1.0000
  H   H24       1.0  0.46791  0.14845  0.45625  1.0000
  H   H25       1.0  0.04899  0.35584  0.43085  1.0000
  C   C40       1.0  0.45946  0.22273  0.50031  1.0000
  H   H26       1.0  0.46030  0.25475  0.50622  1.0000
  H   H27       1.0  0.97022  0.21051  0.56340  1.0000
  H   H28       1.0  0.42871  0.21400  0.49143  1.0000
  C   C41       1.0  0.06236  0.28108  0.46457  1.0000
  H   H29       1.0  0.09046  0.28943  0.43427  1.0000
  H   H30       1.0  0.06188  0.24906  0.47052  1.0000
  H   H31       1.0  0.06108  0.29321  0.53223  1.0000
  C   C42       1.0  0.14671  0.00567  0.53998  1.0000
  C   C43       1.0  0.17066  0.03435  0.58164  1.0000
  C   C44       1.0  0.21225  0.03409  0.57410  1.0000
  C   C45       1.0  0.23085  0.00372  0.52306  1.0000
  C   C46       1.0  0.20708  0.47514  0.47804  1.0000
  C   C47       1.0  0.16548  0.47685  0.48680  1.0000
  H   H32       1.0  0.14857  0.45542  0.45735  1.0000
  C   C48       1.0  0.27295  0.99986  0.52523  1.0000
  C   C49       1.0  0.29098  0.47702  0.59423  1.0000
  C   C50       1.0  0.33258  0.47643  0.60097  1.0000
  C   C51       1.0  0.35737  0.99855  0.54367  1.0000
  C   C52       1.0  0.33886  0.01990  0.47412  1.0000
  C   C53       1.0  0.29730  0.02083  0.46343  1.0000
  H   H33       1.0  0.34513  0.45968  0.65042  1.0000
  H   H34       1.0  0.35594  0.03652  0.43201  1.0000
  H   H35       1.0  0.15743  0.05573  0.61978  1.0000
  C   C54       1.0  0.26892  0.45397  0.66314  1.0000
  H   H36       1.0  0.23700  0.45513  0.65553  1.0000
  H   H37       1.0  0.27765  0.42300  0.65968  1.0000
  C   C55       1.0  0.28166  0.04498  0.38796  1.0000
  H   H38       1.0  0.24964  0.04412  0.38206  1.0000
  H   H39       1.0  0.29038  0.07573  0.39686  1.0000
  C   C56       1.0  0.22332  0.44205  0.42362  1.0000
  H   H40       1.0  0.21498  0.41395  0.45389  1.0000
  H   H41       1.0  0.25535  0.44254  0.41767  1.0000
  H   H42       1.0  0.21120  0.44335  0.35596  1.0000
  C   C57       1.0  0.23376  0.06568  0.62366  1.0000
  H   H43       1.0  0.22391  0.09454  0.60016  1.0000
  H   H44       1.0  0.26566  0.06458  0.61550  1.0000
  C   C58       1.0  0.00148  0.98127  0.29328  1.0000
  C   C59       1.0  0.00176  0.52253  0.29303  1.0000
  C   C60       1.0  0.00397  0.60510  0.32917  1.0000
  C   C61       1.0  0.00220  0.59032  0.24019  1.0000
  C   C62       1.0  0.00151  0.54964  0.22201  1.0000
  C   C63       1.0  0.00079  0.95389  0.22260  1.0000
  C   C64       1.0  0.99982  0.91325  0.24185  1.0000
  C   C65       1.0  0.99996  0.89921  0.33138  1.0000
  H   H45       1.0  0.11055  0.50491  0.03222  1.0000
  H   H46       1.0  0.04138  0.50348  0.06377  1.0000
  H   H47       1.0  0.46405  0.00340  0.06404  1.0000
  H   H48       1.0  0.39525  0.00326  0.03482  1.0000
  H   H49       1.0  0.00113  0.60915  0.18674  1.0000
  H   H50       1.0  0.00097  0.54035  0.15752  1.0000
  H   H51       1.0  0.00093  0.96301  0.15779  1.0000
  H   H52       1.0  0.99949  0.89385  0.18935  1.0000
  C   C66       1.0  0.00068  0.77355  0.36519  1.0000
  C   C67       1.0  0.47031  0.79214  0.31416  1.0000
  C   C68       1.0  0.47004  0.83374  0.30662  1.0000
  H   H53       1.0  0.44865  0.84696  0.26848  1.0000
  C   C69       1.0  0.00455  0.73145  0.36300  1.0000
  C   C70       1.0  0.00586  0.64702  0.34454  1.0000
  C   C71       1.0  0.02796  0.67182  0.28723  1.0000
  C   C72       1.0  0.02736  0.71342  0.29396  1.0000
  H   H54       1.0  0.04471  0.65928  0.23776  1.0000
  C   C73       1.0  0.05043  0.73548  0.22507  1.0000
  H   H55       1.0  0.04927  0.76740  0.23269  1.0000
  H   H56       1.0  0.03916  0.72841  0.15847  1.0000
  H   H57       1.0  0.08139  0.72676  0.22854  1.0000
  C   C74       1.0  0.43871  0.77063  0.26463  1.0000
  H   H58       1.0  0.40985  0.78048  0.28815  1.0000
  H   H59       1.0  0.43981  0.73873  0.27282  1.0000
  H   H60       1.0  0.44108  0.77696  0.19315  1.0000
  H   H61       1.0  0.27600  0.46524  0.06306  1.0000
  H   H62       1.0  0.29388  0.03423  0.32488  1.0000
  H   H63       1.0  0.22742  0.56330  0.02847  1.0000
  C   C75       1.0  0.00199  0.96811  0.38202  1.0000
  C   C76       1.0  0.00225  0.53608  0.38141  1.0000
  C   C77       1.0  0.00346  0.57704  0.40003  1.0000
  C   C78       1.0  0.00159  0.92728  0.40177  1.0000
  C   C79       1.0  0.03629  0.50238  0.50622  1.0000
  C   C80       1.0  0.02313  0.50291  0.59495  1.0000
  C   C81       1.0  0.48187  0.00265  0.59519  1.0000
  C   C82       1.0  0.46831  0.00218  0.50681  1.0000
  C   C83       1.0  0.45476  0.00287  0.66622  1.0000
  C   C84       1.0  0.41408  0.00219  0.64804  1.0000
  C   C85       1.0  0.39930  0.00044  0.55905  1.0000
  C   C86       1.0  0.42736  0.00095  0.48819  1.0000
  C   C87       1.0  0.07711  0.50277  0.48646  1.0000
  C   C88       1.0  0.10519  0.50443  0.55686  1.0000
  C   C89       1.0  0.09115  0.50457  0.64639  1.0000
  C   C90       1.0  0.05051  0.50360  0.66563  1.0000
  H   H64       1.0  0.41834  0.99944  0.42297  1.0000
  H   H65       1.0  0.08609  0.50298  0.42108  1.0000
  H   H66       1.0  0.00498  0.58606  0.46525  1.0000
  H   H67       1.0  0.00141  0.91831  0.46715  1.0000
  C   C91       1.0  0.00222  0.50218  0.44412  1.0000
  C   C92       1.0  0.99872  0.85769  0.34825  1.0000
  C   C93       1.0  0.02755  0.83892  0.40141  1.0000
  C   C94       1.0  0.02926  0.79733  0.41020  1.0000
  C   C95       1.0  0.48361  0.70710  0.42485  1.0000
  C   C96       1.0  0.48453  0.66554  0.41415  1.0000
  H   H68       1.0  0.46791  0.64845  0.45625  1.0000
  H   H69       1.0  0.04899  0.85584  0.43085  1.0000
  C   C97       1.0  0.45946  0.72273  0.50031  1.0000
  H   H70       1.0  0.46030  0.75475  0.50622  1.0000
  H   H71       1.0  0.97022  0.71052  0.56340  1.0000
  H   H72       1.0  0.42871  0.71400  0.49143  1.0000
  C   C98       1.0  0.06236  0.78109  0.46457  1.0000
  H   H73       1.0  0.09046  0.78943  0.43427  1.0000
  H   H74       1.0  0.06188  0.74906  0.47052  1.0000
  H   H75       1.0  0.06108  0.79321  0.53223  1.0000
  C   C99       1.0  0.14671  0.50567  0.53998  1.0000
  C   C100      1.0  0.17066  0.53435  0.58164  1.0000
  C   C101      1.0  0.21225  0.53409  0.57410  1.0000
  C   C102      1.0  0.23085  0.50372  0.52306  1.0000
  C   C103      1.0  0.20708  0.97514  0.47804  1.0000
  C   C104      1.0  0.16548  0.97685  0.48680  1.0000
  H   H76       1.0  0.14856  0.95542  0.45735  1.0000
  C   C105      1.0  0.27295  0.49986  0.52523  1.0000
  C   C106      1.0  0.29098  0.97702  0.59423  1.0000
  C   C107      1.0  0.33258  0.97643  0.60097  1.0000
  C   C108      1.0  0.35738  0.49855  0.54367  1.0000
  C   C109      1.0  0.33886  0.51990  0.47412  1.0000
  C   C110      1.0  0.29730  0.52083  0.46343  1.0000
  H   H77       1.0  0.34513  0.95968  0.65042  1.0000
  H   H78       1.0  0.35594  0.53652  0.43201  1.0000
  H   H79       1.0  0.15743  0.55573  0.61978  1.0000
  C   C111      1.0  0.26892  0.95396  0.66314  1.0000
  H   H80       1.0  0.23700  0.95512  0.65553  1.0000
  H   H81       1.0  0.27765  0.92300  0.65968  1.0000
  C   C112      1.0  0.28166  0.54498  0.38796  1.0000
  H   H82       1.0  0.24964  0.54412  0.38206  1.0000
  H   H83       1.0  0.29038  0.57573  0.39686  1.0000
  C   C113      1.0  0.22332  0.94205  0.42362  1.0000
  H   H84       1.0  0.21498  0.91395  0.45389  1.0000
  H   H85       1.0  0.25535  0.94254  0.41767  1.0000
  H   H86       1.0  0.21120  0.94335  0.35596  1.0000
  C   C114      1.0  0.23376  0.56568  0.62366  1.0000
  H   H87       1.0  0.22391  0.59454  0.60016  1.0000
  H   H88       1.0  0.26566  0.56458  0.61550  1.0000
  C   C115      1.0  0.50148  0.48127  0.29328  1.0000
  C   C116      1.0  0.50176  0.02253  0.29303  1.0000
  C   C117      1.0  0.50398  0.10510  0.32917  1.0000
  C   C118      1.0  0.50220  0.09032  0.24019  1.0000
  C   C119      1.0  0.50151  0.04964  0.22201  1.0000
  C   C120      1.0  0.50079  0.45389  0.22260  1.0000
  C   C121      1.0  0.49982  0.41325  0.24185  1.0000
  C   C122      1.0  0.49996  0.39921  0.33138  1.0000
  H   H89       1.0  0.61055  0.00491  0.03222  1.0000
  H   H90       1.0  0.54139  0.00348  0.06377  1.0000
  H   H91       1.0  0.96405  0.50340  0.06404  1.0000
  H   H92       1.0  0.89524  0.50326  0.03482  1.0000
  H   H93       1.0  0.50113  0.10915  0.18674  1.0000
  H   H94       1.0  0.50097  0.04035  0.15752  1.0000
  H   H95       1.0  0.50092  0.46301  0.15779  1.0000
  H   H96       1.0  0.49948  0.39384  0.18935  1.0000
  C   C123      1.0  0.50069  0.27355  0.36519  1.0000
  C   C124      1.0  0.97031  0.29214  0.31416  1.0000
  C   C125      1.0  0.97004  0.33374  0.30662  1.0000
  H   H97       1.0  0.94865  0.34696  0.26848  1.0000
  C   C126      1.0  0.50454  0.23145  0.36300  1.0000
  C   C127      1.0  0.50586  0.14702  0.34454  1.0000
  C   C128      1.0  0.52796  0.17182  0.28723  1.0000
  C   C129      1.0  0.52736  0.21342  0.29396  1.0000
  H   H98       1.0  0.54471  0.15928  0.23776  1.0000
  C   C130      1.0  0.55043  0.23548  0.22507  1.0000
  H   H99       1.0  0.54927  0.26740  0.23269  1.0000
  H   H100      1.0  0.53916  0.22841  0.15847  1.0000
  H   H101      1.0  0.58139  0.22676  0.22854  1.0000
  C   C131      1.0  0.93871  0.27063  0.26463  1.0000
  H   H102      1.0  0.90985  0.28048  0.28815  1.0000
  H   H103      1.0  0.93981  0.23873  0.27282  1.0000
  H   H104      1.0  0.94108  0.27696  0.19315  1.0000
  H   H105      1.0  0.77600  0.96524  0.06306  1.0000
  H   H106      1.0  0.79388  0.53423  0.32488  1.0000
  H   H107      1.0  0.72742  0.06330  0.02847  1.0000
  C   C132      1.0  0.50199  0.46811  0.38202  1.0000
  C   C133      1.0  0.50225  0.03608  0.38141  1.0000
  C   C134      1.0  0.50346  0.07704  0.40003  1.0000
  C   C135      1.0  0.50160  0.42729  0.40177  1.0000
  C   C136      1.0  0.53629  0.00238  0.50622  1.0000
  C   C137      1.0  0.52313  0.00291  0.59495  1.0000
  C   C138      1.0  0.98187  0.50265  0.59519  1.0000
  C   C139      1.0  0.96831  0.50218  0.50681  1.0000
  C   C140      1.0  0.95476  0.50288  0.66622  1.0000
  C   C141      1.0  0.91408  0.50219  0.64804  1.0000
  C   C142      1.0  0.89930  0.50043  0.55905  1.0000
  C   C143      1.0  0.92736  0.50095  0.48819  1.0000
  C   C144      1.0  0.57711  0.00277  0.48646  1.0000
  C   C145      1.0  0.60519  0.00443  0.55686  1.0000
  C   C146      1.0  0.59115  0.00458  0.64639  1.0000
  C   C147      1.0  0.55051  0.00360  0.66563  1.0000
  H   H108      1.0  0.91834  0.49944  0.42297  1.0000
  H   H109      1.0  0.58609  0.00298  0.42108  1.0000
  H   H110      1.0  0.50498  0.08606  0.46525  1.0000
  H   H111      1.0  0.50141  0.41831  0.46715  1.0000
  C   C148      1.0  0.50222  0.00218  0.44412  1.0000
  C   C149      1.0  0.49872  0.35768  0.34825  1.0000
  C   C150      1.0  0.52755  0.33892  0.40141  1.0000
  C   C151      1.0  0.52926  0.29732  0.41020  1.0000
  C   C152      1.0  0.98361  0.20710  0.42485  1.0000
  C   C153      1.0  0.98454  0.16554  0.41415  1.0000
  H   H112      1.0  0.96791  0.14845  0.45625  1.0000
  H   H113      1.0  0.54898  0.35584  0.43085  1.0000
  C   C154      1.0  0.95946  0.22273  0.50031  1.0000
  H   H114      1.0  0.96030  0.25475  0.50622  1.0000
  H   H115      1.0  0.47021  0.21051  0.56340  1.0000
  H   H116      1.0  0.92871  0.21400  0.49143  1.0000
  C   C155      1.0  0.56236  0.28108  0.46457  1.0000
  H   H117      1.0  0.59046  0.28943  0.43427  1.0000
  H   H118      1.0  0.56188  0.24906  0.47052  1.0000
  H   H119      1.0  0.56108  0.29321  0.53223  1.0000
  C   C156      1.0  0.64671  0.00567  0.53998  1.0000
  C   C157      1.0  0.67066  0.03435  0.58164  1.0000
  C   C158      1.0  0.71225  0.03409  0.57410  1.0000
  C   C159      1.0  0.73085  0.00372  0.52306  1.0000
  C   C160      1.0  0.70708  0.47514  0.47804  1.0000
  C   C161      1.0  0.66548  0.47685  0.48680  1.0000
  H   H120      1.0  0.64857  0.45542  0.45735  1.0000
  C   C162      1.0  0.77295  0.99986  0.52523  1.0000
  C   C163      1.0  0.79098  0.47702  0.59423  1.0000
  C   C164      1.0  0.83258  0.47643  0.60097  1.0000
  C   C165      1.0  0.85738  0.99855  0.54367  1.0000
  C   C166      1.0  0.83886  0.01990  0.47412  1.0000
  C   C167      1.0  0.79730  0.02083  0.46343  1.0000
  H   H121      1.0  0.84513  0.45968  0.65042  1.0000
  H   H122      1.0  0.85595  0.03652  0.43201  1.0000
  H   H123      1.0  0.65743  0.05573  0.61978  1.0000
  C   C168      1.0  0.76892  0.45397  0.66314  1.0000
  H   H124      1.0  0.73701  0.45513  0.65553  1.0000
  H   H125      1.0  0.77765  0.42300  0.65968  1.0000
  C   C169      1.0  0.78166  0.04498  0.38796  1.0000
  H   H126      1.0  0.74964  0.04412  0.38206  1.0000
  H   H127      1.0  0.79038  0.07573  0.39686  1.0000
  C   C170      1.0  0.72332  0.44205  0.42362  1.0000
  H   H128      1.0  0.71498  0.41395  0.45389  1.0000
  H   H129      1.0  0.75535  0.44254  0.41767  1.0000
  H   H130      1.0  0.71120  0.44335  0.35596  1.0000
  C   C171      1.0  0.73376  0.06568  0.62366  1.0000
  H   H131      1.0  0.72391  0.09454  0.60016  1.0000
  H   H132      1.0  0.76566  0.06458  0.61550  1.0000
  C   C172      1.0  0.50148  0.98127  0.29328  1.0000
  C   C173      1.0  0.50176  0.52253  0.29303  1.0000
  C   C174      1.0  0.50398  0.60510  0.32917  1.0000
  C   C175      1.0  0.50220  0.59032  0.24019  1.0000
  C   C176      1.0  0.50151  0.54964  0.22201  1.0000
  C   C177      1.0  0.50079  0.95389  0.22260  1.0000
  C   C178      1.0  0.49982  0.91325  0.24185  1.0000
  C   C179      1.0  0.49996  0.89921  0.33138  1.0000
  H   H133      1.0  0.61055  0.50491  0.03222  1.0000
  H   H134      1.0  0.54139  0.50348  0.06377  1.0000
  H   H135      1.0  0.96405  0.00340  0.06404  1.0000
  H   H136      1.0  0.89524  0.00326  0.03482  1.0000
  H   H137      1.0  0.50113  0.60915  0.18674  1.0000
  H   H138      1.0  0.50097  0.54035  0.15752  1.0000
  H   H139      1.0  0.50092  0.96301  0.15779  1.0000
  H   H140      1.0  0.49948  0.89385  0.18935  1.0000
  C   C180      1.0  0.50069  0.77355  0.36519  1.0000
  C   C181      1.0  0.97031  0.79214  0.31416  1.0000
  C   C182      1.0  0.97004  0.83374  0.30662  1.0000
  H   H141      1.0  0.94865  0.84696  0.26848  1.0000
  C   C183      1.0  0.50454  0.73145  0.36300  1.0000
  C   C184      1.0  0.50586  0.64702  0.34454  1.0000
  C   C185      1.0  0.52796  0.67182  0.28723  1.0000
  C   C186      1.0  0.52736  0.71342  0.29396  1.0000
  H   H142      1.0  0.54471  0.65928  0.23776  1.0000
  C   C187      1.0  0.55043  0.73548  0.22507  1.0000
  H   H143      1.0  0.54927  0.76740  0.23269  1.0000
  H   H144      1.0  0.53916  0.72841  0.15847  1.0000
  H   H145      1.0  0.58139  0.72676  0.22854  1.0000
  C   C188      1.0  0.93871  0.77063  0.26463  1.0000
  H   H146      1.0  0.90985  0.78048  0.28815  1.0000
  H   H147      1.0  0.93981  0.73873  0.27282  1.0000
  H   H148      1.0  0.94108  0.77696  0.19315  1.0000
  H   H149      1.0  0.77600  0.46524  0.06306  1.0000
  H   H150      1.0  0.79388  0.03423  0.32488  1.0000
  H   H151      1.0  0.72742  0.56330  0.02847  1.0000
  C   C189      1.0  0.50199  0.96811  0.38202  1.0000
  C   C190      1.0  0.50225  0.53608  0.38141  1.0000
  C   C191      1.0  0.50346  0.57704  0.40003  1.0000
  C   C192      1.0  0.50159  0.92728  0.40177  1.0000
  C   C193      1.0  0.53629  0.50238  0.50622  1.0000
  C   C194      1.0  0.52313  0.50291  0.59495  1.0000
  C   C195      1.0  0.98187  0.00265  0.59519  1.0000
  C   C196      1.0  0.96831  0.00218  0.50681  1.0000
  C   C197      1.0  0.95476  0.00287  0.66622  1.0000
  C   C198      1.0  0.91408  0.00219  0.64804  1.0000
  C   C199      1.0  0.89930  0.00044  0.55905  1.0000
  C   C200      1.0  0.92736  0.00095  0.48819  1.0000
  C   C201      1.0  0.57711  0.50277  0.48646  1.0000
  C   C202      1.0  0.60519  0.50443  0.55686  1.0000
  C   C203      1.0  0.59115  0.50457  0.64639  1.0000
  C   C204      1.0  0.55051  0.50360  0.66563  1.0000
  H   H152      1.0  0.91834  0.99944  0.42297  1.0000
  H   H153      1.0  0.58609  0.50298  0.42108  1.0000
  H   H154      1.0  0.50498  0.58606  0.46525  1.0000
  H   H155      1.0  0.50141  0.91831  0.46715  1.0000
  C   C205      1.0  0.50222  0.50218  0.44412  1.0000
  C   C206      1.0  0.49872  0.85769  0.34825  1.0000
  C   C207      1.0  0.52755  0.83892  0.40141  1.0000
  C   C208      1.0  0.52926  0.79733  0.41020  1.0000
  C   C209      1.0  0.98361  0.70710  0.42485  1.0000
  C   C210      1.0  0.98454  0.66554  0.41415  1.0000
  H   H156      1.0  0.96791  0.64845  0.45625  1.0000
  H   H157      1.0  0.54898  0.85584  0.43085  1.0000
  C   C211      1.0  0.95946  0.72273  0.50031  1.0000
  H   H158      1.0  0.96030  0.75475  0.50622  1.0000
  H   H159      1.0  0.47021  0.71052  0.56340  1.0000
  H   H160      1.0  0.92871  0.71400  0.49143  1.0000
  C   C212      1.0  0.56236  0.78109  0.46457  1.0000
  H   H161      1.0  0.59046  0.78943  0.43427  1.0000
  H   H162      1.0  0.56188  0.74906  0.47052  1.0000
  H   H163      1.0  0.56108  0.79321  0.53223  1.0000
  C   C213      1.0  0.64671  0.50567  0.53998  1.0000
  C   C214      1.0  0.67066  0.53435  0.58164  1.0000
  C   C215      1.0  0.71225  0.53409  0.57410  1.0000
  C   C216      1.0  0.73085  0.50372  0.52306  1.0000
  C   C217      1.0  0.70708  0.97514  0.47804  1.0000
  C   C218      1.0  0.66548  0.97685  0.48680  1.0000
  H   H164      1.0  0.64857  0.95542  0.45735  1.0000
  C   C219      1.0  0.77295  0.49986  0.52523  1.0000
  C   C220      1.0  0.79098  0.97702  0.59423  1.0000
  C   C221      1.0  0.83258  0.97643  0.60097  1.0000
  C   C222      1.0  0.85738  0.49855  0.54367  1.0000
  C   C223      1.0  0.83886  0.51990  0.47412  1.0000
  C   C224      1.0  0.79730  0.52083  0.46343  1.0000
  H   H165      1.0  0.84513  0.95968  0.65042  1.0000
  H   H166      1.0  0.85595  0.53652  0.43201  1.0000
  H   H167      1.0  0.65743  0.55573  0.61978  1.0000
  C   C225      1.0  0.76892  0.95396  0.66314  1.0000
  H   H168      1.0  0.73701  0.95512  0.65553  1.0000
  H   H169      1.0  0.77765  0.92300  0.65968  1.0000
  C   C226      1.0  0.78166  0.54498  0.38796  1.0000
  H   H170      1.0  0.74964  0.54412  0.38206  1.0000
  H   H171      1.0  0.79038  0.57573  0.39686  1.0000
  C   C227      1.0  0.72332  0.94205  0.42362  1.0000
  H   H172      1.0  0.71498  0.91395  0.45389  1.0000
  H   H173      1.0  0.75535  0.94254  0.41767  1.0000
  H   H174      1.0  0.71120  0.94335  0.35596  1.0000
  C   C228      1.0  0.73376  0.56568  0.62366  1.0000
  H   H175      1.0  0.72391  0.59454  0.60016  1.0000
  H   H176      1.0  0.76566  0.56458  0.61550  1.0000
