data_image0
_chemical_formula_structural       C16H16C16H16C16H16C2NHCHC2NHCHC2NHCHC2NHCHC2NHCHC2NHCHC3NC3NC5NC5NC36H26N4C3NC3NC5NC5NC36H26N4C3NC3NC5NC5NC36H26N4C2NOCH3CHC2NOCH3CHC2NOCH3CHC2NOCH3CHC2NOCH3CHC2NOCH3CH
_chemical_formula_sum              "C246 H162 N36 O6"
_cell_length_a       67.5223
_cell_length_b       67.5224
_cell_length_c       14.8952
_cell_angle_alpha    89.8352
_cell_angle_beta     90.1648
_cell_angle_gamma    120

_space_group_name_H-M_alt    "P 1"
_space_group_IT_number       1

loop_
  _space_group_symop_operation_xyz
  'x, y, z'

loop_
  _atom_site_type_symbol
  _atom_site_label
  _atom_site_symmetry_multiplicity
  _atom_site_fract_x
  _atom_site_fract_y
  _atom_site_fract_z
  _atom_site_occupancy
  C   C1        1.0  0.10387  0.53823  0.27878  1.0000
  C   C2        1.0  0.12235  0.53410  0.27963  1.0000
  C   C3        1.0  0.18992  0.53948  0.30385  1.0000
  C   C4        1.0  0.17015  0.54150  0.30114  1.0000
  C   C5        1.0  0.10473  0.65570  0.27691  1.0000
  C   C6        1.0  0.12323  0.67831  0.27688  1.0000
  C   C7        1.0  0.15471  0.72951  0.29496  1.0000
  C   C8        1.0  0.17429  0.75147  0.29301  1.0000
  C   C9        1.0  0.94769  0.59176  0.27937  1.0000
  C   C10       1.0  0.96601  0.58737  0.27851  1.0000
  C   C11       1.0  0.90023  0.58511  0.30160  1.0000
  C   C12       1.0  0.88070  0.58755  0.30424  1.0000
  C   C13       1.0  0.96500  0.47008  0.27685  1.0000
  C   C14       1.0  0.94635  0.44756  0.27687  1.0000
  C   C15       1.0  0.89452  0.37463  0.29265  1.0000
  C   C16       1.0  0.91432  0.39643  0.29460  1.0000
  H   H1        1.0  0.89323  0.36308  0.24535  1.0000
  H   H2        1.0  0.92697  0.39989  0.24909  1.0000
  H   H3        1.0  0.93933  0.44024  0.21639  1.0000
  H   H4        1.0  0.97107  0.47836  0.21689  1.0000
  H   H5        1.0  0.97207  0.58542  0.21822  1.0000
  H   H6        1.0  0.94128  0.59329  0.21910  1.0000
  H   H7        1.0  0.09856  0.64751  0.21693  1.0000
  H   H8        1.0  0.13005  0.68576  0.21635  1.0000
  H   H9        1.0  0.17526  0.76303  0.24608  1.0000
  H   H10       1.0  0.14191  0.72593  0.24984  1.0000
  H   H11       1.0  0.16967  0.55268  0.25590  1.0000
  H   H12       1.0  0.20298  0.54912  0.26054  1.0000
  H   H13       1.0  0.12867  0.53255  0.21935  1.0000
  H   H14       1.0  0.09762  0.54003  0.21847  1.0000
  H   H15       1.0  0.90038  0.57374  0.25681  1.0000
  H   H16       1.0  0.86747  0.57797  0.26142  1.0000
  C   C17       1.0  0.56120  0.65960  0.28097  1.0000
  C   C18       1.0  0.56534  0.68222  0.28182  1.0000
  C   C19       1.0  0.55997  0.74438  0.30599  1.0000
  C   C20       1.0  0.55792  0.72258  0.30336  1.0000
  C   C21       1.0  0.44375  0.54299  0.27874  1.0000
  C   C22       1.0  0.42114  0.53886  0.27854  1.0000
  C   C23       1.0  0.36994  0.51911  0.29626  1.0000
  C   C24       1.0  0.34798  0.51673  0.29409  1.0000
  C   C25       1.0  0.50768  0.44990  0.28155  1.0000
  C   C26       1.0  0.51206  0.47261  0.28069  1.0000
  C   C27       1.0  0.51430  0.40903  0.30377  1.0000
  C   C28       1.0  0.51187  0.38707  0.30647  1.0000
  C   C29       1.0  0.62932  0.58889  0.27868  1.0000
  C   C30       1.0  0.65185  0.59279  0.27852  1.0000
  C   C31       1.0  0.72477  0.61386  0.29372  1.0000
  C   C32       1.0  0.70298  0.61186  0.29588  1.0000
  H   H17       1.0  0.73630  0.62419  0.24635  1.0000
  H   H18       1.0  0.69949  0.62111  0.25047  1.0000
  H   H19       1.0  0.65914  0.59315  0.21799  1.0000
  H   H20       1.0  0.62102  0.58677  0.21877  1.0000
  H   H21       1.0  0.51403  0.48070  0.22040  1.0000
  H   H22       1.0  0.50615  0.44203  0.22127  1.0000
  H   H23       1.0  0.45196  0.54506  0.21883  1.0000
  H   H24       1.0  0.41371  0.53829  0.21795  1.0000
  H   H25       1.0  0.33644  0.50621  0.24709  1.0000
  H   H26       1.0  0.37354  0.50994  0.25123  1.0000
  H   H27       1.0  0.54676  0.71099  0.25804  1.0000
  H   H28       1.0  0.55032  0.74784  0.26269  1.0000
  H   H29       1.0  0.56689  0.69016  0.22154  1.0000
  H   H30       1.0  0.55940  0.65163  0.22066  1.0000
  H   H31       1.0  0.52569  0.42063  0.25904  1.0000
  H   H32       1.0  0.52147  0.38348  0.26369  1.0000
  C   C33       1.0  0.43989  0.99562  0.28187  1.0000
  C   C34       1.0  0.41728  0.97713  0.28238  1.0000
  C   C35       1.0  0.35511  0.90955  0.30553  1.0000
  C   C36       1.0  0.37690  0.92932  0.30320  1.0000
  C   C37       1.0  0.55646  0.99472  0.28058  1.0000
  C   C38       1.0  0.56060  0.97624  0.28046  1.0000
  C   C39       1.0  0.58034  0.94477  0.29835  1.0000
  C   C40       1.0  0.58273  0.92520  0.29623  1.0000
  C   C41       1.0  0.64946  0.15167  0.28207  1.0000
  C   C42       1.0  0.62675  0.13336  0.28155  1.0000
  C   C43       1.0  0.69034  0.19915  0.30357  1.0000
  C   C44       1.0  0.71231  0.21867  0.30588  1.0000
  C   C45       1.0  0.51053  0.13440  0.28051  1.0000
  C   C46       1.0  0.50663  0.15303  0.28043  1.0000
  C   C47       1.0  0.48556  0.20485  0.29585  1.0000
  C   C48       1.0  0.48756  0.18506  0.29796  1.0000
  H   H33       1.0  0.47522  0.20611  0.24852  1.0000
  H   H34       1.0  0.47831  0.17239  0.25254  1.0000
  H   H35       1.0  0.50626  0.16003  0.21991  1.0000
  H   H36       1.0  0.51264  0.12830  0.22057  1.0000
  H   H37       1.0  0.61862  0.12726  0.22136  1.0000
  H   H38       1.0  0.65728  0.15804  0.22167  1.0000
  H   H39       1.0  0.55438  0.00092  0.22064  1.0000
  H   H40       1.0  0.56116  0.96944  0.21990  1.0000
  H   H41       1.0  0.59325  0.92424  0.24926  1.0000
  H   H42       1.0  0.58951  0.95759  0.25330  1.0000
  H   H43       1.0  0.38854  0.92983  0.25806  1.0000
  H   H44       1.0  0.35167  0.89652  0.26212  1.0000
  H   H45       1.0  0.40939  0.97086  0.22199  1.0000
  H   H46       1.0  0.44792  0.00189  0.22168  1.0000
  H   H47       1.0  0.67871  0.19897  0.25899  1.0000
  H   H48       1.0  0.71586  0.23189  0.26300  1.0000
  C   C49       1.0  0.24599  0.52497  0.34577  1.0000
  C   C50       1.0  0.25996  0.52352  0.27825  1.0000
  N   N1        1.0  0.27984  0.52413  0.29929  1.0000
  H   H49       1.0  0.25567  0.52257  0.21186  1.0000
  C   C51       1.0  0.22672  0.52637  0.32147  1.0000
  H   H50       1.0  0.22519  0.52990  0.25779  1.0000
  C   C52       1.0  0.57446  0.81490  0.34796  1.0000
  C   C53       1.0  0.57592  0.83040  0.28044  1.0000
  N   N2        1.0  0.57531  0.84964  0.30148  1.0000
  H   H51       1.0  0.57687  0.82715  0.21405  1.0000
  C   C54       1.0  0.57307  0.79427  0.32367  1.0000
  H   H52       1.0  0.56955  0.78929  0.25997  1.0000
  C   C55       1.0  0.28454  0.85344  0.34634  1.0000
  C   C56       1.0  0.26911  0.83952  0.27854  1.0000
  N   N3        1.0  0.24985  0.81962  0.29924  1.0000
  H   H53       1.0  0.27244  0.84386  0.21221  1.0000
  C   C57       1.0  0.30520  0.87273  0.32240  1.0000
  H   H54       1.0  0.31024  0.87432  0.25877  1.0000
  C   C58       1.0  0.82560  0.60343  0.34559  1.0000
  C   C59       1.0  0.81172  0.60518  0.27805  1.0000
  N   N4        1.0  0.79209  0.60503  0.29914  1.0000
  H   H55       1.0  0.81587  0.60600  0.21164  1.0000
  C   C60       1.0  0.84457  0.60156  0.32132  1.0000
  H   H56       1.0  0.84585  0.59781  0.25781  1.0000
  C   C61       1.0  0.49599  0.31604  0.34782  1.0000
  C   C62       1.0  0.49424  0.30050  0.28027  1.0000
  N   N5        1.0  0.49440  0.28100  0.30134  1.0000
  H   H57       1.0  0.49342  0.30392  0.21385  1.0000
  C   C63       1.0  0.49786  0.33692  0.32355  1.0000
  H   H58       1.0  0.50160  0.34202  0.26003  1.0000
  C   C64       1.0  0.78337  0.27381  0.34614  1.0000
  C   C65       1.0  0.79885  0.28764  0.27835  1.0000
  N   N6        1.0  0.81837  0.30729  0.29910  1.0000
  H   H59       1.0  0.79538  0.28344  0.21199  1.0000
  C   C66       1.0  0.76249  0.25481  0.32221  1.0000
  H   H60       1.0  0.75734  0.25346  0.25873  1.0000
  C   C67       1.0  0.02263  0.49432  0.35878  1.0000
  C   C68       1.0  0.04626  0.50597  0.35905  1.0000
  C   C69       1.0  0.05395  0.52941  0.35911  1.0000
  N   N7        1.0  0.03473  0.53106  0.35892  1.0000
  C   C70       1.0  0.01531  0.51036  0.35877  1.0000
  C   C71       1.0  0.99206  0.50500  0.35866  1.0000
  C   C72       1.0  0.98476  0.52143  0.35880  1.0000
  N   N8        1.0  0.99782  0.54450  0.35879  1.0000
  C   C73       1.0  0.98504  0.55480  0.35905  1.0000
  C   C74       1.0  0.96226  0.53717  0.35926  1.0000
  C   C75       1.0  0.96209  0.51665  0.35907  1.0000
  C   C76       1.0  0.99269  0.57861  0.35913  1.0000
  C   C77       1.0  0.01605  0.59622  0.35897  1.0000
  N   N9        1.0  0.03527  0.59457  0.35888  1.0000
  C   C78       1.0  0.05469  0.61526  0.35876  1.0000
  C   C79       1.0  0.04737  0.63131  0.35870  1.0000
  C   C80       1.0  0.02374  0.61966  0.35887  1.0000
  C   C81       1.0  0.07794  0.62063  0.35873  1.0000
  C   C82       1.0  0.08525  0.60420  0.35891  1.0000
  N   N10       1.0  0.07218  0.58114  0.35897  1.0000
  C   C83       1.0  0.08497  0.57083  0.35922  1.0000
  C   C84       1.0  0.10774  0.58847  0.35930  1.0000
  C   C85       1.0  0.10792  0.60899  0.35909  1.0000
  C   C86       1.0  0.07732  0.54702  0.35934  1.0000
  C   C87       1.0  0.09449  0.54056  0.35996  1.0000
  C   C88       1.0  0.13218  0.53227  0.36132  1.0000
  C   C89       1.0  0.12234  0.53429  0.44233  1.0000
  C   C90       1.0  0.10386  0.53843  0.44181  1.0000
  C   C91       1.0  0.15187  0.52940  0.36215  1.0000
  C   C92       1.0  0.15428  0.51509  0.42585  1.0000
  C   C93       1.0  0.17409  0.51312  0.42890  1.0000
  C   C94       1.0  0.19212  0.52511  0.36753  1.0000
  C   C95       1.0  0.09535  0.64415  0.35854  1.0000
  C   C96       1.0  0.13302  0.69011  0.35816  1.0000
  C   C97       1.0  0.12322  0.67838  0.43962  1.0000
  C   C98       1.0  0.10474  0.65577  0.43999  1.0000
  C   C99       1.0  0.15257  0.71275  0.35789  1.0000
  C   C100      1.0  0.19231  0.75761  0.35471  1.0000
  C   C101      1.0  0.19040  0.74098  0.41744  1.0000
  C   C102      1.0  0.17088  0.71901  0.41906  1.0000
  C   C103      1.0  0.97554  0.58509  0.35970  1.0000
  C   C104      1.0  0.96647  0.58751  0.44156  1.0000
  C   C105      1.0  0.94816  0.59189  0.44207  1.0000
  C   C106      1.0  0.93819  0.59390  0.36108  1.0000
  C   C107      1.0  0.91872  0.59713  0.36195  1.0000
  C   C108      1.0  0.87896  0.60222  0.36728  1.0000
  C   C109      1.0  0.89720  0.61413  0.42802  1.0000
  C   C110      1.0  0.91678  0.61177  0.42500  1.0000
  C   C111      1.0  0.97463  0.48148  0.35846  1.0000
  C   C112      1.0  0.96536  0.46978  0.43991  1.0000
  C   C113      1.0  0.93665  0.43570  0.35817  1.0000
  C   C114      1.0  0.94672  0.44725  0.43959  1.0000
  C   C115      1.0  0.91689  0.41319  0.35798  1.0000
  C   C116      1.0  0.89876  0.40709  0.41960  1.0000
  C   C117      1.0  0.87902  0.38528  0.41802  1.0000
  C   C118      1.0  0.87668  0.36865  0.35484  1.0000
  H   H61       1.0  0.86608  0.38187  0.46191  1.0000
  H   H62       1.0  0.89938  0.41879  0.46471  1.0000
  H   H63       1.0  0.94051  0.43936  0.50005  1.0000
  H   H64       1.0  0.97182  0.47775  0.50005  1.0000
  H   H65       1.0  0.01262  0.47691  0.35870  1.0000
  H   H66       1.0  0.05603  0.49831  0.35914  1.0000
  H   H67       1.0  0.03486  0.54534  0.35899  1.0000
  H   H68       1.0  0.03514  0.58029  0.35899  1.0000
  H   H69       1.0  0.94762  0.50093  0.35924  1.0000
  H   H70       1.0  0.94794  0.53867  0.35952  1.0000
  H   H71       1.0  0.97274  0.58546  0.50138  1.0000
  H   H72       1.0  0.94154  0.59265  0.50281  1.0000
  H   H73       1.0  0.01397  0.62733  0.35887  1.0000
  H   H74       1.0  0.05737  0.64872  0.35862  1.0000
  H   H75       1.0  0.12207  0.58697  0.35945  1.0000
  H   H76       1.0  0.12239  0.62471  0.35911  1.0000
  H   H77       1.0  0.09844  0.64770  0.50013  1.0000
  H   H78       1.0  0.12950  0.68621  0.50006  1.0000
  H   H79       1.0  0.17056  0.70734  0.46382  1.0000
  H   H80       1.0  0.20348  0.74453  0.46104  1.0000
  H   H81       1.0  0.09773  0.54057  0.50162  1.0000
  H   H82       1.0  0.12919  0.53378  0.50302  1.0000
  H   H83       1.0  0.17529  0.50284  0.47668  1.0000
  H   H84       1.0  0.14153  0.50584  0.47100  1.0000
  H   H85       1.0  0.92970  0.62096  0.46963  1.0000
  H   H86       1.0  0.89634  0.62465  0.47531  1.0000
  N   N11       1.0  0.21100  0.52363  0.37719  1.0000
  N   N12       1.0  0.85787  0.34816  0.34718  1.0000
  N   N13       1.0  0.86033  0.60413  0.37689  1.0000
  N   N14       1.0  0.21088  0.77829  0.34718  1.0000
  C   C119      1.0  0.60510  0.62217  0.36086  1.0000
  C   C120      1.0  0.59345  0.63416  0.36117  1.0000
  C   C121      1.0  0.57001  0.61841  0.36128  1.0000
  N   N15       1.0  0.56836  0.59754  0.36109  1.0000
  C   C122      1.0  0.58906  0.59881  0.36087  1.0000
  C   C123      1.0  0.59443  0.58092  0.36073  1.0000
  C   C124      1.0  0.57799  0.55719  0.36091  1.0000
  N   N16       1.0  0.55493  0.54719  0.36094  1.0000
  C   C125      1.0  0.54463  0.52410  0.36122  1.0000
  C   C126      1.0  0.56227  0.51896  0.36141  1.0000
  C   C127      1.0  0.58279  0.53931  0.36118  1.0000
  C   C128      1.0  0.52082  0.50794  0.36132  1.0000
  C   C129      1.0  0.50321  0.51369  0.36114  1.0000
  N   N17       1.0  0.50486  0.53456  0.36105  1.0000
  C   C130      1.0  0.48416  0.53329  0.36086  1.0000
  C   C131      1.0  0.46812  0.50992  0.36076  1.0000
  C   C132      1.0  0.47977  0.49794  0.36097  1.0000
  C   C133      1.0  0.47880  0.55117  0.36081  1.0000
  C   C134      1.0  0.49522  0.57490  0.36103  1.0000
  N   N18       1.0  0.51828  0.58490  0.36113  1.0000
  C   C135      1.0  0.52859  0.60799  0.36139  1.0000
  C   C136      1.0  0.51095  0.61312  0.36146  1.0000
  C   C137      1.0  0.49043  0.59277  0.36122  1.0000
  C   C138      1.0  0.55240  0.62415  0.36152  1.0000
  C   C139      1.0  0.55886  0.64778  0.36215  1.0000
  C   C140      1.0  0.56716  0.69376  0.36351  1.0000
  C   C141      1.0  0.56511  0.68179  0.44452  1.0000
  C   C142      1.0  0.56100  0.65918  0.44401  1.0000
  C   C143      1.0  0.57004  0.71633  0.36432  1.0000
  C   C144      1.0  0.58434  0.73296  0.42806  1.0000
  C   C145      1.0  0.58631  0.75474  0.43110  1.0000
  C   C146      1.0  0.57432  0.76085  0.36969  1.0000
  C   C147      1.0  0.45527  0.54505  0.36046  1.0000
  C   C148      1.0  0.40931  0.53676  0.35973  1.0000
  C   C149      1.0  0.42101  0.53860  0.44128  1.0000
  C   C150      1.0  0.44362  0.54272  0.44182  1.0000
  C   C151      1.0  0.38666  0.53366  0.35926  1.0000
  C   C152      1.0  0.34180  0.52854  0.35566  1.0000
  C   C153      1.0  0.35840  0.54316  0.41852  1.0000
  C   C154      1.0  0.38037  0.54563  0.42027  1.0000
  C   C155      1.0  0.51434  0.48431  0.36188  1.0000
  C   C156      1.0  0.51192  0.47272  0.44374  1.0000
  C   C157      1.0  0.50755  0.45002  0.44425  1.0000
  C   C158      1.0  0.50553  0.43815  0.36326  1.0000
  C   C159      1.0  0.50228  0.41544  0.36412  1.0000
  C   C160      1.0  0.49720  0.37058  0.36953  1.0000
  C   C161      1.0  0.48528  0.37683  0.43022  1.0000
  C   C162      1.0  0.48765  0.39879  0.42718  1.0000
  C   C163      1.0  0.61795  0.58702  0.36038  1.0000
  C   C164      1.0  0.62968  0.58934  0.44175  1.0000
  C   C165      1.0  0.66374  0.59483  0.35974  1.0000
  C   C166      1.0  0.65222  0.59324  0.44125  1.0000
  C   C167      1.0  0.68625  0.59759  0.35935  1.0000
  C   C168      1.0  0.69238  0.58548  0.42085  1.0000
  C   C169      1.0  0.71419  0.58755  0.41905  1.0000
  C   C170      1.0  0.73079  0.60193  0.35577  1.0000
  H   H87       1.0  0.71762  0.57796  0.46285  1.0000
  H   H88       1.0  0.68071  0.57434  0.46601  1.0000
  H   H89       1.0  0.66012  0.59483  0.50164  1.0000
  H   H90       1.0  0.62174  0.58775  0.50193  1.0000
  H   H91       1.0  0.62252  0.62958  0.36073  1.0000
  H   H92       1.0  0.60111  0.65159  0.36123  1.0000
  H   H93       1.0  0.55409  0.58338  0.36118  1.0000
  H   H94       1.0  0.51914  0.54871  0.36122  1.0000
  H   H95       1.0  0.59850  0.54055  0.36131  1.0000
  H   H96       1.0  0.56076  0.50313  0.36167  1.0000
  H   H97       1.0  0.51396  0.48096  0.50356  1.0000
  H   H98       1.0  0.50676  0.44256  0.50499  1.0000
  H   H99       1.0  0.47210  0.48050  0.36095  1.0000
  H   H100      1.0  0.45071  0.50251  0.36063  1.0000
  H   H101      1.0  0.51244  0.62895  0.36162  1.0000
  H   H102      1.0  0.47471  0.59153  0.36121  1.0000
  H   H103      1.0  0.45167  0.54442  0.50202  1.0000
  H   H104      1.0  0.41315  0.53697  0.50166  1.0000
  H   H105      1.0  0.39202  0.55692  0.46515  1.0000
  H   H106      1.0  0.35483  0.55265  0.46200  1.0000
  H   H107      1.0  0.55885  0.65084  0.50381  1.0000
  H   H108      1.0  0.56565  0.68909  0.50522  1.0000
  H   H109      1.0  0.59658  0.76616  0.47891  1.0000
  H   H110      1.0  0.59358  0.72939  0.47322  1.0000
  H   H111      1.0  0.47845  0.40246  0.47181  1.0000
  H   H112      1.0  0.47477  0.36540  0.47753  1.0000
  N   N19       1.0  0.57580  0.78120  0.37938  1.0000
  N   N20       1.0  0.75127  0.60361  0.34786  1.0000
  N   N21       1.0  0.49529  0.35003  0.37913  1.0000
  N   N22       1.0  0.32113  0.52644  0.34788  1.0000
  C   C171      1.0  0.47726  0.07679  0.36243  1.0000
  C   C172      1.0  0.46527  0.05315  0.36261  1.0000
  C   C173      1.0  0.48102  0.04546  0.36273  1.0000
  N   N23       1.0  0.50189  0.06469  0.36268  1.0000
  C   C174      1.0  0.50062  0.08411  0.36252  1.0000
  C   C175      1.0  0.51851  0.10736  0.36246  1.0000
  C   C176      1.0  0.54224  0.11466  0.36257  1.0000
  N   N24       1.0  0.55224  0.10160  0.36252  1.0000
  C   C177      1.0  0.57533  0.11438  0.36268  1.0000
  C   C178      1.0  0.58047  0.13716  0.36287  1.0000
  C   C179      1.0  0.56012  0.13733  0.36277  1.0000
  C   C180      1.0  0.59149  0.10673  0.36267  1.0000
  C   C181      1.0  0.58574  0.08337  0.36259  1.0000
  N   N25       1.0  0.56487  0.06415  0.36265  1.0000
  C   C182      1.0  0.56614  0.04473  0.36250  1.0000
  C   C183      1.0  0.58950  0.05205  0.36234  1.0000
  C   C184      1.0  0.60149  0.07568  0.36240  1.0000
  C   C185      1.0  0.54825  0.02148  0.36254  1.0000
  C   C186      1.0  0.52452  0.01417  0.36269  1.0000
  N   N26       1.0  0.51452  0.02724  0.36272  1.0000
  C   C187      1.0  0.49144  0.01445  0.36287  1.0000
  C   C188      1.0  0.48630  0.99168  0.36293  1.0000
  C   C189      1.0  0.50665  0.99151  0.36282  1.0000
  C   C190      1.0  0.47527  0.02210  0.36289  1.0000
  C   C191      1.0  0.45164  0.00493  0.36323  1.0000
  C   C192      1.0  0.40566  0.96725  0.36390  1.0000
  C   C193      1.0  0.41756  0.97701  0.44508  1.0000
  C   C194      1.0  0.44018  0.99551  0.44491  1.0000
  C   C195      1.0  0.38309  0.94755  0.36436  1.0000
  C   C196      1.0  0.36641  0.94510  0.42790  1.0000
  C   C197      1.0  0.34462  0.92528  0.43059  1.0000
  C   C198      1.0  0.33857  0.90730  0.36904  1.0000
  C   C199      1.0  0.55437  0.00407  0.36226  1.0000
  C   C200      1.0  0.56268  0.96642  0.36169  1.0000
  C   C201      1.0  0.56083  0.97618  0.44320  1.0000
  C   C202      1.0  0.55670  0.99466  0.44367  1.0000
  C   C203      1.0  0.56579  0.94687  0.36130  1.0000
  C   C204      1.0  0.57091  0.90714  0.35781  1.0000
  C   C205      1.0  0.55628  0.90903  0.42063  1.0000
  C   C206      1.0  0.55382  0.92854  0.42238  1.0000
  C   C207      1.0  0.61512  0.12388  0.36290  1.0000
  C   C208      1.0  0.62678  0.13300  0.44459  1.0000
  C   C209      1.0  0.64948  0.15133  0.44477  1.0000
  C   C210      1.0  0.66128  0.16123  0.36361  1.0000
  C   C211      1.0  0.68399  0.18070  0.36412  1.0000
  C   C212      1.0  0.72886  0.22045  0.36870  1.0000
  C   C213      1.0  0.72265  0.20227  0.42967  1.0000
  C   C214      1.0  0.70070  0.18269  0.42701  1.0000
  C   C215      1.0  0.51241  0.12479  0.36216  1.0000
  C   C216      1.0  0.51010  0.13409  0.44357  1.0000
  C   C217      1.0  0.50461  0.16277  0.36168  1.0000
  C   C218      1.0  0.50621  0.15273  0.44316  1.0000
  C   C219      1.0  0.50185  0.18253  0.36137  1.0000
  C   C220      1.0  0.51396  0.20068  0.42288  1.0000
  C   C221      1.0  0.51190  0.22043  0.42108  1.0000
  C   C222      1.0  0.49750  0.22272  0.35790  1.0000
  H   H113      1.0  0.52148  0.23338  0.46493  1.0000
  H   H114      1.0  0.52511  0.20009  0.46799  1.0000
  H   H115      1.0  0.50464  0.15897  0.50357  1.0000
  H   H116      1.0  0.51171  0.12766  0.50373  1.0000
  H   H117      1.0  0.46985  0.08679  0.36231  1.0000
  H   H118      1.0  0.44784  0.04338  0.36259  1.0000
  H   H119      1.0  0.51605  0.06456  0.36281  1.0000
  H   H120      1.0  0.55071  0.06428  0.36285  1.0000
  H   H121      1.0  0.55888  0.15181  0.36293  1.0000
  H   H122      1.0  0.59630  0.15148  0.36306  1.0000
  H   H123      1.0  0.61858  0.12679  0.50454  1.0000
  H   H124      1.0  0.65698  0.15799  0.50540  1.0000
  H   H125      1.0  0.61892  0.08545  0.36229  1.0000
  H   H126      1.0  0.59691  0.04205  0.36221  1.0000
  H   H127      1.0  0.47047  0.97735  0.36301  1.0000
  H   H128      1.0  0.50789  0.97703  0.36283  1.0000
  H   H129      1.0  0.55499  0.00094  0.50383  1.0000
  H   H130      1.0  0.56245  0.96988  0.50361  1.0000
  H   H131      1.0  0.54251  0.92883  0.46716  1.0000
  H   H132      1.0  0.54679  0.89592  0.46410  1.0000
  H   H133      1.0  0.44847  0.00159  0.50483  1.0000
  H   H134      1.0  0.41021  0.97013  0.50567  1.0000
  H   H135      1.0  0.33317  0.92404  0.47826  1.0000
  H   H136      1.0  0.36993  0.95781  0.47317  1.0000
  H   H137      1.0  0.69706  0.16980  0.47178  1.0000
  H   H138      1.0  0.73413  0.20317  0.47686  1.0000
  N   N27       1.0  0.31821  0.88841  0.37837  1.0000
  N   N28       1.0  0.49582  0.24154  0.35002  1.0000
  N   N29       1.0  0.74941  0.23910  0.37803  1.0000
  N   N30       1.0  0.57301  0.88857  0.35006  1.0000
  C   C223      1.0  0.25382  0.52634  0.43537  1.0000
  C   C224      1.0  0.28724  0.52592  0.38539  1.0000
  N   N31       1.0  0.27407  0.52717  0.45141  1.0000
  O   O1        1.0  0.24274  0.52885  0.50744  1.0000
  C   C225      1.0  0.23079  0.50843  0.56085  1.0000
  H   H139      1.0  0.21789  0.49416  0.52134  1.0000
  H   H140      1.0  0.22212  0.51185  0.61510  1.0000
  H   H141      1.0  0.24259  0.50362  0.59077  1.0000
  C   C226      1.0  0.30800  0.52775  0.40719  1.0000
  H   H142      1.0  0.31297  0.53046  0.47111  1.0000
  C   C227      1.0  0.57309  0.82125  0.43757  1.0000
  C   C228      1.0  0.57351  0.85514  0.38758  1.0000
  N   N32       1.0  0.57226  0.84064  0.45359  1.0000
  O   O2        1.0  0.57058  0.80757  0.50963  1.0000
  C   C229      1.0  0.59099  0.81596  0.56305  1.0000
  H   H143      1.0  0.60527  0.81738  0.52354  1.0000
  H   H144      1.0  0.58757  0.80380  0.61729  1.0000
  H   H145      1.0  0.59581  0.83253  0.59297  1.0000
  C   C230      1.0  0.57168  0.87405  0.40937  1.0000
  H   H146      1.0  0.56896  0.87622  0.47329  1.0000
  C   C231      1.0  0.27810  0.84555  0.43582  1.0000
  C   C232      1.0  0.24426  0.81216  0.38524  1.0000
  N   N33       1.0  0.25869  0.82529  0.45151  1.0000
  O   O3        1.0  0.29171  0.85658  0.50812  1.0000
  C   C233      1.0  0.28322  0.86844  0.56161  1.0000
  H   H147      1.0  0.28179  0.88135  0.52223  1.0000
  H   H148      1.0  0.29533  0.87708  0.61602  1.0000
  H   H149      1.0  0.26664  0.85658  0.59130  1.0000
  C   C234      1.0  0.22534  0.79139  0.40672  1.0000
  H   H150      1.0  0.22310  0.78638  0.47060  1.0000
  C   C235      1.0  0.81798  0.60229  0.43524  1.0000
  C   C236      1.0  0.78488  0.60345  0.38529  1.0000
  N   N34       1.0  0.79798  0.60192  0.45132  1.0000
  O   O4        1.0  0.82899  0.59953  0.50734  1.0000
  C   C237      1.0  0.84136  0.61992  0.56033  1.0000
  H   H151      1.0  0.85437  0.63405  0.52052  1.0000
  H   H152      1.0  0.84994  0.61629  0.61461  1.0000
  H   H153      1.0  0.82986  0.62507  0.59019  1.0000
  C   C238      1.0  0.76435  0.60208  0.40718  1.0000
  H   H154      1.0  0.75951  0.59953  0.47119  1.0000
  C   C239      1.0  0.49714  0.30945  0.43746  1.0000
  C   C240      1.0  0.49599  0.27526  0.38749  1.0000
  N   N35       1.0  0.49751  0.28979  0.45352  1.0000
  O   O5        1.0  0.49990  0.32312  0.50956  1.0000
  C   C241      1.0  0.47951  0.31503  0.56255  1.0000
  H   H155      1.0  0.46539  0.31398  0.52274  1.0000
  H   H156      1.0  0.48314  0.32718  0.61684  1.0000
  H   H157      1.0  0.47435  0.29834  0.59240  1.0000
  C   C242      1.0  0.49736  0.25608  0.40935  1.0000
  H   H158      1.0  0.49992  0.25371  0.47335  1.0000
  C   C243      1.0  0.79004  0.28150  0.43567  1.0000
  C   C244      1.0  0.82418  0.31457  0.38515  1.0000
  N   N36       1.0  0.80971  0.30152  0.45141  1.0000
  O   O6        1.0  0.77643  0.27053  0.50797  1.0000
  C   C245      1.0  0.78461  0.25826  0.56110  1.0000
  H   H159      1.0  0.78568  0.24523  0.52146  1.0000
  H   H160      1.0  0.77251  0.24971  0.61554  1.0000
  H   H161      1.0  0.80131  0.26983  0.59075  1.0000
  C   C246      1.0  0.84339  0.33511  0.40672  1.0000
  H   H162      1.0  0.84582  0.33999  0.47069  1.0000
