data_image0
_chemical_formula_structural       C8HC7HCH4C4O3C3NOCHNHC3NOCHNHC3NOCHNHC3NOCHNHC3NOCHNHC3NOCHNHOC8HC7HCH4C4O4C8HC7HCH4C4O4C3NOCHNHC3NOCHNHC3NOCHNHC3NOCHNHC3NOCHNHC3NOCHNH
_chemical_formula_sum              "C108 H42 O24 N24"
_cell_length_a       30.0057
_cell_length_b       30.0058
_cell_length_c       15.1197
_cell_angle_alpha    89.9992
_cell_angle_beta     90.0008
_cell_angle_gamma    120

_space_group_name_H-M_alt    "P 1"
_space_group_IT_number       1

loop_
  _space_group_symop_operation_xyz
  'x, y, z'

loop_
  _atom_site_type_symbol
  _atom_site_label
  _atom_site_symmetry_multiplicity
  _atom_site_fract_x
  _atom_site_fract_y
  _atom_site_fract_z
  _atom_site_occupancy
  C   C1        1.0  0.02322  0.53041  0.32539  1.0000
  C   C2        1.0  0.97576  0.48259  0.32635  1.0000
  C   C3        1.0  0.97571  0.43507  0.32432  1.0000
  C   C4        1.0  0.02327  0.43645  0.32533  1.0000
  C   C5        1.0  0.07081  0.48265  0.32645  1.0000
  C   C6        1.0  0.07071  0.53010  0.32443  1.0000
  C   C7        1.0  0.92965  0.48437  0.32397  1.0000
  C   C8        1.0  0.11679  0.57802  0.32682  1.0000
  H   H1        1.0  0.02329  0.40228  0.32526  1.0000
  C   C9        1.0  0.02319  0.57833  0.32539  1.0000
  C   C10       1.0  0.97570  0.57863  0.32446  1.0000
  C   C11       1.0  0.97560  0.62607  0.32646  1.0000
  C   C12       1.0  0.02314  0.67228  0.32541  1.0000
  C   C13       1.0  0.07070  0.67367  0.32435  1.0000
  C   C14       1.0  0.07065  0.62615  0.32633  1.0000
  C   C15       1.0  0.92962  0.53070  0.32688  1.0000
  H   H2        1.0  0.02312  0.70645  0.32543  1.0000
  C   C16       1.0  0.11676  0.62435  0.32389  1.0000
  H   H3        1.0  0.89444  0.52780  0.33082  1.0000
  H   H4        1.0  0.89449  0.45207  0.32006  1.0000
  H   H5        1.0  0.15192  0.65665  0.31990  1.0000
  H   H6        1.0  0.15197  0.58094  0.33075  1.0000
  C   C17       1.0  0.11565  0.47861  0.33465  1.0000
  C   C18       1.0  0.93091  0.38619  0.31592  1.0000
  C   C19       1.0  0.93077  0.63010  0.33485  1.0000
  C   C20       1.0  0.11549  0.72258  0.31619  1.0000
  O   O1        1.0  0.11212  0.43730  0.37819  1.0000
  O   O2        1.0  0.93439  0.34830  0.27268  1.0000
  O   O3        1.0  0.11204  0.76041  0.27266  1.0000
  C   C21       1.0  0.20525  0.51202  0.30512  1.0000
  C   C22       1.0  0.23971  0.51653  0.23750  1.0000
  C   C23       1.0  0.28391  0.51432  0.25760  1.0000
  N   N1        1.0  0.30652  0.51590  0.18095  1.0000
  O   O4        1.0  0.23266  0.51686  0.14853  1.0000
  C   C24       1.0  0.27606  0.51783  0.11808  1.0000
  H   H7        1.0  0.28421  0.51871  0.05239  1.0000
  N   N2        1.0  0.15873  0.50685  0.28548  1.0000
  H   H8        1.0  0.15420  0.51883  0.22793  1.0000
  C   C25       1.0  0.56544  0.77870  0.30512  1.0000
  C   C26       1.0  0.56097  0.80867  0.23748  1.0000
  C   C27       1.0  0.56325  0.85512  0.25759  1.0000
  N   N3        1.0  0.56191  0.87627  0.18094  1.0000
  O   O5        1.0  0.56096  0.80146  0.14851  1.0000
  C   C28       1.0  0.55982  0.84380  0.11806  1.0000
  H   H9        1.0  0.55984  0.85152  0.05235  1.0000
  N   N4        1.0  0.57074  0.73744  0.28547  1.0000
  H   H10       1.0  0.55874  0.72092  0.22794  1.0000
  C   C29       1.0  0.29882  0.87237  0.30531  1.0000
  C   C30       1.0  0.26877  0.83800  0.23767  1.0000
  C   C31       1.0  0.22245  0.79370  0.25774  1.0000
  N   N5        1.0  0.20142  0.77112  0.18108  1.0000
  O   O6        1.0  0.27619  0.84507  0.14871  1.0000
  C   C32       1.0  0.23388  0.80154  0.11824  1.0000
  H   H11       1.0  0.22634  0.79370  0.05253  1.0000
  N   N6        1.0  0.34008  0.91895  0.28567  1.0000
  H   H12       1.0  0.35662  0.92342  0.22815  1.0000
  C   C33       1.0  0.84115  0.59667  0.30523  1.0000
  C   C34       1.0  0.80672  0.59222  0.23760  1.0000
  C   C35       1.0  0.76255  0.59449  0.25771  1.0000
  N   N7        1.0  0.74002  0.59310  0.18107  1.0000
  O   O7        1.0  0.81385  0.59208  0.14863  1.0000
  C   C36       1.0  0.77046  0.59113  0.11819  1.0000
  H   H13       1.0  0.76251  0.59066  0.05249  1.0000
  N   N8        1.0  0.88771  0.60195  0.28557  1.0000
  H   H14       1.0  0.89220  0.58992  0.22804  1.0000
  C   C37       1.0  0.48090  0.33000  0.30520  1.0000
  C   C38       1.0  0.48542  0.30007  0.23757  1.0000
  C   C39       1.0  0.48323  0.25366  0.25766  1.0000
  N   N9        1.0  0.48485  0.23264  0.18102  1.0000
  O   O8        1.0  0.48577  0.30746  0.14861  1.0000
  C   C40       1.0  0.48677  0.26504  0.11816  1.0000
  H   H15       1.0  0.48767  0.25778  0.05247  1.0000
  N   N10       1.0  0.47571  0.37134  0.28555  1.0000
  H   H16       1.0  0.48769  0.38785  0.22800  1.0000
  C   C41       1.0  0.74755  0.23644  0.30510  1.0000
  C   C42       1.0  0.77750  0.27089  0.23746  1.0000
  C   C43       1.0  0.82393  0.31508  0.25758  1.0000
  N   N11       1.0  0.84508  0.33757  0.18092  1.0000
  O   O9        1.0  0.77029  0.26369  0.14850  1.0000
  C   C44       1.0  0.81262  0.30719  0.11805  1.0000
  H   H17       1.0  0.82034  0.31488  0.05234  1.0000
  N   N12       1.0  0.70632  0.18985  0.28545  1.0000
  H   H18       1.0  0.68980  0.18533  0.22791  1.0000
  O   O10       1.0  0.93424  0.67148  0.37807  1.0000
  C   C45       1.0  0.54722  0.57841  0.32545  1.0000
  C   C46       1.0  0.59504  0.57878  0.32642  1.0000
  C   C47       1.0  0.64256  0.62626  0.32441  1.0000
  C   C48       1.0  0.64116  0.67243  0.32546  1.0000
  C   C49       1.0  0.59495  0.67375  0.32656  1.0000
  C   C50       1.0  0.54751  0.62620  0.32450  1.0000
  C   C51       1.0  0.59326  0.53088  0.32394  1.0000
  C   C52       1.0  0.49957  0.62433  0.32695  1.0000
  H   H19       1.0  0.67533  0.70662  0.32543  1.0000
  C   C53       1.0  0.49930  0.53045  0.32542  1.0000
  C   C54       1.0  0.49900  0.48267  0.32446  1.0000
  C   C55       1.0  0.45156  0.43511  0.32647  1.0000
  C   C56       1.0  0.40536  0.43644  0.32532  1.0000
  C   C57       1.0  0.40396  0.48260  0.32426  1.0000
  C   C58       1.0  0.45147  0.53008  0.32636  1.0000
  C   C59       1.0  0.54693  0.48452  0.32683  1.0000
  H   H20       1.0  0.37119  0.40224  0.32529  1.0000
  C   C60       1.0  0.45325  0.57797  0.32401  1.0000
  H   H21       1.0  0.54985  0.45225  0.33071  1.0000
  H   H22       1.0  0.62556  0.52802  0.31996  1.0000
  H   H23       1.0  0.42095  0.58083  0.32007  1.0000
  H   H24       1.0  0.49666  0.65660  0.33094  1.0000
  C   C61       1.0  0.59896  0.72262  0.33473  1.0000
  C   C62       1.0  0.69145  0.63035  0.31616  1.0000
  C   C63       1.0  0.44759  0.38627  0.33483  1.0000
  C   C64       1.0  0.35505  0.47847  0.31600  1.0000
  O   O11       1.0  0.64025  0.76042  0.37828  1.0000
  O   O12       1.0  0.72938  0.67175  0.27303  1.0000
  O   O13       1.0  0.40617  0.34841  0.37807  1.0000
  O   O14       1.0  0.31734  0.43726  0.27215  1.0000
  C   C65       1.0  0.49931  0.05438  0.32539  1.0000
  C   C66       1.0  0.49896  0.10185  0.32633  1.0000
  C   C67       1.0  0.45148  0.10189  0.32428  1.0000
  C   C68       1.0  0.40531  0.05434  0.32545  1.0000
  C   C69       1.0  0.40397  0.00680  0.32662  1.0000
  C   C70       1.0  0.45152  0.00689  0.32444  1.0000
  C   C71       1.0  0.54686  0.14795  0.32393  1.0000
  C   C72       1.0  0.45335  0.96081  0.32675  1.0000
  H   H25       1.0  0.37112  0.05432  0.32552  1.0000
  C   C73       1.0  0.54726  0.05440  0.32537  1.0000
  C   C74       1.0  0.59505  0.10189  0.32444  1.0000
  C   C75       1.0  0.64260  0.10198  0.32651  1.0000
  C   C76       1.0  0.64126  0.05445  0.32540  1.0000
  C   C77       1.0  0.59508  0.00689  0.32427  1.0000
  C   C78       1.0  0.54761  0.00694  0.32631  1.0000
  C   C79       1.0  0.59321  0.14797  0.32687  1.0000
  H   H26       1.0  0.67545  0.05446  0.32541  1.0000
  C   C80       1.0  0.49971  0.96083  0.32381  1.0000
  H   H27       1.0  0.62549  0.18315  0.33082  1.0000
  H   H28       1.0  0.54973  0.18312  0.31996  1.0000
  H   H29       1.0  0.49684  0.92567  0.31977  1.0000
  H   H30       1.0  0.42106  0.92563  0.33057  1.0000
  C   C81       1.0  0.35515  0.96195  0.33517  1.0000
  C   C82       1.0  0.44737  0.14669  0.31608  1.0000
  C   C83       1.0  0.69146  0.14682  0.33479  1.0000
  C   C84       1.0  0.59915  0.96208  0.31602  1.0000
  O   O15       1.0  0.31728  0.96550  0.37838  1.0000
  O   O16       1.0  0.40614  0.14319  0.27230  1.0000
  O   O17       1.0  0.72940  0.14339  0.37797  1.0000
  O   O18       1.0  0.64055  0.96554  0.27288  1.0000
  C   C85       1.0  0.29886  0.51190  0.34563  1.0000
  C   C86       1.0  0.26884  0.51628  0.41326  1.0000
  C   C87       1.0  0.22254  0.51431  0.39316  1.0000
  N   N13       1.0  0.20154  0.51593  0.46981  1.0000
  O   O19       1.0  0.27625  0.51664  0.50222  1.0000
  C   C88       1.0  0.23398  0.51793  0.53267  1.0000
  H   H31       1.0  0.22645  0.51828  0.59837  1.0000
  N   N14       1.0  0.34012  0.50660  0.36529  1.0000
  H   H32       1.0  0.35668  0.51870  0.42278  1.0000
  C   C89       1.0  0.56558  0.87242  0.34563  1.0000
  C   C90       1.0  0.56093  0.83791  0.41324  1.0000
  C   C91       1.0  0.56303  0.79364  0.39315  1.0000
  N   N15       1.0  0.56153  0.77108  0.46980  1.0000
  O   O20       1.0  0.56082  0.84506  0.50221  1.0000
  C   C92       1.0  0.55949  0.80148  0.53266  1.0000
  H   H33       1.0  0.55939  0.79373  0.59837  1.0000
  N   N16       1.0  0.57100  0.91903  0.36534  1.0000
  H   H34       1.0  0.55894  0.92356  0.42281  1.0000
  C   C93       1.0  0.20512  0.77870  0.34577  1.0000
  C   C94       1.0  0.23959  0.80862  0.41341  1.0000
  C   C95       1.0  0.28383  0.85501  0.39334  1.0000
  N   N17       1.0  0.30642  0.87604  0.46999  1.0000
  O   O21       1.0  0.23250  0.80125  0.50238  1.0000
  C   C96       1.0  0.27592  0.84367  0.53285  1.0000
  H   H35       1.0  0.28404  0.85094  0.59854  1.0000
  N   N18       1.0  0.15856  0.73741  0.36540  1.0000
  H   H36       1.0  0.15407  0.72086  0.42290  1.0000
  C   C97       1.0  0.74758  0.59684  0.34576  1.0000
  C   C98       1.0  0.77747  0.59223  0.41338  1.0000
  C   C99       1.0  0.82385  0.59436  0.39327  1.0000
  N   N19       1.0  0.84489  0.59280  0.46991  1.0000
  O   O22       1.0  0.77014  0.59199  0.50235  1.0000
  C   C100      1.0  0.81255  0.59097  0.53279  1.0000
  H   H37       1.0  0.81984  0.59013  0.59847  1.0000
  N   N20       1.0  0.70633  0.60216  0.36543  1.0000
  H   H38       1.0  0.68980  0.59018  0.42297  1.0000
  C   C101      1.0  0.48081  0.23629  0.34568  1.0000
  C   C102      1.0  0.48516  0.27067  0.41333  1.0000
  C   C103      1.0  0.48318  0.31499  0.39323  1.0000
  N   N21       1.0  0.48477  0.33759  0.46989  1.0000
  O   O23       1.0  0.48552  0.26361  0.50228  1.0000
  C   C104      1.0  0.48677  0.30715  0.53274  1.0000
  H   H39       1.0  0.48711  0.31502  0.59845  1.0000
  N   N22       1.0  0.47558  0.18975  0.36532  1.0000
  H   H40       1.0  0.48757  0.18524  0.42286  1.0000
  C   C105      1.0  0.84125  0.33006  0.34562  1.0000
  C   C106      1.0  0.80674  0.30017  0.41323  1.0000
  C   C107      1.0  0.76249  0.25380  0.39314  1.0000
  N   N23       1.0  0.73995  0.23270  0.46980  1.0000
  O   O24       1.0  0.81391  0.30742  0.50220  1.0000
  C   C108      1.0  0.77035  0.26515  0.53265  1.0000
  H   H41       1.0  0.76263  0.25747  0.59836  1.0000
  N   N24       1.0  0.88789  0.37120  0.36534  1.0000
  H   H42       1.0  0.89234  0.38784  0.42275  1.0000
