data_image0
_chemical_formula_structural       C14H12C7NC12H12C2NC3NC3NC15H14NCHNCHNCHNCHNCHNCHC3NC2NC5NC3NC17H14CNC2NC4NC18H14C2NC19H12C2NC3H3OC2NC3H3OC2NC3H3OC2NC3H3OC2NC3H3OC2NC3H3O
_chemical_formula_sum              "C168 H102 N24 O6"
_cell_length_a       41.6501
_cell_length_b       41.6501
_cell_length_c       14.9853
_cell_angle_alpha    90.0374
_cell_angle_beta     89.9626
_cell_angle_gamma    120

_space_group_name_H-M_alt    "P 1"
_space_group_IT_number       1

loop_
  _space_group_symop_operation_xyz
  'x, y, z'

loop_
  _atom_site_type_symbol
  _atom_site_label
  _atom_site_symmetry_multiplicity
  _atom_site_fract_x
  _atom_site_fract_y
  _atom_site_fract_z
  _atom_site_occupancy
  C   C1        1.0  0.95120  0.55025  0.32296  1.0000
  C   C2        1.0  0.09893  0.53637  0.33098  1.0000
  C   C3        1.0  0.11131  0.57475  0.32251  1.0000
  C   C4        1.0  0.14846  0.63626  0.30934  1.0000
  C   C5        1.0  0.14783  0.60285  0.30794  1.0000
  C   C6        1.0  0.16674  0.75516  0.27548  1.0000
  C   C7        1.0  0.13658  0.71868  0.27173  1.0000
  C   C8        1.0  0.12662  0.52588  0.33370  1.0000
  C   C9        1.0  0.16872  0.51047  0.25560  1.0000
  C   C10       1.0  0.13802  0.51598  0.25474  1.0000
  C   C11       1.0  0.92623  0.40633  0.27169  1.0000
  C   C12       1.0  0.89619  0.36977  0.27534  1.0000
  C   C13       1.0  0.92447  0.60899  0.25490  1.0000
  C   C14       1.0  0.89366  0.61432  0.25572  1.0000
  H   H1        1.0  0.88608  0.62106  0.19690  1.0000
  H   H2        1.0  0.93766  0.61102  0.19573  1.0000
  H   H3        1.0  0.99780  0.66594  0.37120  1.0000
  H   H4        1.0  0.94265  0.41489  0.21596  1.0000
  H   H5        1.0  0.89191  0.35260  0.22228  1.0000
  H   H6        1.0  0.06473  0.45919  0.37208  1.0000
  H   H7        1.0  0.17175  0.66155  0.30098  1.0000
  H   H8        1.0  0.17062  0.60002  0.29893  1.0000
  H   H9        1.0  0.12488  0.51400  0.19556  1.0000
  H   H10       1.0  0.17626  0.50365  0.19678  1.0000
  H   H11       1.0  0.12023  0.71017  0.21590  1.0000
  H   H12       1.0  0.17121  0.77233  0.22231  1.0000
  C   C15       1.0  0.43945  0.45262  0.36123  1.0000
  C   C16       1.0  0.44620  0.50935  0.34398  1.0000
  C   C17       1.0  0.54298  0.49371  0.32214  1.0000
  C   C18       1.0  0.61533  0.61370  0.34339  1.0000
  C   C19       1.0  0.62209  0.67045  0.36049  1.0000
  C   C20       1.0  0.55692  0.65533  0.33046  1.0000
  C   C21       1.0  0.51852  0.62932  0.32226  1.0000
  N   N1        1.0  0.50157  0.59213  0.33220  1.0000
  C   C22       1.0  0.45702  0.60493  0.30888  1.0000
  C   C23       1.0  0.49043  0.63772  0.30745  1.0000
  C   C24       1.0  0.33809  0.50423  0.27564  1.0000
  C   C25       1.0  0.37456  0.51051  0.27189  1.0000
  C   C26       1.0  0.56739  0.69351  0.33325  1.0000
  C   C27       1.0  0.57850  0.76700  0.33463  1.0000
  C   C28       1.0  0.58291  0.75103  0.25524  1.0000
  C   C29       1.0  0.57737  0.71481  0.25434  1.0000
  C   C30       1.0  0.68696  0.61261  0.27148  1.0000
  C   C31       1.0  0.72350  0.61909  0.27526  1.0000
  C   C32       1.0  0.48430  0.40824  0.25442  1.0000
  C   C33       1.0  0.47899  0.37210  0.25522  1.0000
  H   H13       1.0  0.47228  0.35777  0.19639  1.0000
  H   H14       1.0  0.48229  0.41938  0.19524  1.0000
  H   H15       1.0  0.42740  0.42472  0.37184  1.0000
  H   H16       1.0  0.67846  0.62051  0.21578  1.0000
  H   H17       1.0  0.74073  0.63200  0.22230  1.0000
  H   H18       1.0  0.63413  0.69835  0.37128  1.0000
  H   H19       1.0  0.43174  0.60291  0.30018  1.0000
  H   H20       1.0  0.49327  0.66332  0.29797  1.0000
  H   H21       1.0  0.57943  0.70366  0.19518  1.0000
  H   H22       1.0  0.58978  0.76539  0.19647  1.0000
  H   H23       1.0  0.38305  0.50262  0.21608  1.0000
  H   H24       1.0  0.32088  0.49143  0.22258  1.0000
  C   C34       1.0  0.64075  0.07964  0.36004  1.0000
  C   C35       1.0  0.58399  0.02964  0.34320  1.0000
  N   N2        1.0  0.58236  0.06107  0.33143  1.0000
  C   C36       1.0  0.62562  0.12970  0.33025  1.0000
  C   C37       1.0  0.59961  0.14209  0.32193  1.0000
  C   C38       1.0  0.47959  0.09444  0.34281  1.0000
  N   N3        1.0  0.48120  0.06301  0.33102  1.0000
  C   C39       1.0  0.42280  0.04445  0.35961  1.0000
  C   C40       1.0  0.43796  0.99436  0.33038  1.0000
  C   C41       1.0  0.46397  0.98196  0.32240  1.0000
  N   N4        1.0  0.50117  0.00221  0.33206  1.0000
  C   C42       1.0  0.48834  0.94481  0.30924  1.0000
  C   C43       1.0  0.45555  0.94544  0.30786  1.0000
  C   C44       1.0  0.56456  0.96358  0.34225  1.0000
  C   C45       1.0  0.57745  0.90240  0.34959  1.0000
  C   C46       1.0  0.58905  0.92659  0.27516  1.0000
  C   C47       1.0  0.58273  0.95676  0.27141  1.0000
  C   C48       1.0  0.39978  0.96666  0.33319  1.0000
  C   C49       1.0  0.32631  0.90426  0.33470  1.0000
  C   C50       1.0  0.34228  0.92453  0.25523  1.0000
  C   C51       1.0  0.37847  0.95526  0.25430  1.0000
  C   C52       1.0  0.48080  0.16721  0.27090  1.0000
  C   C53       1.0  0.47428  0.19724  0.27470  1.0000
  C   C54       1.0  0.68509  0.16889  0.25418  1.0000
  C   C55       1.0  0.73712  0.22004  0.33457  1.0000
  C   C56       1.0  0.72124  0.19970  0.25511  1.0000
  H   H25       1.0  0.73559  0.20732  0.19631  1.0000
  H   H26       1.0  0.67397  0.15576  0.19494  1.0000
  H   H27       1.0  0.66865  0.09550  0.37073  1.0000
  H   H28       1.0  0.56055  0.06133  0.31102  1.0000
  H   H29       1.0  0.50306  0.06269  0.31123  1.0000
  H   H30       1.0  0.47297  0.15082  0.21512  1.0000
  H   H31       1.0  0.46146  0.20158  0.22163  1.0000
  H   H32       1.0  0.39491  0.02861  0.37044  1.0000
  H   H33       1.0  0.49035  0.92154  0.30059  1.0000
  H   H34       1.0  0.42995  0.92267  0.29853  1.0000
  H   H35       1.0  0.38965  0.96835  0.19506  1.0000
  H   H36       1.0  0.32793  0.91695  0.19644  1.0000
  H   H37       1.0  0.59059  0.97310  0.21559  1.0000
  H   H38       1.0  0.60182  0.92216  0.22206  1.0000
  N   N5        1.0  0.27838  0.52084  0.27219  1.0000
  C   C57       1.0  0.24608  0.52088  0.26203  1.0000
  H   H39       1.0  0.24085  0.52895  0.20207  1.0000
  N   N6        1.0  0.57252  0.85030  0.27184  1.0000
  C   C58       1.0  0.57249  0.81797  0.26164  1.0000
  H   H40       1.0  0.56428  0.80457  0.20180  1.0000
  N   N7        1.0  0.24306  0.81485  0.27209  1.0000
  C   C59       1.0  0.27542  0.84712  0.26188  1.0000
  H   H41       1.0  0.28876  0.85231  0.20196  1.0000
  N   N8        1.0  0.78361  0.60304  0.27197  1.0000
  C   C60       1.0  0.81607  0.60331  0.26189  1.0000
  H   H42       1.0  0.82140  0.59525  0.20200  1.0000
  N   N9        1.0  0.49031  0.27337  0.27158  1.0000
  C   C61       1.0  0.49003  0.30555  0.26147  1.0000
  H   H43       1.0  0.49818  0.31897  0.20166  1.0000
  N   N10       1.0  0.82003  0.30971  0.27187  1.0000
  C   C62       1.0  0.78782  0.27729  0.26168  1.0000
  H   H44       1.0  0.77448  0.27198  0.20175  1.0000
  C   C63       1.0  0.01366  0.65391  0.36031  1.0000
  C   C64       1.0  0.05194  0.67252  0.36242  1.0000
  C   C65       1.0  0.06366  0.64713  0.34350  1.0000
  N   N11       1.0  0.03223  0.61408  0.33168  1.0000
  C   C66       1.0  0.00126  0.61671  0.34095  1.0000
  C   C67       1.0  0.96358  0.58866  0.33108  1.0000
  N   N12       1.0  0.97145  0.53330  0.33263  1.0000
  C   C68       1.0  0.95017  0.49607  0.32548  1.0000
  C   C69       1.0  0.91408  0.48875  0.30956  1.0000
  C   C70       1.0  0.91469  0.52215  0.30827  1.0000
  C   C71       1.0  0.96134  0.46919  0.33608  1.0000
  C   C72       1.0  0.99888  0.47795  0.34394  1.0000
  N   N13       1.0  0.03030  0.51102  0.33234  1.0000
  C   C73       1.0  0.06126  0.50837  0.34143  1.0000
  C   C74       1.0  0.04887  0.47122  0.36129  1.0000
  C   C75       1.0  0.01060  0.45260  0.36335  1.0000
  N   N14       1.0  0.09107  0.59172  0.33233  1.0000
  C   C76       1.0  0.11236  0.62895  0.32516  1.0000
  C   C77       1.0  0.10119  0.65583  0.33604  1.0000
  C   C78       1.0  0.12972  0.69373  0.34262  1.0000
  C   C79       1.0  0.15344  0.70625  0.41762  1.0000
  C   C80       1.0  0.18379  0.74257  0.42067  1.0000
  C   C81       1.0  0.19093  0.76780  0.34992  1.0000
  C   C82       1.0  0.14577  0.52909  0.41384  1.0000
  C   C83       1.0  0.17632  0.52339  0.41441  1.0000
  C   C84       1.0  0.18902  0.51480  0.33501  1.0000
  C   C85       1.0  0.93284  0.43128  0.34249  1.0000
  C   C86       1.0  0.87192  0.35705  0.34969  1.0000
  C   C87       1.0  0.87880  0.38229  0.42030  1.0000
  C   C88       1.0  0.90902  0.41869  0.41733  1.0000
  C   C89       1.0  0.93586  0.59912  0.33383  1.0000
  C   C90       1.0  0.91662  0.59580  0.41394  1.0000
  C   C91       1.0  0.88597  0.60134  0.41451  1.0000
  C   C92       1.0  0.87324  0.60983  0.33507  1.0000
  H   H45       1.0  0.87187  0.59711  0.47325  1.0000
  H   H46       1.0  0.92388  0.58790  0.47168  1.0000
  H   H47       1.0  0.06822  0.70024  0.37492  1.0000
  H   H48       1.0  0.03193  0.59190  0.31194  1.0000
  H   H49       1.0  0.03059  0.53301  0.31106  1.0000
  H   H50       1.0  0.89192  0.52498  0.29900  1.0000
  H   H51       1.0  0.89081  0.46346  0.30092  1.0000
  H   H52       1.0  0.91267  0.43643  0.46871  1.0000
  H   H53       1.0  0.86099  0.37502  0.47320  1.0000
  H   H54       1.0  0.99432  0.42488  0.37583  1.0000
  H   H55       1.0  0.13847  0.53697  0.47162  1.0000
  H   H56       1.0  0.19029  0.52743  0.47326  1.0000
  H   H57       1.0  0.20158  0.74975  0.47354  1.0000
  H   H58       1.0  0.14967  0.68848  0.46897  1.0000
  C   C93       1.0  0.42085  0.47230  0.36351  1.0000
  N   N15       1.0  0.47927  0.51100  0.33225  1.0000
  C   C94       1.0  0.47660  0.47738  0.34135  1.0000
  C   C95       1.0  0.50459  0.46770  0.33064  1.0000
  N   N16       1.0  0.55994  0.53090  0.33213  1.0000
  C   C96       1.0  0.59717  0.54684  0.32490  1.0000
  C   C97       1.0  0.60448  0.51807  0.30874  1.0000
  C   C98       1.0  0.57107  0.48529  0.30735  1.0000
  C   C99       1.0  0.62406  0.58488  0.33570  1.0000
  N   N17       1.0  0.58228  0.61207  0.33162  1.0000
  C   C100      1.0  0.58493  0.64568  0.34080  1.0000
  C   C101      1.0  0.64069  0.65077  0.36276  1.0000
  C   C102      1.0  0.46434  0.57618  0.32500  1.0000
  C   C103      1.0  0.43746  0.53814  0.33596  1.0000
  C   C104      1.0  0.39956  0.52877  0.34260  1.0000
  C   C105      1.0  0.38710  0.54010  0.41751  1.0000
  C   C106      1.0  0.35077  0.53413  0.42061  1.0000
  C   C107      1.0  0.32550  0.51591  0.35000  1.0000
  C   C108      1.0  0.56410  0.70945  0.41336  1.0000
  C   C109      1.0  0.56983  0.74570  0.41399  1.0000
  C   C110      1.0  0.66196  0.59427  0.34217  1.0000
  C   C111      1.0  0.73615  0.60750  0.34960  1.0000
  C   C112      1.0  0.71087  0.58918  0.42016  1.0000
  C   C113      1.0  0.67448  0.58300  0.41703  1.0000
  C   C114      1.0  0.49412  0.42952  0.33337  1.0000
  C   C115      1.0  0.49743  0.41363  0.41347  1.0000
  C   C116      1.0  0.49188  0.37744  0.41404  1.0000
  C   C117      1.0  0.48345  0.35620  0.33459  1.0000
  H   H59       1.0  0.49606  0.36757  0.47282  1.0000
  H   H60       1.0  0.50526  0.42879  0.47125  1.0000
  H   H61       1.0  0.39311  0.46084  0.37567  1.0000
  H   H62       1.0  0.50124  0.53267  0.31082  1.0000
  H   H63       1.0  0.56022  0.59027  0.31104  1.0000
  H   H64       1.0  0.56823  0.45968  0.29795  1.0000
  H   H65       1.0  0.62976  0.52008  0.30005  1.0000
  H   H66       1.0  0.65669  0.56889  0.46828  1.0000
  H   H67       1.0  0.71807  0.57855  0.47295  1.0000
  H   H68       1.0  0.66841  0.66222  0.37509  1.0000
  H   H69       1.0  0.55620  0.69429  0.47112  1.0000
  H   H70       1.0  0.56575  0.75565  0.47282  1.0000
  H   H71       1.0  0.34363  0.54484  0.47340  1.0000
  H   H72       1.0  0.40489  0.55420  0.46874  1.0000
  C   C118      1.0  0.62108  0.04136  0.36233  1.0000
  C   C119      1.0  0.61597  0.09203  0.34055  1.0000
  N   N18       1.0  0.56241  0.12185  0.33167  1.0000
  C   C120      1.0  0.54646  0.14314  0.32452  1.0000
  C   C121      1.0  0.57525  0.17924  0.30881  1.0000
  C   C122      1.0  0.60804  0.17861  0.30747  1.0000
  C   C123      1.0  0.50841  0.13198  0.33525  1.0000
  C   C124      1.0  0.44760  0.03204  0.34028  1.0000
  C   C125      1.0  0.44248  0.08273  0.36176  1.0000
  C   C126      1.0  0.51712  0.98092  0.32504  1.0000
  C   C127      1.0  0.55517  0.99210  0.33564  1.0000
  C   C128      1.0  0.55331  0.93986  0.41724  1.0000
  C   C129      1.0  0.55930  0.90952  0.42030  1.0000
  C   C130      1.0  0.38385  0.94753  0.41337  1.0000
  C   C131      1.0  0.34758  0.91701  0.41408  1.0000
  C   C132      1.0  0.49901  0.16049  0.34174  1.0000
  C   C133      1.0  0.48575  0.22144  0.34918  1.0000
  C   C134      1.0  0.50399  0.21446  0.41984  1.0000
  C   C135      1.0  0.51019  0.18425  0.41669  1.0000
  C   C136      1.0  0.66379  0.15741  0.33309  1.0000
  C   C137      1.0  0.67967  0.17656  0.41331  1.0000
  C   C138      1.0  0.71584  0.20724  0.41395  1.0000
  H   H73       1.0  0.72572  0.22124  0.47281  1.0000
  H   H74       1.0  0.66447  0.16924  0.47103  1.0000
  H   H75       1.0  0.63253  0.02509  0.37457  1.0000
  H   H76       1.0  0.63365  0.20139  0.29831  1.0000
  H   H77       1.0  0.57325  0.20252  0.30031  1.0000
  H   H78       1.0  0.52421  0.18055  0.46807  1.0000
  H   H79       1.0  0.51453  0.23226  0.47274  1.0000
  H   H80       1.0  0.43103  0.09901  0.37412  1.0000
  H   H81       1.0  0.39901  0.95485  0.47111  1.0000
  H   H82       1.0  0.33767  0.90301  0.47291  1.0000
  H   H83       1.0  0.54866  0.89174  0.47319  1.0000
  H   H84       1.0  0.53928  0.94362  0.46857  1.0000
  C   C139      1.0  0.28959  0.51233  0.34950  1.0000
  C   C140      1.0  0.22210  0.51242  0.33594  1.0000
  N   N19       1.0  0.23335  0.50376  0.41300  1.0000
  C   C141      1.0  0.26536  0.50296  0.42401  1.0000
  C   C142      1.0  0.27157  0.49223  0.50660  1.0000
  C   C143      1.0  0.27078  0.45732  0.51869  1.0000
  H   H85       1.0  0.27100  0.44449  0.45524  1.0000
  H   H86       1.0  0.24589  0.43792  0.55538  1.0000
  H   H87       1.0  0.29509  0.46209  0.55685  1.0000
  O   O1        1.0  0.26776  0.50707  0.57315  1.0000
  C   C144      1.0  0.58109  0.87010  0.34911  1.0000
  C   C145      1.0  0.58091  0.80247  0.33560  1.0000
  N   N20       1.0  0.58960  0.82242  0.41263  1.0000
  C   C146      1.0  0.59045  0.85527  0.42361  1.0000
  C   C147      1.0  0.60122  0.87225  0.50619  1.0000
  C   C148      1.0  0.63611  0.90641  0.51819  1.0000
  H   H88       1.0  0.64893  0.91941  0.45471  1.0000
  H   H89       1.0  0.65554  0.90097  0.55490  1.0000
  H   H90       1.0  0.63134  0.92597  0.55631  1.0000
  O   O2        1.0  0.58640  0.85366  0.57277  1.0000
  C   C149      1.0  0.22327  0.80370  0.34937  1.0000
  C   C150      1.0  0.29088  0.87115  0.33572  1.0000
  N   N21       1.0  0.27091  0.85998  0.41274  1.0000
  C   C151      1.0  0.23808  0.82798  0.42379  1.0000
  C   C152      1.0  0.22110  0.82194  0.50632  1.0000
  C   C153      1.0  0.18661  0.82197  0.51855  1.0000
  H   H91       1.0  0.17385  0.82230  0.45512  1.0000
  H   H92       1.0  0.19152  0.84631  0.55692  1.0000
  H   H93       1.0  0.16709  0.79710  0.55508  1.0000
  O   O3        1.0  0.23953  0.82508  0.57277  1.0000
  C   C154      1.0  0.77221  0.61143  0.34924  1.0000
  C   C155      1.0  0.83999  0.61190  0.33592  1.0000
  N   N22       1.0  0.82854  0.62041  0.41296  1.0000
  C   C156      1.0  0.79638  0.62094  0.42385  1.0000
  C   C157      1.0  0.78996  0.63154  0.50644  1.0000
  C   C158      1.0  0.79038  0.66627  0.51857  1.0000
  H   H94       1.0  0.79012  0.67907  0.45514  1.0000
  H   H95       1.0  0.81516  0.68582  0.55542  1.0000
  H   H96       1.0  0.76594  0.66127  0.55661  1.0000
  O   O4        1.0  0.79385  0.61679  0.57299  1.0000
  C   C159      1.0  0.48185  0.25358  0.34881  1.0000
  C   C160      1.0  0.48135  0.32087  0.33544  1.0000
  N   N23       1.0  0.47277  0.30092  0.41243  1.0000
  C   C161      1.0  0.47225  0.26824  0.42334  1.0000
  C   C162      1.0  0.46149  0.25122  0.50584  1.0000
  C   C163      1.0  0.42707  0.21663  0.51814  1.0000
  H   H97       1.0  0.41413  0.20367  0.45473  1.0000
  H   H98       1.0  0.40746  0.22147  0.55598  1.0000
  H   H99       1.0  0.43252  0.19731  0.55522  1.0000
  O   O5        1.0  0.47643  0.26978  0.57243  1.0000
  C   C164      1.0  0.83978  0.32102  0.34916  1.0000
  C   C165      1.0  0.77246  0.25327  0.33554  1.0000
  N   N24       1.0  0.79237  0.26462  0.41259  1.0000
  C   C166      1.0  0.82507  0.29677  0.42362  1.0000
  C   C167      1.0  0.84201  0.30299  0.50621  1.0000
  C   C168      1.0  0.87670  0.30338  0.51858  1.0000
  H   H100      1.0  0.88956  0.30312  0.45521  1.0000
  H   H101      1.0  0.87202  0.27917  0.55711  1.0000
  H   H102      1.0  0.89602  0.32837  0.55502  1.0000
  O   O6        1.0  0.82348  0.29974  0.57260  1.0000
