data_image0
_chemical_formula_structural       C3HOHC3H2C3H2C3H2C3HOHC3HOHC3HOHC3HOHC3H2C3H2C3HOHC3HOHC3H2C3H2C3HOHC3HOHC3H2C3H2C3HOHC3HOHC3H2C3H2C3H2C3HOHC6H3C6H3C6H3C6H3C6H3C6H3C6H3C6H3C6H3C6H3C6H3C6H3C6H3C6H3C6H3C6H3C3H2C3HOHC3HOHC3HOHC3H2C3H2C3H2C3H2C3HOHC3HOHC3H2C3H2C3HOHC3HOHC3H2C3H2C3HOHC3HOHC3H2C3H2C3HOHC3HOHC3HOHC3H2
_chemical_formula_sum              "C240 H144 O24"
_cell_length_a       54.9907
_cell_length_b       28.3519
_cell_length_c       14.8695
_cell_angle_alpha    90
_cell_angle_beta     90
_cell_angle_gamma    90

_space_group_name_H-M_alt    "P 1"
_space_group_IT_number       1

loop_
  _space_group_symop_operation_xyz
  'x, y, z'

loop_
  _atom_site_type_symbol
  _atom_site_label
  _atom_site_symmetry_multiplicity
  _atom_site_fract_x
  _atom_site_fract_y
  _atom_site_fract_z
  _atom_site_occupancy
  C   C1        1.0  0.51617  0.54908  0.33836  1.0000
  C   C2        1.0  0.52281  0.51536  0.27233  1.0000
  C   C3        1.0  0.51114  0.47107  0.26943  1.0000
  H   H1        1.0  0.51643  0.44731  0.22138  1.0000
  O   O1        1.0  0.54029  0.52434  0.20975  1.0000
  H   H2        1.0  0.53229  0.54206  0.16130  1.0000
  C   C4        1.0  0.01652  0.95927  0.35402  1.0000
  C   C5        1.0  0.02329  0.99309  0.28903  1.0000
  C   C6        1.0  0.01141  0.03698  0.28475  1.0000
  H   H3        1.0  0.01662  0.06013  0.23553  1.0000
  H   H4        1.0  0.03633  0.98545  0.24204  1.0000
  C   C7        1.0  0.37059  0.32215  0.33702  1.0000
  C   C8        1.0  0.38739  0.30022  0.27837  1.0000
  C   C9        1.0  0.41211  0.31317  0.27773  1.0000
  H   H5        1.0  0.42344  0.29617  0.23375  1.0000
  H   H6        1.0  0.38175  0.27450  0.23475  1.0000
  C   C10       1.0  0.63800  0.68661  0.33756  1.0000
  C   C11       1.0  0.62099  0.70848  0.27962  1.0000
  C   C12       1.0  0.59629  0.69541  0.27997  1.0000
  H   H7        1.0  0.58481  0.71238  0.23648  1.0000
  H   H8        1.0  0.62648  0.73423  0.23581  1.0000
  C   C13       1.0  0.08745  0.84842  0.34805  1.0000
  C   C14       1.0  0.10429  0.87110  0.28987  1.0000
  C   C15       1.0  0.12917  0.85834  0.29047  1.0000
  H   H9        1.0  0.14063  0.87452  0.24582  1.0000
  O   O2        1.0  0.09703  0.90458  0.22997  1.0000
  H   H10       1.0  0.09085  0.88757  0.17718  1.0000
  C   C16       1.0  0.92147  0.16014  0.34534  1.0000
  C   C17       1.0  0.90442  0.13751  0.28794  1.0000
  C   C18       1.0  0.87956  0.15036  0.28960  1.0000
  H   H11       1.0  0.86796  0.13426  0.24535  1.0000
  O   O3        1.0  0.91143  0.10403  0.22764  1.0000
  H   H12       1.0  0.91751  0.12105  0.17466  1.0000
  C   C19       1.0  0.53673  0.20905  0.35245  1.0000
  C   C20       1.0  0.53817  0.24116  0.27962  1.0000
  C   C21       1.0  0.52309  0.28142  0.27819  1.0000
  H   H13       1.0  0.52377  0.30336  0.22352  1.0000
  O   O4        1.0  0.55295  0.23289  0.20781  1.0000
  H   H14       1.0  0.54332  0.21451  0.16460  1.0000
  C   C22       1.0  0.47196  0.79951  0.35820  1.0000
  C   C23       1.0  0.47065  0.76765  0.28494  1.0000
  C   C24       1.0  0.48573  0.72740  0.28341  1.0000
  H   H15       1.0  0.48516  0.70560  0.22853  1.0000
  O   O5        1.0  0.45605  0.77621  0.21278  1.0000
  H   H16       1.0  0.46578  0.79474  0.17012  1.0000
  C   C25       1.0  0.00309  0.78922  0.33760  1.0000
  C   C26       1.0  0.00403  0.75780  0.26412  1.0000
  C   C27       1.0  0.98859  0.71841  0.26102  1.0000
  H   H17       1.0  0.99056  0.69507  0.20892  1.0000
  H   H18       1.0  0.01634  0.76269  0.21326  1.0000
  C   C28       1.0  0.00578  0.21927  0.33202  1.0000
  C   C29       1.0  0.00499  0.25045  0.25815  1.0000
  C   C30       1.0  0.02047  0.28978  0.25497  1.0000
  H   H19       1.0  0.01853  0.31307  0.20278  1.0000
  H   H20       1.0  0.99272  0.24549  0.20717  1.0000
  C   C31       1.0  0.30978  0.19307  0.35062  1.0000
  C   C32       1.0  0.29402  0.16956  0.28939  1.0000
  C   C33       1.0  0.29126  0.11981  0.29176  1.0000
  H   H21       1.0  0.28083  0.10389  0.24348  1.0000
  O   O6        1.0  0.28207  0.19377  0.22383  1.0000
  H   H22       1.0  0.29357  0.19718  0.17372  1.0000
  C   C34       1.0  0.69882  0.81583  0.34989  1.0000
  C   C35       1.0  0.71466  0.83934  0.28896  1.0000
  C   C36       1.0  0.71750  0.88908  0.29158  1.0000
  H   H23       1.0  0.72802  0.90499  0.24358  1.0000
  O   O7        1.0  0.72665  0.81515  0.22348  1.0000
  H   H24       1.0  0.71520  0.81183  0.17320  1.0000
  C   C37       1.0  0.20445  0.59160  0.33049  1.0000
  C   C38       1.0  0.18957  0.61549  0.26742  1.0000
  C   C39       1.0  0.18689  0.66488  0.26896  1.0000
  H   H25       1.0  0.17545  0.68005  0.22298  1.0000
  H   H26       1.0  0.17981  0.59680  0.22082  1.0000
  C   C40       1.0  0.80428  0.41729  0.33050  1.0000
  C   C41       1.0  0.81924  0.39338  0.26771  1.0000
  C   C42       1.0  0.82200  0.34401  0.26954  1.0000
  H   H27       1.0  0.83345  0.32883  0.22358  1.0000
  H   H28       1.0  0.82896  0.41205  0.22095  1.0000
  C   C43       1.0  0.24405  0.43093  0.34829  1.0000
  C   C44       1.0  0.26367  0.43466  0.28656  1.0000
  C   C45       1.0  0.28263  0.40087  0.28617  1.0000
  H   H29       1.0  0.29615  0.40420  0.23926  1.0000
  O   O8        1.0  0.26457  0.46975  0.22418  1.0000
  H   H30       1.0  0.25469  0.45908  0.17307  1.0000
  C   C46       1.0  0.76453  0.57794  0.34724  1.0000
  C   C47       1.0  0.74489  0.57414  0.28564  1.0000
  C   C48       1.0  0.72594  0.60798  0.28517  1.0000
  H   H31       1.0  0.71239  0.60458  0.23839  1.0000
  O   O9        1.0  0.74396  0.53898  0.22340  1.0000
  H   H32       1.0  0.75381  0.54961  0.17218  1.0000
  C   C49       1.0  0.22619  0.86148  0.33926  1.0000
  C   C50       1.0  0.24563  0.85819  0.27733  1.0000
  C   C51       1.0  0.26429  0.89220  0.27537  1.0000
  H   H33       1.0  0.27788  0.88804  0.22896  1.0000
  H   H34       1.0  0.24627  0.83106  0.23194  1.0000
  C   C52       1.0  0.78275  0.14742  0.34047  1.0000
  C   C53       1.0  0.76330  0.15073  0.27861  1.0000
  C   C54       1.0  0.74466  0.11666  0.27656  1.0000
  H   H35       1.0  0.73106  0.12085  0.23021  1.0000
  H   H36       1.0  0.76264  0.17787  0.23326  1.0000
  C   C55       1.0  0.15489  0.44762  0.34783  1.0000
  C   C56       1.0  0.14684  0.41420  0.28325  1.0000
  C   C57       1.0  0.12281  0.39664  0.28632  1.0000
  H   H37       1.0  0.11702  0.37465  0.23608  1.0000
  O   O10       1.0  0.16145  0.39977  0.21461  1.0000
  H   H38       1.0  0.16016  0.42393  0.16753  1.0000
  C   C58       1.0  0.85363  0.56147  0.34817  1.0000
  C   C59       1.0  0.86201  0.59412  0.28274  1.0000
  C   C60       1.0  0.88600  0.61181  0.28691  1.0000
  H   H39       1.0  0.89207  0.63321  0.23617  1.0000
  O   O11       1.0  0.84775  0.60761  0.21243  1.0000
  H   H40       1.0  0.84936  0.58292  0.16647  1.0000
  C   C61       1.0  0.40259  0.91245  0.33185  1.0000
  C   C62       1.0  0.39411  0.94436  0.26570  1.0000
  C   C63       1.0  0.37021  0.96172  0.26802  1.0000
  H   H41       1.0  0.36500  0.98563  0.22009  1.0000
  H   H42       1.0  0.40558  0.95658  0.21666  1.0000
  C   C64       1.0  0.60661  0.09715  0.32911  1.0000
  C   C65       1.0  0.61545  0.06623  0.26196  1.0000
  C   C66       1.0  0.63930  0.04867  0.26542  1.0000
  H   H43       1.0  0.64480  0.02549  0.21664  1.0000
  H   H44       1.0  0.60428  0.05485  0.21128  1.0000
  C   C67       1.0  0.98630  0.54050  0.35123  1.0000
  C   C68       1.0  0.98554  0.50580  0.28333  1.0000
  C   C69       1.0  0.00314  0.47004  0.28098  1.0000
  H   H45       1.0  0.00243  0.44591  0.22977  1.0000
  H   H46       1.0  0.97266  0.50706  0.23362  1.0000
  C   C70       1.0  0.48715  0.96790  0.33728  1.0000
  C   C71       1.0  0.48659  0.00234  0.26813  1.0000
  C   C72       1.0  0.50399  0.03870  0.26718  1.0000
  H   H47       1.0  0.50329  0.06350  0.21715  1.0000
  O   O12       1.0  0.46968  0.00176  0.20121  1.0000
  H   H48       1.0  0.47528  0.97835  0.15715  1.0000
  C   C73       1.0  0.48914  0.32752  0.34132  1.0000
  C   C74       1.0  0.46374  0.32012  0.34309  1.0000
  C   C75       1.0  0.44699  0.35802  0.33805  1.0000
  C   C76       1.0  0.45661  0.40446  0.33407  1.0000
  C   C77       1.0  0.48205  0.41302  0.33185  1.0000
  C   C78       1.0  0.49798  0.37398  0.33505  1.0000
  H   H49       1.0  0.44494  0.43249  0.32953  1.0000
  H   H50       1.0  0.51641  0.37948  0.33667  1.0000
  H   H51       1.0  0.45736  0.28623  0.34770  1.0000
  C   C79       1.0  0.51951  0.68106  0.34709  1.0000
  C   C80       1.0  0.54490  0.68844  0.34772  1.0000
  C   C81       1.0  0.56161  0.65050  0.34198  1.0000
  C   C82       1.0  0.55194  0.60406  0.33926  1.0000
  C   C83       1.0  0.52650  0.59538  0.34027  1.0000
  C   C84       1.0  0.51064  0.63459  0.34220  1.0000
  H   H52       1.0  0.56363  0.57602  0.33616  1.0000
  H   H53       1.0  0.49219  0.62931  0.34132  1.0000
  H   H54       1.0  0.55130  0.72235  0.35156  1.0000
  C   C85       1.0  0.01963  0.82748  0.34287  1.0000
  C   C86       1.0  0.04503  0.82010  0.34110  1.0000
  C   C87       1.0  0.06178  0.85802  0.34612  1.0000
  C   C88       1.0  0.05214  0.90445  0.35001  1.0000
  C   C89       1.0  0.02671  0.91299  0.35226  1.0000
  C   C90       1.0  0.01079  0.87394  0.34912  1.0000
  H   H55       1.0  0.06381  0.93248  0.35464  1.0000
  H   H56       1.0  0.99235  0.87942  0.34754  1.0000
  H   H57       1.0  0.05142  0.78622  0.33653  1.0000
  C   C91       1.0  0.98925  0.18102  0.33711  1.0000
  C   C92       1.0  0.96385  0.18842  0.33645  1.0000
  C   C93       1.0  0.94714  0.15049  0.34216  1.0000
  C   C94       1.0  0.95680  0.10404  0.34488  1.0000
  C   C95       1.0  0.98225  0.09534  0.34387  1.0000
  C   C96       1.0  0.99811  0.13454  0.34197  1.0000
  H   H58       1.0  0.94511  0.07601  0.34797  1.0000
  H   H59       1.0  0.01656  0.12925  0.34287  1.0000
  H   H60       1.0  0.95747  0.22233  0.33264  1.0000
  C   C97       1.0  0.34560  0.30734  0.33968  1.0000
  C   C98       1.0  0.33938  0.25883  0.34233  1.0000
  C   C99       1.0  0.31496  0.24283  0.34573  1.0000
  C   C100      1.0  0.29637  0.27748  0.34581  1.0000
  C   C101      1.0  0.30157  0.32658  0.34313  1.0000
  C   C102      1.0  0.32633  0.34048  0.34035  1.0000
  H   H61       1.0  0.27863  0.26665  0.34846  1.0000
  H   H62       1.0  0.33047  0.37569  0.33895  1.0000
  H   H63       1.0  0.35309  0.23436  0.34262  1.0000
  C   C103      1.0  0.66298  0.70150  0.33934  1.0000
  C   C104      1.0  0.66919  0.75002  0.34185  1.0000
  C   C105      1.0  0.69361  0.76606  0.34488  1.0000
  C   C106      1.0  0.71220  0.73141  0.34474  1.0000
  C   C107      1.0  0.70702  0.68231  0.34208  1.0000
  C   C108      1.0  0.68226  0.66839  0.33965  1.0000
  H   H64       1.0  0.72995  0.74224  0.34724  1.0000
  H   H65       1.0  0.67813  0.63317  0.33838  1.0000
  H   H66       1.0  0.65548  0.77448  0.34240  1.0000
  C   C109      1.0  0.16317  0.80734  0.34451  1.0000
  C   C110      1.0  0.16939  0.75884  0.34186  1.0000
  C   C111      1.0  0.19381  0.74284  0.33844  1.0000
  C   C112      1.0  0.21240  0.77750  0.33836  1.0000
  C   C113      1.0  0.20720  0.82660  0.34105  1.0000
  C   C114      1.0  0.18244  0.84049  0.34384  1.0000
  H   H67       1.0  0.23014  0.76666  0.33571  1.0000
  H   H68       1.0  0.17830  0.87570  0.34523  1.0000
  H   H69       1.0  0.15568  0.73436  0.34159  1.0000
  C   C115      1.0  0.84577  0.20152  0.34480  1.0000
  C   C116      1.0  0.83956  0.25004  0.34228  1.0000
  C   C117      1.0  0.81514  0.26607  0.33928  1.0000
  C   C118      1.0  0.79655  0.23141  0.33951  1.0000
  C   C119      1.0  0.80174  0.18231  0.34218  1.0000
  C   C120      1.0  0.82650  0.16840  0.34456  1.0000
  H   H70       1.0  0.77880  0.24224  0.33705  1.0000
  H   H71       1.0  0.83062  0.13318  0.34584  1.0000
  H   H72       1.0  0.85328  0.27449  0.34167  1.0000
  C   C121      1.0  0.03872  0.43039  0.34444  1.0000
  C   C122      1.0  0.03053  0.38351  0.33797  1.0000
  C   C123      1.0  0.04693  0.34534  0.33281  1.0000
  C   C124      1.0  0.07219  0.35454  0.33839  1.0000
  C   C125      1.0  0.08098  0.40135  0.34703  1.0000
  C   C126      1.0  0.06395  0.43877  0.34813  1.0000
  H   H73       1.0  0.08421  0.32696  0.33671  1.0000
  H   H74       1.0  0.06999  0.47297  0.35013  1.0000
  H   H75       1.0  0.01217  0.37705  0.33784  1.0000
  C   C127      1.0  0.96954  0.57814  0.35020  1.0000
  C   C128      1.0  0.97804  0.62477  0.34414  1.0000
  C   C129      1.0  0.96180  0.66320  0.33855  1.0000
  C   C130      1.0  0.93647  0.65439  0.34291  1.0000
  C   C131      1.0  0.92746  0.60770  0.35086  1.0000
  C   C132      1.0  0.94430  0.56996  0.35236  1.0000
  H   H76       1.0  0.92457  0.68214  0.34069  1.0000
  H   H77       1.0  0.93817  0.53585  0.35582  1.0000
  H   H78       1.0  0.99645  0.63070  0.34214  1.0000
  C   C133      1.0  0.47009  0.93048  0.33983  1.0000
  C   C134      1.0  0.47828  0.88360  0.34636  1.0000
  C   C135      1.0  0.46187  0.84543  0.35150  1.0000
  C   C136      1.0  0.43662  0.85463  0.34593  1.0000
  C   C137      1.0  0.42783  0.90144  0.33727  1.0000
  C   C138      1.0  0.44486  0.93886  0.33615  1.0000
  H   H79       1.0  0.42460  0.82705  0.34759  1.0000
  H   H80       1.0  0.43881  0.97306  0.33413  1.0000
  H   H81       1.0  0.49664  0.87714  0.34647  1.0000
  C   C139      1.0  0.53927  0.07823  0.33390  1.0000
  C   C140      1.0  0.53075  0.12485  0.33998  1.0000
  C   C141      1.0  0.54699  0.16329  0.34569  1.0000
  C   C142      1.0  0.57232  0.15449  0.34137  1.0000
  C   C143      1.0  0.58134  0.10781  0.33339  1.0000
  C   C144      1.0  0.56451  0.07006  0.33175  1.0000
  H   H82       1.0  0.58422  0.18224  0.34369  1.0000
  H   H83       1.0  0.57065  0.03595  0.32825  1.0000
  H   H84       1.0  0.51235  0.13077  0.34205  1.0000
  C   C145      1.0  0.17835  0.46883  0.34350  1.0000
  C   C146      1.0  0.18078  0.51835  0.33953  1.0000
  C   C147      1.0  0.20374  0.54092  0.33663  1.0000
  C   C148      1.0  0.22477  0.51181  0.34131  1.0000
  C   C149      1.0  0.22319  0.46168  0.34528  1.0000
  C   C150      1.0  0.19966  0.44124  0.34489  1.0000
  H   H85       1.0  0.24154  0.52745  0.34119  1.0000
  H   H86       1.0  0.19787  0.40527  0.34680  1.0000
  H   H87       1.0  0.16529  0.53847  0.33866  1.0000
  C   C151      1.0  0.83023  0.54016  0.34305  1.0000
  C   C152      1.0  0.82786  0.49063  0.33951  1.0000
  C   C153      1.0  0.80492  0.46799  0.33637  1.0000
  C   C154      1.0  0.78386  0.49705  0.34060  1.0000
  C   C155      1.0  0.78540  0.54720  0.34427  1.0000
  C   C156      1.0  0.80891  0.56771  0.34384  1.0000
  H   H88       1.0  0.76710  0.48135  0.34046  1.0000
  H   H89       1.0  0.81069  0.60369  0.34550  1.0000
  H   H90       1.0  0.84338  0.47059  0.33918  1.0000
  C   C157      1.0  0.33044  0.96884  0.34072  1.0000
  C   C158      1.0  0.32800  0.01836  0.34471  1.0000
  C   C159      1.0  0.30503  0.04092  0.34758  1.0000
  C   C160      1.0  0.28401  0.01180  0.34291  1.0000
  C   C161      1.0  0.28559  0.96167  0.33892  1.0000
  C   C162      1.0  0.30913  0.94124  0.33932  1.0000
  H   H91       1.0  0.26723  0.02743  0.34304  1.0000
  H   H92       1.0  0.31093  0.90528  0.33739  1.0000
  H   H93       1.0  0.34349  0.03849  0.34562  1.0000
  C   C163      1.0  0.67853  0.04018  0.34121  1.0000
  C   C164      1.0  0.68088  0.99066  0.34462  1.0000
  C   C165      1.0  0.70382  0.96799  0.34778  1.0000
  C   C166      1.0  0.72489  0.99704  0.34363  1.0000
  C   C167      1.0  0.72336  0.04719  0.34002  1.0000
  C   C168      1.0  0.69985  0.06773  0.34050  1.0000
  H   H94       1.0  0.74165  0.98134  0.34377  1.0000
  H   H95       1.0  0.69808  0.10371  0.33897  1.0000
  H   H96       1.0  0.66536  0.97062  0.34485  1.0000
  C   C169      1.0  0.49223  0.45930  0.33011  1.0000
  C   C170      1.0  0.48548  0.49310  0.39517  1.0000
  C   C171      1.0  0.49733  0.53701  0.39940  1.0000
  H   H97       1.0  0.49212  0.56017  0.44859  1.0000
  H   H98       1.0  0.47241  0.48548  0.44206  1.0000
  C   C172      1.0  0.99256  0.04903  0.34574  1.0000
  C   C173      1.0  0.98593  0.01532  0.41181  1.0000
  C   C174      1.0  0.99761  0.97103  0.41469  1.0000
  H   H99       1.0  0.99232  0.94727  0.46274  1.0000
  O   O13       1.0  0.96845  0.02429  0.47438  1.0000
  H   H100      1.0  0.97645  0.04200  0.52284  1.0000
  C   C175      1.0  0.42132  0.34841  0.33616  1.0000
  C   C176      1.0  0.40448  0.37110  0.39431  1.0000
  C   C177      1.0  0.37960  0.35835  0.39370  1.0000
  H   H101      1.0  0.36814  0.37451  0.43838  1.0000
  O   O14       1.0  0.41174  0.40458  0.45422  1.0000
  H   H102      1.0  0.41793  0.38757  0.50700  1.0000
  C   C178      1.0  0.58728  0.66013  0.33879  1.0000
  C   C179      1.0  0.60432  0.63752  0.39622  1.0000
  C   C180      1.0  0.62920  0.65036  0.39455  1.0000
  H   H103      1.0  0.64079  0.63426  0.43882  1.0000
  O   O15       1.0  0.59731  0.60404  0.45651  1.0000
  H   H104      1.0  0.59125  0.62106  0.50950  1.0000
  C   C181      1.0  0.13818  0.82216  0.34717  1.0000
  C   C182      1.0  0.12138  0.80022  0.40582  1.0000
  C   C183      1.0  0.09666  0.81317  0.40646  1.0000
  H   H105      1.0  0.08533  0.79617  0.45045  1.0000
  H   H106      1.0  0.12703  0.77452  0.44945  1.0000
  C   C184      1.0  0.87076  0.18662  0.34658  1.0000
  C   C185      1.0  0.88776  0.20850  0.40450  1.0000
  C   C186      1.0  0.91246  0.19543  0.40413  1.0000
  H   H107      1.0  0.92395  0.21240  0.44761  1.0000
  H   H108      1.0  0.88228  0.23427  0.44828  1.0000
  C   C187      1.0  0.50569  0.28928  0.34664  1.0000
  C   C188      1.0  0.50476  0.25786  0.42013  1.0000
  C   C189      1.0  0.52022  0.21851  0.42329  1.0000
  H   H109      1.0  0.51820  0.19509  0.47525  1.0000
  H   H110      1.0  0.49242  0.26270  0.47089  1.0000
  C   C190      1.0  0.50299  0.71933  0.35223  1.0000
  C   C191      1.0  0.50379  0.75047  0.42616  1.0000
  C   C192      1.0  0.48833  0.78983  0.42939  1.0000
  H   H111      1.0  0.49026  0.81307  0.48167  1.0000
  H   H112      1.0  0.51603  0.74543  0.47719  1.0000
  C   C193      1.0  0.97206  0.70897  0.33180  1.0000
  C   C194      1.0  0.97062  0.74108  0.40462  1.0000
  C   C195      1.0  0.98571  0.78132  0.40610  1.0000
  H   H113      1.0  0.98500  0.80331  0.46069  1.0000
  O   O16       1.0  0.95583  0.73283  0.47641  1.0000
  H   H114      1.0  0.96544  0.71444  0.51965  1.0000
  C   C196      1.0  0.03686  0.29941  0.32614  1.0000
  C   C197      1.0  0.03815  0.26751  0.39932  1.0000
  C   C198      1.0  0.02306  0.22727  0.40081  1.0000
  H   H115      1.0  0.02363  0.20545  0.45566  1.0000
  O   O17       1.0  0.05277  0.27601  0.47145  1.0000
  H   H116      1.0  0.04306  0.29451  0.51420  1.0000
  C   C199      1.0  0.30431  0.09160  0.35377  1.0000
  C   C200      1.0  0.31919  0.11550  0.41684  1.0000
  C   C201      1.0  0.32187  0.16488  0.41529  1.0000
  H   H117      1.0  0.33329  0.18008  0.46132  1.0000
  H   H118      1.0  0.32893  0.09682  0.46350  1.0000
  C   C202      1.0  0.70446  0.91729  0.35362  1.0000
  C   C203      1.0  0.68947  0.89339  0.41634  1.0000
  C   C204      1.0  0.68670  0.84403  0.41449  1.0000
  H   H119      1.0  0.67522  0.82885  0.46035  1.0000
  H   H120      1.0  0.67971  0.91207  0.46295  1.0000
  C   C205      1.0  0.19900  0.69308  0.33355  1.0000
  C   C206      1.0  0.21476  0.66958  0.39478  1.0000
  C   C207      1.0  0.21749  0.61982  0.39253  1.0000
  H   H121      1.0  0.22798  0.60391  0.44065  1.0000
  O   O18       1.0  0.22673  0.69380  0.46026  1.0000
  H   H122      1.0  0.21525  0.69724  0.51043  1.0000
  C   C208      1.0  0.80993  0.31583  0.33427  1.0000
  C   C209      1.0  0.79413  0.33936  0.39534  1.0000
  C   C210      1.0  0.79129  0.38910  0.39271  1.0000
  H   H123      1.0  0.78080  0.40501  0.44080  1.0000
  O   O19       1.0  0.78220  0.31518  0.46100  1.0000
  H   H124      1.0  0.79370  0.31187  0.51114  1.0000
  C   C211      1.0  0.28258  0.36147  0.34491  1.0000
  C   C212      1.0  0.26315  0.35818  0.40685  1.0000
  C   C213      1.0  0.24449  0.39223  0.40886  1.0000
  H   H125      1.0  0.23091  0.38806  0.45527  1.0000
  H   H126      1.0  0.26251  0.33106  0.45225  1.0000
  C   C214      1.0  0.72601  0.64742  0.34381  1.0000
  C   C215      1.0  0.74545  0.65072  0.40571  1.0000
  C   C216      1.0  0.76410  0.61667  0.40775  1.0000
  H   H127      1.0  0.77769  0.62086  0.45412  1.0000
  H   H128      1.0  0.74610  0.67787  0.45105  1.0000
  C   C217      1.0  0.26474  0.93090  0.33595  1.0000
  C   C218      1.0  0.24511  0.93466  0.39763  1.0000
  C   C219      1.0  0.22616  0.90085  0.39805  1.0000
  H   H129      1.0  0.21262  0.90424  0.44486  1.0000
  O   O20       1.0  0.24420  0.96977  0.45998  1.0000
  H   H130      1.0  0.25408  0.95912  0.51110  1.0000
  C   C220      1.0  0.74423  0.07792  0.33705  1.0000
  C   C221      1.0  0.76388  0.07414  0.39867  1.0000
  C   C222      1.0  0.78282  0.10798  0.39912  1.0000
  H   H131      1.0  0.79637  0.10459  0.44587  1.0000
  O   O21       1.0  0.76481  0.03896  0.46087  1.0000
  H   H132      1.0  0.75496  0.04958  0.51211  1.0000
  C   C223      1.0  0.10622  0.41237  0.35247  1.0000
  C   C224      1.0  0.11469  0.44427  0.41863  1.0000
  C   C225      1.0  0.13859  0.46163  0.41631  1.0000
  H   H133      1.0  0.14381  0.48550  0.46430  1.0000
  H   H134      1.0  0.10324  0.45643  0.46775  1.0000
  C   C226      1.0  0.90219  0.59702  0.35516  1.0000
  C   C227      1.0  0.89338  0.56591  0.42205  1.0000
  C   C228      1.0  0.86953  0.54835  0.41855  1.0000
  H   H135      1.0  0.86406  0.52500  0.46707  1.0000
  H   H136      1.0  0.90459  0.55429  0.47242  1.0000
  C   C229      1.0  0.35390  0.94765  0.33641  1.0000
  C   C230      1.0  0.36195  0.91420  0.40095  1.0000
  C   C231      1.0  0.38599  0.89673  0.39799  1.0000
  H   H137      1.0  0.39177  0.87461  0.44808  1.0000
  O   O22       1.0  0.34732  0.89969  0.46947  1.0000
  H   H138      1.0  0.34858  0.92381  0.51664  1.0000
  C   C232      1.0  0.65514  0.06152  0.33613  1.0000
  C   C233      1.0  0.64672  0.09390  0.40196  1.0000
  C   C234      1.0  0.62274  0.11163  0.39778  1.0000
  H   H139      1.0  0.61663  0.13282  0.44876  1.0000
  O   O23       1.0  0.66093  0.10704  0.47266  1.0000
  H   H140      1.0  0.65926  0.08217  0.51821  1.0000
  C   C235      1.0  0.02166  0.46781  0.34695  1.0000
  C   C236      1.0  0.02221  0.50227  0.41607  1.0000
  C   C237      1.0  0.00482  0.53863  0.41696  1.0000
  H   H141      1.0  0.00551  0.56345  0.46697  1.0000
  O   O24       1.0  0.03912  0.50170  0.48301  1.0000
  H   H142      1.0  0.03352  0.47831  0.52708  1.0000
  C   C238      1.0  0.52251  0.04059  0.33289  1.0000
  C   C239      1.0  0.52326  0.00592  0.40086  1.0000
  C   C240      1.0  0.50567  0.97014  0.40323  1.0000
  H   H143      1.0  0.50639  0.94602  0.45445  1.0000
  H   H144      1.0  0.53616  0.00717  0.45051  1.0000
