data_image0
_chemical_formula_structural       NC2NC8H5CNHC5H4C15H2CNHC2H2C5NC4NC19H18C12H11NCHNCH
_chemical_formula_sum              "N8 C76 H46"
_cell_length_a       29.9066
_cell_length_b       29.9064
_cell_length_c       14.8537
_cell_angle_alpha    90
_cell_angle_beta     90
_cell_angle_gamma    90.0717

_space_group_name_H-M_alt    "P 1"
_space_group_IT_number       1

loop_
  _space_group_symop_operation_xyz
  'x, y, z'

loop_
  _atom_site_type_symbol
  _atom_site_label
  _atom_site_symmetry_multiplicity
  _atom_site_fract_x
  _atom_site_fract_y
  _atom_site_fract_z
  _atom_site_occupancy
  N   N1        1.0  0.05792  0.05547  0.34222  1.0000
  C   C1        1.0  0.10239  0.04656  0.34171  1.0000
  C   C2        1.0  0.89020  0.00561  0.34150  1.0000
  N   N2        1.0  0.95609  0.05663  0.34181  1.0000
  C   C3        1.0  0.84249  0.00521  0.34149  1.0000
  C   C4        1.0  0.81844  0.01090  0.26053  1.0000
  C   C5        1.0  0.77137  0.01081  0.26074  1.0000
  C   C6        1.0  0.17273  0.00508  0.34144  1.0000
  C   C7        1.0  0.26849  0.00521  0.34136  1.0000
  C   C8        1.0  0.31648  0.00514  0.34136  1.0000
  C   C9        1.0  0.38829  0.02330  0.26873  1.0000
  C   C10       1.0  0.34121  0.02357  0.26896  1.0000
  H   H1        1.0  0.40440  0.03745  0.21502  1.0000
  H   H2        1.0  0.32515  0.03830  0.21586  1.0000
  H   H3        1.0  0.03521  0.03276  0.34321  1.0000
  H   H4        1.0  0.83506  0.01549  0.20096  1.0000
  H   H5        1.0  0.75520  0.01603  0.20095  1.0000
  C   C11       1.0  0.52977  0.01358  0.26271  1.0000
  N   N3        1.0  0.48441  0.01361  0.26517  1.0000
  H   H6        1.0  0.54520  0.02098  0.20314  1.0000
  C   C12       1.0  0.91171  0.04797  0.34150  1.0000
  C   C13       1.0  0.62711  0.02587  0.41103  1.0000
  C   C14       1.0  0.67419  0.02603  0.41083  1.0000
  C   C15       1.0  0.19681  0.01332  0.42150  1.0000
  C   C16       1.0  0.24388  0.01354  0.42122  1.0000
  H   H7        1.0  0.26001  0.02062  0.48028  1.0000
  H   H8        1.0  0.18020  0.01945  0.48051  1.0000
  H   H9        1.0  0.69033  0.04282  0.46135  1.0000
  H   H10       1.0  0.61084  0.04236  0.46174  1.0000
  C   C17       1.0  0.00802  0.88773  0.34166  1.0000
  C   C18       1.0  0.00712  0.12253  0.34207  1.0000
  C   C19       1.0  0.00750  0.17024  0.34212  1.0000
  C   C20       1.0  0.00764  0.26595  0.34210  1.0000
  C   C21       1.0  0.00759  0.31392  0.34206  1.0000
  C   C22       1.0  0.00761  0.84000  0.34181  1.0000
  C   C23       1.0  0.00728  0.74425  0.34186  1.0000
  C   C24       1.0  0.00722  0.69626  0.34185  1.0000
  C   C25       1.0  0.00722  0.59987  0.34191  1.0000
  C   C26       1.0  0.00724  0.55211  0.34195  1.0000
  C   C27       1.0  0.00740  0.41011  0.34206  1.0000
  C   C28       1.0  0.00733  0.45788  0.34202  1.0000
  C   C29       1.0  0.01370  0.19427  0.26127  1.0000
  C   C30       1.0  0.01388  0.24134  0.26147  1.0000
  C   C31       1.0  0.02588  0.62452  0.26965  1.0000
  H   H11       1.0  0.01935  0.25749  0.20173  1.0000
  H   H12       1.0  0.01832  0.17764  0.20173  1.0000
  C   C32       1.0  0.01651  0.48301  0.26353  1.0000
  N   N4        1.0  0.01643  0.52837  0.26597  1.0000
  H   H13       1.0  0.02425  0.46762  0.20412  1.0000
  C   C33       1.0  0.01538  0.81593  0.42205  1.0000
  C   C34       1.0  0.01535  0.76887  0.42185  1.0000
  H   H14       1.0  0.02150  0.83255  0.48108  1.0000
  H   H15       1.0  0.02220  0.75274  0.48100  1.0000
  C   C35       1.0  0.12338  0.08835  0.34062  1.0000
  C   C36       1.0  0.09076  0.12096  0.34118  1.0000
  C   C37       1.0  0.04899  0.09994  0.34174  1.0000
  C   C38       1.0  0.12499  0.00469  0.34163  1.0000
  C   C39       1.0  0.10344  0.96232  0.34162  1.0000
  N   N5        1.0  0.05906  0.95366  0.34164  1.0000
  C   C40       1.0  0.05038  0.90928  0.34171  1.0000
  C   C41       1.0  0.09198  0.88807  0.34147  1.0000
  C   C42       1.0  0.12463  0.92072  0.34200  1.0000
  C   C43       1.0  0.96614  0.91034  0.34163  1.0000
  N   N6        1.0  0.95724  0.95480  0.34121  1.0000
  C   C44       1.0  0.91278  0.96373  0.34173  1.0000
  C   C45       1.0  0.89175  0.92197  0.34224  1.0000
  C   C46       1.0  0.92436  0.88935  0.34269  1.0000
  C   C47       1.0  0.96475  0.10101  0.34210  1.0000
  C   C48       1.0  0.92316  0.12221  0.34176  1.0000
  C   C49       1.0  0.89050  0.08956  0.34178  1.0000
  C   C50       1.0  0.98668  0.38557  0.27208  1.0000
  C   C51       1.0  0.98662  0.33849  0.27232  1.0000
  C   C52       1.0  0.74678  0.00485  0.34150  1.0000
  C   C53       1.0  0.69882  0.00478  0.34152  1.0000
  C   C54       1.0  0.67417  0.98349  0.27220  1.0000
  C   C55       1.0  0.62710  0.98364  0.27190  1.0000
  C   C56       1.0  0.60264  0.00475  0.34145  1.0000
  C   C57       1.0  0.99933  0.76888  0.26187  1.0000
  C   C58       1.0  0.99963  0.81595  0.26161  1.0000
  C   C59       1.0  0.02607  0.67160  0.26984  1.0000
  C   C60       1.0  0.19678  0.99696  0.26131  1.0000
  C   C61       1.0  0.24385  0.99688  0.26151  1.0000
  C   C62       1.0  0.41288  0.00494  0.34133  1.0000
  H   H16       1.0  0.25995  0.98975  0.20246  1.0000
  H   H17       1.0  0.18015  0.99063  0.20240  1.0000
  H   H18       1.0  0.15695  0.09477  0.33958  1.0000
  H   H19       1.0  0.09714  0.15454  0.34082  1.0000
  H   H20       1.0  0.97996  0.97751  0.34028  1.0000
  H   H21       1.0  0.15823  0.91453  0.34239  1.0000
  H   H22       1.0  0.09816  0.85447  0.34119  1.0000
  H   H23       1.0  0.99373  0.83258  0.20253  1.0000
  H   H24       1.0  0.99243  0.75277  0.20270  1.0000
  H   H25       1.0  0.91794  0.85577  0.34366  1.0000
  H   H26       1.0  0.85817  0.91558  0.34263  1.0000
  H   H27       1.0  0.85689  0.09571  0.34187  1.0000
  H   H28       1.0  0.61081  0.96716  0.22115  1.0000
  H   H29       1.0  0.69031  0.96678  0.22163  1.0000
  H   H30       1.0  0.97014  0.32231  0.22146  1.0000
  H   H31       1.0  0.97043  0.40180  0.22100  1.0000
  H   H32       1.0  0.04101  0.68771  0.21702  1.0000
  H   H33       1.0  0.04033  0.60846  0.21623  1.0000
  C   C63       1.0  0.46063  0.00486  0.34134  1.0000
  C   C64       1.0  0.55487  0.00476  0.34140  1.0000
  C   C65       1.0  0.00140  0.24135  0.42276  1.0000
  C   C66       1.0  0.00141  0.19429  0.42296  1.0000
  C   C67       1.0  0.02846  0.33863  0.41181  1.0000
  C   C68       1.0  0.02821  0.38570  0.41204  1.0000
  C   C69       1.0  0.77140  0.99904  0.42224  1.0000
  C   C70       1.0  0.81847  0.99932  0.42245  1.0000
  C   C71       1.0  0.98855  0.62450  0.41412  1.0000
  C   C72       1.0  0.98838  0.67157  0.41389  1.0000
  C   C73       1.0  0.34110  0.98659  0.41373  1.0000
  C   C74       1.0  0.38818  0.98668  0.41394  1.0000
  H   H34       1.0  0.40421  0.97245  0.46763  1.0000
  H   H35       1.0  0.32496  0.97192  0.46684  1.0000
  H   H36       1.0  0.91700  0.15582  0.34157  1.0000
  H   H37       1.0  0.83512  0.99497  0.48205  1.0000
  H   H38       1.0  0.75527  0.99378  0.48207  1.0000
  H   H39       1.0  0.99659  0.17766  0.48246  1.0000
  H   H40       1.0  0.99586  0.25750  0.48244  1.0000
  H   H41       1.0  0.04440  0.40204  0.46313  1.0000
  H   H42       1.0  0.04497  0.32255  0.46271  1.0000
  H   H43       1.0  0.97344  0.68767  0.46670  1.0000
  H   H44       1.0  0.97412  0.60842  0.46757  1.0000
  N   N7        1.0  0.99809  0.52836  0.41796  1.0000
  C   C75       1.0  0.99809  0.48300  0.42047  1.0000
  H   H45       1.0  0.99040  0.46759  0.47991  1.0000
  N   N8        1.0  0.48434  0.99605  0.41752  1.0000
  C   C76       1.0  0.52970  0.99598  0.42004  1.0000
  H   H46       1.0  0.54508  0.98856  0.47964  1.0000
