data_image0
_chemical_formula_structural       C8H8C6H3COH3OHOHC16H4C3H2C4HCOH3C6H2C6H4C2H4C8H8C6H3COH3OHOHC16H4C3H2C4HCOH3C6H2C6H4C2H4C8H8C6H3COH3OHOHC16H4C3H2C4HCOH3C6H2C6H4C2H4C8H8C6H3COH3OHOHC16H4C3H2C4HCOH3C6H2C6H4C2H4
_chemical_formula_sum              "C212 H144 O16"
_cell_length_a       33.879
_cell_length_b       33.879
_cell_length_c       14.9284
_cell_angle_alpha    90
_cell_angle_beta     90
_cell_angle_gamma    89.9983

_space_group_name_H-M_alt    "P 1"
_space_group_IT_number       1

loop_
  _space_group_symop_operation_xyz
  'x, y, z'

loop_
  _atom_site_type_symbol
  _atom_site_label
  _atom_site_symmetry_multiplicity
  _atom_site_fract_x
  _atom_site_fract_y
  _atom_site_fract_z
  _atom_site_occupancy
  C   C1        1.0  0.99974  0.47949  0.29305  1.0000
  C   C2        1.0  0.99993  0.02076  0.29236  1.0000
  C   C3        1.0  0.00204  0.10342  0.32722  1.0000
  C   C4        1.0  0.99984  0.08837  0.23847  1.0000
  C   C5        1.0  0.99918  0.04764  0.22087  1.0000
  C   C6        1.0  0.99892  0.45200  0.22260  1.0000
  C   C7        1.0  0.99812  0.41138  0.24216  1.0000
  C   C8        1.0  0.99831  0.39739  0.33182  1.0000
  H   H1        1.0  0.10822  0.00217  0.03373  1.0000
  H   H2        1.0  0.03897  0.00071  0.06389  1.0000
  H   H3        1.0  0.46163  0.50024  0.06303  1.0000
  H   H4        1.0  0.39283  0.49995  0.03258  1.0000
  H   H5        1.0  0.99847  0.10707  0.18472  1.0000
  H   H6        1.0  0.99823  0.03812  0.15650  1.0000
  H   H7        1.0  0.99891  0.46102  0.15769  1.0000
  H   H8        1.0  0.99790  0.39195  0.18964  1.0000
  C   C9        1.0  0.00432  0.14539  0.34175  1.0000
  C   C10       1.0  0.02642  0.16981  0.28309  1.0000
  C   C11       1.0  0.02664  0.21151  0.28950  1.0000
  C   C12       1.0  0.00458  0.22984  0.35924  1.0000
  C   C13       1.0  0.47197  0.29000  0.31148  1.0000
  C   C14       1.0  0.47032  0.33124  0.30322  1.0000
  H   H9        1.0  0.45276  0.27327  0.27446  1.0000
  H   H10       1.0  0.44954  0.34322  0.26148  1.0000
  H   H11       1.0  0.04273  0.15694  0.23326  1.0000
  C   C15       1.0  0.04922  0.23368  0.21995  1.0000
  O   O1        1.0  0.53015  0.22869  0.13511  1.0000
  H   H12       1.0  0.05132  0.26518  0.23469  1.0000
  H   H13       1.0  0.07940  0.22221  0.21693  1.0000
  H   H14       1.0  0.04591  0.24282  0.08986  1.0000
  O   O2        1.0  0.21346  0.09037  0.01827  1.0000
  H   H15       1.0  0.25228  0.04466  0.01643  1.0000
  O   O3        1.0  0.29212  0.53066  0.30369  1.0000
  H   H16       1.0  0.28209  0.54820  0.25622  1.0000
  C   C16       1.0  0.00051  0.46648  0.38188  1.0000
  C   C17       1.0  0.00070  0.03455  0.38058  1.0000
  C   C18       1.0  0.00182  0.07559  0.39862  1.0000
  C   C19       1.0  0.00007  0.42565  0.40197  1.0000
  C   C20       1.0  0.03466  0.00092  0.50617  1.0000
  C   C21       1.0  0.02118  0.00092  0.59472  1.0000
  C   C22       1.0  0.47989  0.50057  0.59439  1.0000
  C   C23       1.0  0.46662  0.50063  0.50577  1.0000
  C   C24       1.0  0.45254  0.50014  0.66500  1.0000
  C   C25       1.0  0.41189  0.49939  0.64609  1.0000
  C   C26       1.0  0.39743  0.49840  0.55675  1.0000
  C   C27       1.0  0.42571  0.49947  0.48636  1.0000
  C   C28       1.0  0.07558  0.00151  0.48715  1.0000
  C   C29       1.0  0.10348  0.00276  0.55809  1.0000
  C   C30       1.0  0.08904  0.00222  0.64739  1.0000
  C   C31       1.0  0.04833  0.00118  0.66589  1.0000
  H   H17       1.0  0.41689  0.49842  0.42090  1.0000
  H   H18       1.0  0.08474  0.00220  0.42188  1.0000
  H   H19       1.0  0.00352  0.08483  0.46369  1.0000
  H   H20       1.0  0.99997  0.41681  0.46749  1.0000
  C   C32       1.0  0.00072  0.00072  0.44360  1.0000
  C   C33       1.0  0.48339  0.20582  0.41995  1.0000
  C   C34       1.0  0.48334  0.16439  0.41145  1.0000
  H   H21       1.0  0.46676  0.21844  0.46958  1.0000
  H   H22       1.0  0.46624  0.14829  0.45455  1.0000
  C   C35       1.0  0.00093  0.27175  0.36553  1.0000
  C   C36       1.0  0.99742  0.35579  0.34882  1.0000
  C   C37       1.0  0.02541  0.33747  0.40566  1.0000
  C   C38       1.0  0.02815  0.29575  0.41393  1.0000
  H   H23       1.0  0.04541  0.35500  0.43801  1.0000
  C   C39       1.0  0.05933  0.27713  0.47092  1.0000
  O   O4        1.0  0.08634  0.30329  0.51501  1.0000
  H   H24       1.0  0.07646  0.25623  0.43074  1.0000
  H   H25       1.0  0.04456  0.26040  0.52371  1.0000
  H   H26       1.0  0.10398  0.31469  0.46938  1.0000
  C   C40       1.0  0.35556  0.99693  0.54047  1.0000
  C   C41       1.0  0.33741  0.01948  0.47197  1.0000
  C   C42       1.0  0.29576  0.02142  0.46140  1.0000
  C   C43       1.0  0.27123  0.99992  0.52168  1.0000
  C   C44       1.0  0.28917  0.47590  0.58740  1.0000
  C   C45       1.0  0.33041  0.47427  0.59610  1.0000
  H   H27       1.0  0.27224  0.46030  0.63193  1.0000
  H   H28       1.0  0.34187  0.45677  0.64555  1.0000
  C   C46       1.0  0.22927  0.00391  0.52537  1.0000
  C   C47       1.0  0.20561  0.47711  0.47652  1.0000
  C   C48       1.0  0.16418  0.47768  0.48413  1.0000
  C   C49       1.0  0.14515  0.00459  0.54212  1.0000
  C   C50       1.0  0.16901  0.03202  0.58893  1.0000
  C   C51       1.0  0.21074  0.03245  0.58157  1.0000
  H   H29       1.0  0.21849  0.45610  0.43676  1.0000
  H   H30       1.0  0.14814  0.45677  0.45060  1.0000
  H   H31       1.0  0.15546  0.05172  0.63075  1.0000
  H   H32       1.0  0.35478  0.03650  0.43123  1.0000
  C   C52       1.0  0.27994  0.04667  0.38802  1.0000
  C   C53       1.0  0.23475  0.06125  0.63467  1.0000
  H   H33       1.0  0.25524  0.07665  0.59004  1.0000
  H   H34       1.0  0.20128  0.10893  0.64228  1.0000
  H   H35       1.0  0.24775  0.04847  0.38889  1.0000
  H   H36       1.0  0.29140  0.07669  0.39584  1.0000
  C   C54       1.0  0.99974  0.97949  0.29305  1.0000
  C   C55       1.0  0.99993  0.52076  0.29236  1.0000
  C   C56       1.0  0.00204  0.60342  0.32722  1.0000
  C   C57       1.0  0.99984  0.58838  0.23847  1.0000
  C   C58       1.0  0.99918  0.54764  0.22087  1.0000
  C   C59       1.0  0.99892  0.95200  0.22260  1.0000
  C   C60       1.0  0.99812  0.91138  0.24216  1.0000
  C   C61       1.0  0.99831  0.89739  0.33182  1.0000
  H   H37       1.0  0.10822  0.50218  0.03373  1.0000
  H   H38       1.0  0.03897  0.50071  0.06389  1.0000
  H   H39       1.0  0.46163  0.00024  0.06303  1.0000
  H   H40       1.0  0.39283  0.99995  0.03258  1.0000
  H   H41       1.0  0.99847  0.60707  0.18472  1.0000
  H   H42       1.0  0.99823  0.53813  0.15650  1.0000
  H   H43       1.0  0.99891  0.96102  0.15769  1.0000
  H   H44       1.0  0.99790  0.89195  0.18964  1.0000
  C   C62       1.0  0.00432  0.64539  0.34175  1.0000
  C   C63       1.0  0.02642  0.66980  0.28309  1.0000
  C   C64       1.0  0.02664  0.71151  0.28950  1.0000
  C   C65       1.0  0.00458  0.72984  0.35924  1.0000
  C   C66       1.0  0.47197  0.79000  0.31148  1.0000
  C   C67       1.0  0.47032  0.83124  0.30322  1.0000
  H   H45       1.0  0.45276  0.77328  0.27446  1.0000
  H   H46       1.0  0.44954  0.84322  0.26148  1.0000
  H   H47       1.0  0.04273  0.65694  0.23326  1.0000
  C   C68       1.0  0.04922  0.73368  0.21995  1.0000
  O   O5        1.0  0.53015  0.72869  0.13511  1.0000
  H   H48       1.0  0.05132  0.76518  0.23469  1.0000
  H   H49       1.0  0.07940  0.72221  0.21693  1.0000
  H   H50       1.0  0.04591  0.74282  0.08986  1.0000
  O   O6        1.0  0.21346  0.59037  0.01827  1.0000
  H   H51       1.0  0.25228  0.54466  0.01643  1.0000
  O   O7        1.0  0.29212  0.03066  0.30369  1.0000
  H   H52       1.0  0.28209  0.04820  0.25622  1.0000
  C   C69       1.0  0.00051  0.96648  0.38188  1.0000
  C   C70       1.0  0.00070  0.53455  0.38058  1.0000
  C   C71       1.0  0.00181  0.57559  0.39862  1.0000
  C   C72       1.0  0.00007  0.92565  0.40197  1.0000
  C   C73       1.0  0.03466  0.50091  0.50617  1.0000
  C   C74       1.0  0.02118  0.50092  0.59472  1.0000
  C   C75       1.0  0.47989  0.00057  0.59439  1.0000
  C   C76       1.0  0.46662  0.00063  0.50577  1.0000
  C   C77       1.0  0.45254  0.00014  0.66500  1.0000
  C   C78       1.0  0.41189  0.99939  0.64609  1.0000
  C   C79       1.0  0.39743  0.99840  0.55675  1.0000
  C   C80       1.0  0.42571  0.99947  0.48636  1.0000
  C   C81       1.0  0.07558  0.50151  0.48715  1.0000
  C   C82       1.0  0.10348  0.50276  0.55809  1.0000
  C   C83       1.0  0.08904  0.50222  0.64739  1.0000
  C   C84       1.0  0.04833  0.50118  0.66589  1.0000
  H   H53       1.0  0.41689  0.99842  0.42090  1.0000
  H   H54       1.0  0.08474  0.50221  0.42188  1.0000
  H   H55       1.0  0.00352  0.58483  0.46369  1.0000
  H   H56       1.0  0.99997  0.91681  0.46749  1.0000
  C   C85       1.0  0.00072  0.50072  0.44360  1.0000
  C   C86       1.0  0.48339  0.70582  0.41995  1.0000
  C   C87       1.0  0.48334  0.66439  0.41145  1.0000
  H   H57       1.0  0.46677  0.71845  0.46958  1.0000
  H   H58       1.0  0.46624  0.64829  0.45455  1.0000
  C   C88       1.0  0.00093  0.77175  0.36553  1.0000
  C   C89       1.0  0.99742  0.85579  0.34882  1.0000
  C   C90       1.0  0.02541  0.83747  0.40566  1.0000
  C   C91       1.0  0.02815  0.79576  0.41393  1.0000
  H   H59       1.0  0.04541  0.85500  0.43801  1.0000
  C   C92       1.0  0.05933  0.77713  0.47092  1.0000
  O   O8        1.0  0.08634  0.80329  0.51501  1.0000
  H   H60       1.0  0.07646  0.75623  0.43074  1.0000
  H   H61       1.0  0.04456  0.76040  0.52371  1.0000
  H   H62       1.0  0.10398  0.81469  0.46938  1.0000
  C   C93       1.0  0.35556  0.49693  0.54047  1.0000
  C   C94       1.0  0.33741  0.51948  0.47197  1.0000
  C   C95       1.0  0.29576  0.52142  0.46140  1.0000
  C   C96       1.0  0.27123  0.49992  0.52168  1.0000
  C   C97       1.0  0.28917  0.97590  0.58740  1.0000
  C   C98       1.0  0.33041  0.97427  0.59610  1.0000
  H   H63       1.0  0.27224  0.96030  0.63193  1.0000
  H   H64       1.0  0.34187  0.95677  0.64555  1.0000
  C   C99       1.0  0.22927  0.50391  0.52537  1.0000
  C   C100      1.0  0.20561  0.97711  0.47652  1.0000
  C   C101      1.0  0.16418  0.97768  0.48413  1.0000
  C   C102      1.0  0.14515  0.50459  0.54212  1.0000
  C   C103      1.0  0.16901  0.53202  0.58893  1.0000
  C   C104      1.0  0.21074  0.53245  0.58157  1.0000
  H   H65       1.0  0.21849  0.95610  0.43676  1.0000
  H   H66       1.0  0.14814  0.95677  0.45060  1.0000
  H   H67       1.0  0.15546  0.55172  0.63075  1.0000
  H   H68       1.0  0.35478  0.53650  0.43123  1.0000
  C   C105      1.0  0.27994  0.54668  0.38802  1.0000
  C   C106      1.0  0.23475  0.56126  0.63467  1.0000
  H   H69       1.0  0.25524  0.57665  0.59004  1.0000
  H   H70       1.0  0.20128  0.60893  0.64228  1.0000
  H   H71       1.0  0.24775  0.54847  0.38889  1.0000
  H   H72       1.0  0.29140  0.57669  0.39584  1.0000
  C   C107      1.0  0.49974  0.47949  0.29305  1.0000
  C   C108      1.0  0.49993  0.02076  0.29236  1.0000
  C   C109      1.0  0.50203  0.10342  0.32722  1.0000
  C   C110      1.0  0.49984  0.08837  0.23847  1.0000
  C   C111      1.0  0.49917  0.04764  0.22087  1.0000
  C   C112      1.0  0.49892  0.45200  0.22260  1.0000
  C   C113      1.0  0.49812  0.41138  0.24216  1.0000
  C   C114      1.0  0.49831  0.39739  0.33182  1.0000
  H   H73       1.0  0.60822  0.00217  0.03373  1.0000
  H   H74       1.0  0.53897  0.00071  0.06389  1.0000
  H   H75       1.0  0.96163  0.50024  0.06303  1.0000
  H   H76       1.0  0.89283  0.49995  0.03258  1.0000
  H   H77       1.0  0.49847  0.10707  0.18472  1.0000
  H   H78       1.0  0.49823  0.03812  0.15650  1.0000
  H   H79       1.0  0.49891  0.46102  0.15769  1.0000
  H   H80       1.0  0.49789  0.39195  0.18964  1.0000
  C   C115      1.0  0.50432  0.14539  0.34175  1.0000
  C   C116      1.0  0.52642  0.16981  0.28309  1.0000
  C   C117      1.0  0.52664  0.21151  0.28950  1.0000
  C   C118      1.0  0.50458  0.22984  0.35924  1.0000
  C   C119      1.0  0.97197  0.29000  0.31148  1.0000
  C   C120      1.0  0.97032  0.33124  0.30322  1.0000
  H   H81       1.0  0.95276  0.27327  0.27446  1.0000
  H   H82       1.0  0.94954  0.34322  0.26148  1.0000
  H   H83       1.0  0.54273  0.15694  0.23326  1.0000
  C   C121      1.0  0.54922  0.23368  0.21995  1.0000
  O   O9        1.0  0.03015  0.22869  0.13511  1.0000
  H   H84       1.0  0.55132  0.26518  0.23469  1.0000
  H   H85       1.0  0.57940  0.22221  0.21693  1.0000
  H   H86       1.0  0.54591  0.24282  0.08986  1.0000
  O   O10       1.0  0.71346  0.09037  0.01827  1.0000
  H   H87       1.0  0.75228  0.04466  0.01643  1.0000
  O   O11       1.0  0.79212  0.53066  0.30369  1.0000
  H   H88       1.0  0.78210  0.54820  0.25622  1.0000
  C   C122      1.0  0.50051  0.46648  0.38188  1.0000
  C   C123      1.0  0.50070  0.03455  0.38058  1.0000
  C   C124      1.0  0.50182  0.07559  0.39862  1.0000
  C   C125      1.0  0.50007  0.42565  0.40197  1.0000
  C   C126      1.0  0.53466  0.00092  0.50617  1.0000
  C   C127      1.0  0.52118  0.00092  0.59472  1.0000
  C   C128      1.0  0.97990  0.50057  0.59439  1.0000
  C   C129      1.0  0.96662  0.50063  0.50577  1.0000
  C   C130      1.0  0.95254  0.50014  0.66500  1.0000
  C   C131      1.0  0.91189  0.49939  0.64609  1.0000
  C   C132      1.0  0.89743  0.49840  0.55675  1.0000
  C   C133      1.0  0.92571  0.49947  0.48636  1.0000
  C   C134      1.0  0.57558  0.00151  0.48715  1.0000
  C   C135      1.0  0.60349  0.00276  0.55809  1.0000
  C   C136      1.0  0.58904  0.00222  0.64739  1.0000
  C   C137      1.0  0.54833  0.00118  0.66589  1.0000
  H   H89       1.0  0.91689  0.49842  0.42090  1.0000
  H   H90       1.0  0.58474  0.00220  0.42188  1.0000
  H   H91       1.0  0.50352  0.08483  0.46369  1.0000
  H   H92       1.0  0.49997  0.41681  0.46749  1.0000
  C   C138      1.0  0.50072  0.00072  0.44360  1.0000
  C   C139      1.0  0.98339  0.20582  0.41995  1.0000
  C   C140      1.0  0.98334  0.16439  0.41145  1.0000
  H   H93       1.0  0.96677  0.21844  0.46958  1.0000
  H   H94       1.0  0.96624  0.14829  0.45455  1.0000
  C   C141      1.0  0.50093  0.27175  0.36553  1.0000
  C   C142      1.0  0.49742  0.35579  0.34882  1.0000
  C   C143      1.0  0.52540  0.33747  0.40566  1.0000
  C   C144      1.0  0.52815  0.29575  0.41393  1.0000
  H   H95       1.0  0.54541  0.35500  0.43801  1.0000
  C   C145      1.0  0.55933  0.27713  0.47092  1.0000
  O   O12       1.0  0.58634  0.30329  0.51501  1.0000
  H   H96       1.0  0.57646  0.25623  0.43074  1.0000
  H   H97       1.0  0.54456  0.26040  0.52371  1.0000
  H   H98       1.0  0.60398  0.31469  0.46938  1.0000
  C   C146      1.0  0.85556  0.99693  0.54047  1.0000
  C   C147      1.0  0.83741  0.01948  0.47197  1.0000
  C   C148      1.0  0.79576  0.02142  0.46140  1.0000
  C   C149      1.0  0.77124  0.99992  0.52168  1.0000
  C   C150      1.0  0.78917  0.47590  0.58740  1.0000
  C   C151      1.0  0.83041  0.47427  0.59610  1.0000
  H   H99       1.0  0.77224  0.46030  0.63193  1.0000
  H   H100      1.0  0.84187  0.45677  0.64555  1.0000
  C   C152      1.0  0.72927  0.00391  0.52537  1.0000
  C   C153      1.0  0.70561  0.47711  0.47652  1.0000
  C   C154      1.0  0.66418  0.47768  0.48413  1.0000
  C   C155      1.0  0.64515  0.00459  0.54212  1.0000
  C   C156      1.0  0.66901  0.03202  0.58893  1.0000
  C   C157      1.0  0.71074  0.03245  0.58157  1.0000
  H   H101      1.0  0.71849  0.45610  0.43676  1.0000
  H   H102      1.0  0.64814  0.45677  0.45060  1.0000
  H   H103      1.0  0.65546  0.05172  0.63075  1.0000
  H   H104      1.0  0.85478  0.03650  0.43123  1.0000
  C   C158      1.0  0.77994  0.04667  0.38802  1.0000
  C   C159      1.0  0.73475  0.06125  0.63467  1.0000
  H   H105      1.0  0.75523  0.07665  0.59004  1.0000
  H   H106      1.0  0.70128  0.10893  0.64228  1.0000
  H   H107      1.0  0.74775  0.04847  0.38889  1.0000
  H   H108      1.0  0.79140  0.07669  0.39584  1.0000
  C   C160      1.0  0.49974  0.97949  0.29305  1.0000
  C   C161      1.0  0.49993  0.52076  0.29236  1.0000
  C   C162      1.0  0.50203  0.60342  0.32722  1.0000
  C   C163      1.0  0.49984  0.58838  0.23847  1.0000
  C   C164      1.0  0.49917  0.54764  0.22087  1.0000
  C   C165      1.0  0.49892  0.95200  0.22260  1.0000
  C   C166      1.0  0.49812  0.91138  0.24216  1.0000
  C   C167      1.0  0.49831  0.89739  0.33182  1.0000
  H   H109      1.0  0.60822  0.50218  0.03373  1.0000
  H   H110      1.0  0.53897  0.50071  0.06389  1.0000
  H   H111      1.0  0.96163  0.00024  0.06303  1.0000
  H   H112      1.0  0.89283  0.99995  0.03258  1.0000
  H   H113      1.0  0.49847  0.60707  0.18472  1.0000
  H   H114      1.0  0.49823  0.53813  0.15650  1.0000
  H   H115      1.0  0.49891  0.96102  0.15769  1.0000
  H   H116      1.0  0.49789  0.89195  0.18964  1.0000
  C   C168      1.0  0.50432  0.64539  0.34175  1.0000
  C   C169      1.0  0.52642  0.66980  0.28309  1.0000
  C   C170      1.0  0.52664  0.71151  0.28950  1.0000
  C   C171      1.0  0.50458  0.72984  0.35924  1.0000
  C   C172      1.0  0.97197  0.79000  0.31148  1.0000
  C   C173      1.0  0.97032  0.83124  0.30322  1.0000
  H   H117      1.0  0.95276  0.77328  0.27446  1.0000
  H   H118      1.0  0.94954  0.84322  0.26148  1.0000
  H   H119      1.0  0.54273  0.65694  0.23326  1.0000
  C   C174      1.0  0.54922  0.73368  0.21995  1.0000
  O   O13       1.0  0.03015  0.72869  0.13511  1.0000
  H   H120      1.0  0.55132  0.76518  0.23469  1.0000
  H   H121      1.0  0.57940  0.72221  0.21693  1.0000
  H   H122      1.0  0.54591  0.74282  0.08986  1.0000
  O   O14       1.0  0.71346  0.59037  0.01827  1.0000
  H   H123      1.0  0.75228  0.54466  0.01643  1.0000
  O   O15       1.0  0.79212  0.03066  0.30369  1.0000
  H   H124      1.0  0.78210  0.04820  0.25622  1.0000
  C   C175      1.0  0.50051  0.96648  0.38188  1.0000
  C   C176      1.0  0.50070  0.53455  0.38058  1.0000
  C   C177      1.0  0.50182  0.57559  0.39862  1.0000
  C   C178      1.0  0.50007  0.92565  0.40197  1.0000
  C   C179      1.0  0.53466  0.50091  0.50617  1.0000
  C   C180      1.0  0.52118  0.50092  0.59472  1.0000
  C   C181      1.0  0.97990  0.00057  0.59439  1.0000
  C   C182      1.0  0.96662  0.00063  0.50577  1.0000
  C   C183      1.0  0.95254  0.00014  0.66500  1.0000
  C   C184      1.0  0.91189  0.99939  0.64609  1.0000
  C   C185      1.0  0.89743  0.99840  0.55675  1.0000
  C   C186      1.0  0.92571  0.99947  0.48636  1.0000
  C   C187      1.0  0.57558  0.50151  0.48715  1.0000
  C   C188      1.0  0.60349  0.50276  0.55809  1.0000
  C   C189      1.0  0.58904  0.50222  0.64739  1.0000
  C   C190      1.0  0.54833  0.50118  0.66589  1.0000
  H   H125      1.0  0.91689  0.99842  0.42090  1.0000
  H   H126      1.0  0.58474  0.50221  0.42188  1.0000
  H   H127      1.0  0.50352  0.58483  0.46369  1.0000
  H   H128      1.0  0.49997  0.91681  0.46749  1.0000
  C   C191      1.0  0.50072  0.50072  0.44360  1.0000
  C   C192      1.0  0.98339  0.70582  0.41995  1.0000
  C   C193      1.0  0.98334  0.66439  0.41145  1.0000
  H   H129      1.0  0.96677  0.71845  0.46958  1.0000
  H   H130      1.0  0.96624  0.64829  0.45455  1.0000
  C   C194      1.0  0.50093  0.77175  0.36553  1.0000
  C   C195      1.0  0.49742  0.85579  0.34882  1.0000
  C   C196      1.0  0.52540  0.83747  0.40566  1.0000
  C   C197      1.0  0.52815  0.79576  0.41393  1.0000
  H   H131      1.0  0.54541  0.85500  0.43801  1.0000
  C   C198      1.0  0.55933  0.77713  0.47092  1.0000
  O   O16       1.0  0.58634  0.80329  0.51501  1.0000
  H   H132      1.0  0.57646  0.75623  0.43074  1.0000
  H   H133      1.0  0.54456  0.76040  0.52371  1.0000
  H   H134      1.0  0.60398  0.81469  0.46938  1.0000
  C   C199      1.0  0.85556  0.49693  0.54047  1.0000
  C   C200      1.0  0.83741  0.51948  0.47197  1.0000
  C   C201      1.0  0.79576  0.52142  0.46140  1.0000
  C   C202      1.0  0.77124  0.49992  0.52168  1.0000
  C   C203      1.0  0.78917  0.97590  0.58740  1.0000
  C   C204      1.0  0.83041  0.97427  0.59610  1.0000
  H   H135      1.0  0.77224  0.96030  0.63193  1.0000
  H   H136      1.0  0.84187  0.95677  0.64555  1.0000
  C   C205      1.0  0.72927  0.50391  0.52537  1.0000
  C   C206      1.0  0.70561  0.97711  0.47652  1.0000
  C   C207      1.0  0.66418  0.97768  0.48413  1.0000
  C   C208      1.0  0.64515  0.50459  0.54212  1.0000
  C   C209      1.0  0.66901  0.53202  0.58893  1.0000
  C   C210      1.0  0.71074  0.53245  0.58157  1.0000
  H   H137      1.0  0.71849  0.95610  0.43676  1.0000
  H   H138      1.0  0.64814  0.95677  0.45060  1.0000
  H   H139      1.0  0.65546  0.55172  0.63075  1.0000
  H   H140      1.0  0.85478  0.53650  0.43123  1.0000
  C   C211      1.0  0.77994  0.54668  0.38802  1.0000
  C   C212      1.0  0.73475  0.56126  0.63467  1.0000
  H   H141      1.0  0.75523  0.57665  0.59004  1.0000
  H   H142      1.0  0.70127  0.60893  0.64228  1.0000
  H   H143      1.0  0.74775  0.54847  0.38889  1.0000
  H   H144      1.0  0.79140  0.57669  0.39584  1.0000
