data_image0
_chemical_formula_structural       C3HNC3HC3HNC3HC2HNC3HC2HNC4H2C2NC3HCH3CHC3HCH3CHCH2C4HNCHCH3C3HCH3CH2C2NC3HCH3CHCHCH3C3H2C4H2N2CHCH3C3HCH3CHC2HC2HN2C3HCH3CHC3HCH3CHCH2C4HNC3HCH3CHC3HCH3CHC2HC2HN2C3HCH3CHCHCH3C4H2C4H2N2C3HCH3CHC3HCH3CH
_chemical_formula_sum              "C128 H104 N16"
_cell_length_a       31.5534
_cell_length_b       31.5534
_cell_length_c       14.8948
_cell_angle_alpha    90
_cell_angle_beta     90
_cell_angle_gamma    90

_space_group_name_H-M_alt    "P 1"
_space_group_IT_number       1

loop_
  _space_group_symop_operation_xyz
  'x, y, z'

loop_
  _atom_site_type_symbol
  _atom_site_label
  _atom_site_symmetry_multiplicity
  _atom_site_fract_x
  _atom_site_fract_y
  _atom_site_fract_z
  _atom_site_occupancy
  C   C1        1.0  0.01956  0.01983  0.33982  1.0000
  C   C2        1.0  0.09600  0.04158  0.34128  1.0000
  C   C3        1.0  0.06389  0.01030  0.34180  1.0000
  H   H1        1.0  0.43247  0.02731  0.33701  1.0000
  N   N1        1.0  0.13829  0.03384  0.34265  1.0000
  C   C4        1.0  0.29901  0.00735  0.33515  1.0000
  C   C5        1.0  0.22826  0.03941  0.33270  1.0000
  C   C6        1.0  0.34401  0.00864  0.33379  1.0000
  H   H2        1.0  0.35948  0.03681  0.33053  1.0000
  C   C7        1.0  0.51956  0.01983  0.33982  1.0000
  C   C8        1.0  0.59601  0.04158  0.34128  1.0000
  C   C9        1.0  0.56388  0.01030  0.34180  1.0000
  H   H3        1.0  0.93247  0.02731  0.33701  1.0000
  N   N2        1.0  0.63829  0.03384  0.34265  1.0000
  C   C10       1.0  0.79901  0.00735  0.33515  1.0000
  C   C11       1.0  0.72826  0.03941  0.33270  1.0000
  C   C12       1.0  0.84401  0.00864  0.33379  1.0000
  H   H4        1.0  0.85949  0.03681  0.33053  1.0000
  C   C13       1.0  0.01000  0.06415  0.33785  1.0000
  C   C14       1.0  0.04127  0.09628  0.33775  1.0000
  H   H5        1.0  0.02707  0.43277  0.34240  1.0000
  N   N3        1.0  0.03350  0.13856  0.33674  1.0000
  C   C15       1.0  0.00720  0.29930  0.34360  1.0000
  C   C16       1.0  0.03924  0.22853  0.34413  1.0000
  C   C17       1.0  0.00848  0.34430  0.34482  1.0000
  H   H6        1.0  0.03665  0.35981  0.34667  1.0000
  C   C18       1.0  0.01000  0.56415  0.33785  1.0000
  C   C19       1.0  0.04127  0.59628  0.33775  1.0000
  H   H7        1.0  0.02707  0.93277  0.34240  1.0000
  N   N4        1.0  0.03350  0.63856  0.33674  1.0000
  C   C20       1.0  0.01956  0.51983  0.33982  1.0000
  C   C21       1.0  0.00720  0.79930  0.34360  1.0000
  C   C22       1.0  0.03924  0.72854  0.34413  1.0000
  C   C23       1.0  0.00848  0.84430  0.34482  1.0000
  H   H8        1.0  0.03665  0.85981  0.34667  1.0000
  H   H9        1.0  0.47960  0.07444  0.33673  1.0000
  C   C24       1.0  0.46539  0.41092  0.34177  1.0000
  C   C25       1.0  0.49666  0.44306  0.34164  1.0000
  N   N5        1.0  0.47316  0.36865  0.34265  1.0000
  C   C26       1.0  0.49948  0.20791  0.33560  1.0000
  C   C27       1.0  0.46266  0.23407  0.33021  1.0000
  C   C28       1.0  0.46744  0.27867  0.33505  1.0000
  H   H10       1.0  0.44052  0.29674  0.33068  1.0000
  C   C29       1.0  0.41815  0.21887  0.31815  1.0000
  H   H11       1.0  0.41467  0.18493  0.30918  1.0000
  H   H12       1.0  0.90433  0.23377  0.25878  1.0000
  H   H13       1.0  0.39933  0.22788  0.37664  1.0000
  C   C30       1.0  0.49819  0.16291  0.33443  1.0000
  H   H14       1.0  0.47002  0.14740  0.33264  1.0000
  C   C31       1.0  0.29901  0.50735  0.33515  1.0000
  C   C32       1.0  0.27284  0.54403  0.32661  1.0000
  C   C33       1.0  0.22826  0.53941  0.33270  1.0000
  H   H15       1.0  0.21018  0.56620  0.32575  1.0000
  C   C34       1.0  0.28806  0.58814  0.30922  1.0000
  H   H16       1.0  0.32188  0.59117  0.29781  1.0000
  H   H17       1.0  0.27989  0.10829  0.36624  1.0000
  H   H18       1.0  0.27248  0.60071  0.24938  1.0000
  C   C35       1.0  0.34401  0.50864  0.33379  1.0000
  H   H19       1.0  0.35948  0.53681  0.33053  1.0000
  C   C36       1.0  0.08412  0.08441  0.33918  1.0000
  H   H20       1.0  0.07419  0.47990  0.34334  1.0000
  H   H21       1.0  0.10711  0.10741  0.33905  1.0000
  C   C37       1.0  0.48710  0.48738  0.33993  1.0000
  C   C38       1.0  0.44277  0.49691  0.33820  1.0000
  C   C39       1.0  0.41066  0.46563  0.33866  1.0000
  C   C40       1.0  0.42255  0.42279  0.34056  1.0000
  H   H22       1.0  0.39956  0.39980  0.34068  1.0000
  N   N6        1.0  0.36837  0.47337  0.33743  1.0000
  C   C41       1.0  0.04402  0.27313  0.34895  1.0000
  H   H23       1.0  0.06615  0.21047  0.34853  1.0000
  C   C42       1.0  0.08853  0.28834  0.36103  1.0000
  H   H24       1.0  0.09201  0.32228  0.36992  1.0000
  H   H25       1.0  0.10736  0.27930  0.30259  1.0000
  H   H26       1.0  0.60233  0.27346  0.42045  1.0000
  C   C43       1.0  0.20766  0.99987  0.34512  1.0000
  C   C44       1.0  0.23382  0.96320  0.35370  1.0000
  C   C45       1.0  0.27841  0.96781  0.34757  1.0000
  H   H27       1.0  0.29648  0.94102  0.35451  1.0000
  C   C46       1.0  0.21860  0.91908  0.37104  1.0000
  H   H28       1.0  0.18478  0.91606  0.38254  1.0000
  H   H29       1.0  0.23421  0.90648  0.43082  1.0000
  H   H30       1.0  0.22674  0.39895  0.31398  1.0000
  C   C47       1.0  0.16266  0.99857  0.34641  1.0000
  H   H31       1.0  0.14718  0.97041  0.34967  1.0000
  H   H32       1.0  0.47960  0.57444  0.33673  1.0000
  C   C48       1.0  0.46539  0.91092  0.34177  1.0000
  C   C49       1.0  0.49666  0.94306  0.34164  1.0000
  N   N7        1.0  0.47316  0.86864  0.34265  1.0000
  C   C50       1.0  0.49948  0.70791  0.33560  1.0000
  C   C51       1.0  0.46266  0.73408  0.33021  1.0000
  C   C52       1.0  0.46744  0.77867  0.33505  1.0000
  H   H33       1.0  0.44052  0.79674  0.33068  1.0000
  C   C53       1.0  0.41815  0.71887  0.31815  1.0000
  H   H34       1.0  0.41467  0.68493  0.30918  1.0000
  H   H35       1.0  0.90433  0.73377  0.25878  1.0000
  H   H36       1.0  0.39933  0.72788  0.37664  1.0000
  C   C54       1.0  0.49819  0.66291  0.33443  1.0000
  H   H37       1.0  0.47002  0.64740  0.33264  1.0000
  C   C55       1.0  0.27284  0.04403  0.32661  1.0000
  H   H38       1.0  0.21018  0.06620  0.32575  1.0000
  C   C56       1.0  0.28806  0.08814  0.30922  1.0000
  H   H39       1.0  0.32188  0.09117  0.29781  1.0000
  H   H40       1.0  0.27989  0.60829  0.36624  1.0000
  H   H41       1.0  0.27248  0.10071  0.24938  1.0000
  C   C57       1.0  0.08412  0.58441  0.33918  1.0000
  C   C58       1.0  0.09600  0.54158  0.34128  1.0000
  C   C59       1.0  0.06389  0.51030  0.34180  1.0000
  H   H42       1.0  0.07419  0.97990  0.34334  1.0000
  H   H43       1.0  0.10711  0.60741  0.33905  1.0000
  C   C60       1.0  0.48710  0.98738  0.33993  1.0000
  C   C61       1.0  0.44277  0.99691  0.33820  1.0000
  C   C62       1.0  0.41066  0.96563  0.33866  1.0000
  C   C63       1.0  0.42255  0.92279  0.34056  1.0000
  H   H44       1.0  0.43247  0.52731  0.33701  1.0000
  H   H45       1.0  0.39956  0.89980  0.34068  1.0000
  N   N8        1.0  0.36837  0.97337  0.33743  1.0000
  N   N9        1.0  0.13829  0.53384  0.34265  1.0000
  C   C64       1.0  0.04402  0.77313  0.34895  1.0000
  H   H46       1.0  0.06615  0.71047  0.34853  1.0000
  C   C65       1.0  0.08853  0.78834  0.36103  1.0000
  H   H47       1.0  0.09201  0.82228  0.36992  1.0000
  H   H48       1.0  0.10736  0.77929  0.30259  1.0000
  H   H49       1.0  0.60233  0.77346  0.42045  1.0000
  C   C66       1.0  0.20766  0.49987  0.34512  1.0000
  C   C67       1.0  0.23382  0.46320  0.35370  1.0000
  C   C68       1.0  0.27841  0.46781  0.34757  1.0000
  H   H50       1.0  0.29648  0.44102  0.35451  1.0000
  C   C69       1.0  0.21860  0.41908  0.37104  1.0000
  H   H51       1.0  0.18478  0.41606  0.38254  1.0000
  H   H52       1.0  0.23421  0.40648  0.43082  1.0000
  H   H53       1.0  0.22674  0.89895  0.31398  1.0000
  C   C70       1.0  0.16266  0.49857  0.34641  1.0000
  H   H54       1.0  0.14718  0.47041  0.34967  1.0000
  C   C71       1.0  0.51000  0.06415  0.33785  1.0000
  C   C72       1.0  0.54127  0.09628  0.33775  1.0000
  H   H55       1.0  0.97960  0.07444  0.33673  1.0000
  C   C73       1.0  0.96539  0.41092  0.34177  1.0000
  C   C74       1.0  0.99666  0.44306  0.34164  1.0000
  H   H56       1.0  0.52707  0.43277  0.34240  1.0000
  N   N10       1.0  0.97316  0.36865  0.34265  1.0000
  N   N11       1.0  0.53351  0.13856  0.33674  1.0000
  C   C75       1.0  0.99948  0.20791  0.33560  1.0000
  C   C76       1.0  0.96266  0.23407  0.33021  1.0000
  C   C77       1.0  0.96744  0.27867  0.33505  1.0000
  H   H57       1.0  0.94052  0.29674  0.33068  1.0000
  C   C78       1.0  0.91815  0.21887  0.31815  1.0000
  H   H58       1.0  0.91467  0.18493  0.30918  1.0000
  H   H59       1.0  0.40433  0.23377  0.25878  1.0000
  H   H60       1.0  0.89933  0.22788  0.37664  1.0000
  C   C79       1.0  0.99819  0.16291  0.33443  1.0000
  H   H61       1.0  0.97002  0.14740  0.33264  1.0000
  C   C80       1.0  0.79901  0.50735  0.33515  1.0000
  C   C81       1.0  0.77284  0.54403  0.32661  1.0000
  C   C82       1.0  0.72826  0.53941  0.33270  1.0000
  H   H62       1.0  0.71018  0.56620  0.32575  1.0000
  C   C83       1.0  0.78806  0.58814  0.30922  1.0000
  H   H63       1.0  0.82188  0.59117  0.29781  1.0000
  H   H64       1.0  0.77989  0.10829  0.36624  1.0000
  H   H65       1.0  0.77248  0.60071  0.24938  1.0000
  C   C84       1.0  0.84401  0.50864  0.33379  1.0000
  H   H66       1.0  0.85949  0.53681  0.33053  1.0000
  C   C85       1.0  0.58412  0.08441  0.33918  1.0000
  H   H67       1.0  0.57418  0.47990  0.34334  1.0000
  H   H68       1.0  0.60711  0.10741  0.33905  1.0000
  C   C86       1.0  0.98711  0.48738  0.33993  1.0000
  C   C87       1.0  0.94278  0.49691  0.33820  1.0000
  C   C88       1.0  0.91066  0.46563  0.33866  1.0000
  C   C89       1.0  0.92255  0.42279  0.34056  1.0000
  H   H69       1.0  0.89956  0.39980  0.34068  1.0000
  N   N12       1.0  0.86837  0.47337  0.33743  1.0000
  C   C90       1.0  0.50720  0.29930  0.34360  1.0000
  C   C91       1.0  0.54402  0.27313  0.34895  1.0000
  C   C92       1.0  0.53924  0.22853  0.34413  1.0000
  H   H70       1.0  0.56615  0.21047  0.34853  1.0000
  C   C93       1.0  0.58853  0.28834  0.36103  1.0000
  H   H71       1.0  0.59201  0.32228  0.36992  1.0000
  H   H72       1.0  0.60736  0.27930  0.30259  1.0000
  H   H73       1.0  0.10233  0.27346  0.42045  1.0000
  C   C94       1.0  0.50848  0.34430  0.34482  1.0000
  H   H74       1.0  0.53665  0.35981  0.34667  1.0000
  C   C95       1.0  0.70766  0.99987  0.34512  1.0000
  C   C96       1.0  0.73382  0.96320  0.35370  1.0000
  C   C97       1.0  0.77840  0.96781  0.34757  1.0000
  H   H75       1.0  0.79648  0.94102  0.35451  1.0000
  C   C98       1.0  0.71860  0.91908  0.37104  1.0000
  H   H76       1.0  0.68478  0.91606  0.38254  1.0000
  H   H77       1.0  0.73421  0.90648  0.43082  1.0000
  H   H78       1.0  0.72674  0.39895  0.31398  1.0000
  C   C99       1.0  0.66266  0.99857  0.34641  1.0000
  H   H79       1.0  0.64718  0.97041  0.34967  1.0000
  C   C100      1.0  0.51000  0.56415  0.33785  1.0000
  C   C101      1.0  0.54127  0.59628  0.33775  1.0000
  H   H80       1.0  0.97960  0.57444  0.33673  1.0000
  C   C102      1.0  0.96539  0.91092  0.34177  1.0000
  C   C103      1.0  0.99666  0.94306  0.34164  1.0000
  H   H81       1.0  0.52707  0.93277  0.34240  1.0000
  N   N13       1.0  0.97316  0.86864  0.34265  1.0000
  N   N14       1.0  0.53351  0.63856  0.33674  1.0000
  C   C104      1.0  0.99948  0.70791  0.33560  1.0000
  C   C105      1.0  0.96266  0.73408  0.33021  1.0000
  C   C106      1.0  0.96744  0.77867  0.33505  1.0000
  H   H82       1.0  0.94052  0.79674  0.33068  1.0000
  C   C107      1.0  0.91815  0.71887  0.31815  1.0000
  H   H83       1.0  0.91467  0.68493  0.30918  1.0000
  H   H84       1.0  0.40433  0.73377  0.25878  1.0000
  H   H85       1.0  0.89933  0.72788  0.37664  1.0000
  C   C108      1.0  0.99819  0.66291  0.33443  1.0000
  H   H86       1.0  0.97002  0.64740  0.33264  1.0000
  C   C109      1.0  0.77284  0.04403  0.32661  1.0000
  H   H87       1.0  0.71018  0.06620  0.32575  1.0000
  C   C110      1.0  0.78806  0.08814  0.30922  1.0000
  H   H88       1.0  0.82188  0.09117  0.29781  1.0000
  H   H89       1.0  0.77989  0.60829  0.36624  1.0000
  H   H90       1.0  0.77248  0.10071  0.24938  1.0000
  C   C111      1.0  0.51956  0.51983  0.33982  1.0000
  C   C112      1.0  0.58412  0.58441  0.33918  1.0000
  C   C113      1.0  0.59601  0.54158  0.34128  1.0000
  C   C114      1.0  0.56388  0.51030  0.34180  1.0000
  H   H91       1.0  0.57418  0.97990  0.34334  1.0000
  H   H92       1.0  0.60711  0.60741  0.33905  1.0000
  C   C115      1.0  0.98711  0.98738  0.33993  1.0000
  C   C116      1.0  0.94278  0.99691  0.33820  1.0000
  C   C117      1.0  0.91066  0.96563  0.33866  1.0000
  C   C118      1.0  0.92255  0.92279  0.34056  1.0000
  H   H93       1.0  0.93247  0.52731  0.33701  1.0000
  H   H94       1.0  0.89956  0.89980  0.34068  1.0000
  N   N15       1.0  0.86837  0.97337  0.33743  1.0000
  N   N16       1.0  0.63829  0.53384  0.34265  1.0000
  C   C119      1.0  0.50720  0.79930  0.34360  1.0000
  C   C120      1.0  0.54402  0.77313  0.34895  1.0000
  C   C121      1.0  0.53924  0.72854  0.34413  1.0000
  H   H95       1.0  0.56615  0.71047  0.34853  1.0000
  C   C122      1.0  0.58853  0.78834  0.36103  1.0000
  H   H96       1.0  0.59201  0.82228  0.36992  1.0000
  H   H97       1.0  0.60736  0.77929  0.30259  1.0000
  H   H98       1.0  0.10233  0.77346  0.42045  1.0000
  C   C123      1.0  0.50848  0.84430  0.34482  1.0000
  H   H99       1.0  0.53665  0.85981  0.34667  1.0000
  C   C124      1.0  0.70766  0.49987  0.34512  1.0000
  C   C125      1.0  0.73382  0.46320  0.35370  1.0000
  C   C126      1.0  0.77840  0.46781  0.34757  1.0000
  H   H100      1.0  0.79648  0.44102  0.35451  1.0000
  C   C127      1.0  0.71860  0.41908  0.37104  1.0000
  H   H101      1.0  0.68478  0.41606  0.38254  1.0000
  H   H102      1.0  0.73421  0.40648  0.43082  1.0000
  H   H103      1.0  0.72674  0.89895  0.31398  1.0000
  C   C128      1.0  0.66266  0.49857  0.34641  1.0000
  H   H104      1.0  0.64718  0.47041  0.34967  1.0000
