data_image0
_chemical_formula_structural       C15H12C4H2C4HNH2C4H2C4HNH2C2NC2NC5NC3NC17H14C4H3NH2C4H3NH2
_chemical_formula_sum              "C68 H46 N8"
_cell_length_a       25.6254
_cell_length_b       25.6254
_cell_length_c       14.8927
_cell_angle_alpha    90
_cell_angle_beta     90
_cell_angle_gamma    90

_space_group_name_H-M_alt    "P 1"
_space_group_IT_number       1

loop_
  _space_group_symop_operation_xyz
  'x, y, z'

loop_
  _atom_site_type_symbol
  _atom_site_label
  _atom_site_symmetry_multiplicity
  _atom_site_fract_x
  _atom_site_fract_y
  _atom_site_fract_z
  _atom_site_occupancy
  C   C1        1.0  0.89199  0.95410  0.34191  1.0000
  C   C2        1.0  0.05278  0.89062  0.34079  1.0000
  C   C3        1.0  0.00180  0.13969  0.34001  1.0000
  C   C4        1.0  0.95240  0.11440  0.34067  1.0000
  C   C5        1.0  0.86576  0.10093  0.33962  1.0000
  C   C6        1.0  0.90378  0.13905  0.34091  1.0000
  C   C7        1.0  0.72701  0.98825  0.26094  1.0000
  C   C8        1.0  0.78194  0.98859  0.26182  1.0000
  C   C9        1.0  0.00225  0.19551  0.33875  1.0000
  C   C10       1.0  0.98921  0.27823  0.25924  1.0000
  C   C11       1.0  0.98908  0.22328  0.26001  1.0000
  C   C12       1.0  0.22317  0.99835  0.25863  1.0000
  C   C13       1.0  0.27812  0.99863  0.25847  1.0000
  C   C14       1.0  0.99853  0.78187  0.25991  1.0000
  C   C15       1.0  0.99858  0.72693  0.25980  1.0000
  H   H1        1.0  0.99628  0.70800  0.19941  1.0000
  H   H2        1.0  0.99555  0.80136  0.20011  1.0000
  H   H3        1.0  0.89864  0.82818  0.35131  1.0000
  H   H4        1.0  0.20365  0.99525  0.19888  1.0000
  H   H5        1.0  0.29705  0.99639  0.19808  1.0000
  H   H6        1.0  0.10680  0.17661  0.32832  1.0000
  H   H7        1.0  0.82655  0.10820  0.33892  1.0000
  H   H8        1.0  0.89641  0.17824  0.34106  1.0000
  H   H9        1.0  0.97882  0.20363  0.20282  1.0000
  H   H10       1.0  0.97823  0.29677  0.20141  1.0000
  H   H11       1.0  0.80171  0.97860  0.20459  1.0000
  H   H12       1.0  0.70860  0.97714  0.20305  1.0000
  C   C16       1.0  0.00435  0.64240  0.34028  1.0000
  C   C17       1.0  0.00734  0.53081  0.33773  1.0000
  C   C18       1.0  0.96948  0.55857  0.28791  1.0000
  C   C19       1.0  0.96823  0.61339  0.28877  1.0000
  H   H13       1.0  0.94236  0.53899  0.25024  1.0000
  H   H14       1.0  0.93988  0.63198  0.25241  1.0000
  C   C20       1.0  0.00662  0.47522  0.33373  1.0000
  C   C21       1.0  0.00383  0.36343  0.33533  1.0000
  C   C22       1.0  0.02311  0.39145  0.26031  1.0000
  C   C23       1.0  0.02491  0.44675  0.25784  1.0000
  H   H15       1.0  0.03761  0.37110  0.20667  1.0000
  N   N1        1.0  0.04484  0.47047  0.18355  1.0000
  H   H16       1.0  0.04794  0.50815  0.17914  1.0000
  H   H17       1.0  0.05727  0.45028  0.13247  1.0000
  C   C24       1.0  0.36267  0.00422  0.33909  1.0000
  C   C25       1.0  0.47428  0.00674  0.33749  1.0000
  C   C26       1.0  0.44650  0.96909  0.28724  1.0000
  C   C27       1.0  0.39166  0.96806  0.28763  1.0000
  H   H18       1.0  0.46607  0.94193  0.24963  1.0000
  H   H19       1.0  0.37306  0.93983  0.25104  1.0000
  C   C28       1.0  0.52987  0.00582  0.33392  1.0000
  C   C29       1.0  0.64166  0.00278  0.33645  1.0000
  C   C30       1.0  0.61388  0.02218  0.26123  1.0000
  C   C31       1.0  0.55859  0.02409  0.25830  1.0000
  H   H20       1.0  0.63441  0.03669  0.20781  1.0000
  N   N2        1.0  0.53513  0.04414  0.18386  1.0000
  H   H21       1.0  0.49748  0.04735  0.17915  1.0000
  H   H22       1.0  0.55550  0.05658  0.13299  1.0000
  C   C32       1.0  0.90588  0.86733  0.34715  1.0000
  C   C33       1.0  0.86773  0.90534  0.34743  1.0000
  N   N3        1.0  0.94390  0.94374  0.33900  1.0000
  C   C34       1.0  0.95448  0.89189  0.34205  1.0000
  C   C35       1.0  0.00337  0.86550  0.34118  1.0000
  N   N4        1.0  0.06277  0.94242  0.34101  1.0000
  C   C36       1.0  0.11455  0.95253  0.34124  1.0000
  C   C37       1.0  0.13940  0.90401  0.34136  1.0000
  C   C38       1.0  0.10135  0.86588  0.34070  1.0000
  C   C39       1.0  0.13956  0.00199  0.34066  1.0000
  C   C40       1.0  0.11305  0.05083  0.33965  1.0000
  N   N5        1.0  0.06117  0.06131  0.34287  1.0000
  C   C41       1.0  0.05069  0.11319  0.33940  1.0000
  C   C42       1.0  0.09939  0.13754  0.33355  1.0000
  C   C43       1.0  0.13749  0.09946  0.33398  1.0000
  N   N6        1.0  0.94233  0.06258  0.34077  1.0000
  C   C44       1.0  0.89053  0.05237  0.34046  1.0000
  C   C45       1.0  0.86537  0.00291  0.34095  1.0000
  C   C46       1.0  0.80955  0.00229  0.34044  1.0000
  C   C47       1.0  0.78080  0.01551  0.41810  1.0000
  C   C48       1.0  0.72585  0.01564  0.41668  1.0000
  C   C49       1.0  0.69768  0.00205  0.33811  1.0000
  C   C50       1.0  0.01593  0.22411  0.41633  1.0000
  C   C51       1.0  0.01658  0.27905  0.41498  1.0000
  C   C52       1.0  0.00310  0.30739  0.33656  1.0000
  C   C53       1.0  0.19526  0.00249  0.34007  1.0000
  C   C54       1.0  0.30681  0.00333  0.33942  1.0000
  C   C55       1.0  0.27836  0.00750  0.42070  1.0000
  C   C56       1.0  0.22343  0.00698  0.42117  1.0000
  C   C57       1.0  0.00298  0.80981  0.34126  1.0000
  C   C58       1.0  0.00742  0.78166  0.42241  1.0000
  C   C59       1.0  0.00776  0.72671  0.42199  1.0000
  C   C60       1.0  0.00336  0.69826  0.34075  1.0000
  H   H23       1.0  0.01054  0.70760  0.48214  1.0000
  H   H24       1.0  0.01057  0.80100  0.48232  1.0000
  H   H25       1.0  0.82864  0.89783  0.35195  1.0000
  H   H26       1.0  0.97026  0.97020  0.33344  1.0000
  H   H27       1.0  0.03480  0.03491  0.34908  1.0000
  H   H28       1.0  0.10858  0.82665  0.34060  1.0000
  H   H29       1.0  0.17864  0.89688  0.34143  1.0000
  H   H30       1.0  0.20411  0.00980  0.48116  1.0000
  H   H31       1.0  0.29748  0.01017  0.48087  1.0000
  H   H32       1.0  0.17661  0.10678  0.32945  1.0000
  H   H33       1.0  0.02594  0.20506  0.47426  1.0000
  H   H34       1.0  0.02792  0.29818  0.47204  1.0000
  H   H35       1.0  0.70658  0.02693  0.47362  1.0000
  H   H36       1.0  0.79973  0.02583  0.47597  1.0000
  C   C61       1.0  0.04189  0.61434  0.39062  1.0000
  C   C62       1.0  0.04436  0.55905  0.39007  1.0000
  C   C63       1.0  0.98694  0.44768  0.40861  1.0000
  C   C64       1.0  0.98563  0.39286  0.40934  1.0000
  H   H37       1.0  0.97325  0.46741  0.46362  1.0000
  H   H38       1.0  0.97033  0.37462  0.46451  1.0000
  H   H39       1.0  0.06910  0.63469  0.42682  1.0000
  N   N7        1.0  0.08257  0.53514  0.43849  1.0000
  H   H40       1.0  0.10771  0.55519  0.47331  1.0000
  H   H41       1.0  0.08681  0.49748  0.43867  1.0000
  C   C65       1.0  0.39075  0.04157  0.38980  1.0000
  C   C66       1.0  0.44605  0.04381  0.38972  1.0000
  C   C67       1.0  0.55717  0.98603  0.40900  1.0000
  C   C68       1.0  0.61199  0.98461  0.41020  1.0000
  H   H42       1.0  0.53726  0.97238  0.46384  1.0000
  H   H43       1.0  0.63006  0.96929  0.46551  1.0000
  H   H44       1.0  0.37041  0.06879  0.42601  1.0000
  N   N8        1.0  0.46998  0.08185  0.43850  1.0000
  H   H45       1.0  0.44993  0.10704  0.47324  1.0000
  H   H46       1.0  0.50765  0.08595  0.43901  1.0000
