data_image0
_chemical_formula_structural       NC2NH2CN5C23H15C24H15C4NH3C4NH3C2H
_chemical_formula_sum              "N9 C60 H39"
_cell_length_a       29.9093
_cell_length_b       29.9093
_cell_length_c       14.8906
_cell_angle_alpha    90
_cell_angle_beta     90
_cell_angle_gamma    120

_space_group_name_H-M_alt    "P 1"
_space_group_IT_number       1

loop_
  _space_group_symop_operation_xyz
  'x, y, z'

loop_
  _atom_site_type_symbol
  _atom_site_label
  _atom_site_symmetry_multiplicity
  _atom_site_fract_x
  _atom_site_fract_y
  _atom_site_fract_z
  _atom_site_occupancy
  N   N1        1.0  0.03128  0.51656  0.27214  1.0000
  C   C1        1.0  0.03231  0.51708  0.43280  1.0000
  C   C2        1.0  0.05913  0.53048  0.34952  1.0000
  N   N2        1.0  0.05673  0.52929  0.51362  1.0000
  H   H1        1.0  0.03735  0.51959  0.56962  1.0000
  H   H2        1.0  0.09415  0.54800  0.51817  1.0000
  C   C3        1.0  0.11346  0.55765  0.34229  1.0000
  N   N3        1.0  0.49263  0.51656  0.27214  1.0000
  N   N4        1.0  0.51788  0.49131  0.27053  1.0000
  N   N5        1.0  0.49262  0.97791  0.27212  1.0000
  N   N6        1.0  0.51787  0.02841  0.27049  1.0000
  N   N7        1.0  0.98078  0.49131  0.27051  1.0000
  C   C4        1.0  0.28245  0.64214  0.33738  1.0000
  C   C5        1.0  0.31223  0.61712  0.33715  1.0000
  C   C6        1.0  0.36704  0.64214  0.33728  1.0000
  C   C7        1.0  0.39207  0.69695  0.33720  1.0000
  C   C8        1.0  0.36705  0.72674  0.33740  1.0000
  C   C9        1.0  0.31223  0.69695  0.33749  1.0000
  C   C10       1.0  0.39550  0.61369  0.33793  1.0000
  C   C11       1.0  0.37036  0.55857  0.33875  1.0000
  C   C12       1.0  0.39730  0.53116  0.34097  1.0000
  C   C13       1.0  0.45154  0.55765  0.34227  1.0000
  C   C14       1.0  0.47802  0.61188  0.34096  1.0000
  C   C15       1.0  0.45061  0.63882  0.33872  1.0000
  C   C16       1.0  0.22553  0.61369  0.33801  1.0000
  C   C17       1.0  0.19555  0.55857  0.33886  1.0000
  C   C18       1.0  0.14121  0.53116  0.34105  1.0000
  C   C19       1.0  0.14121  0.61189  0.34087  1.0000
  C   C20       1.0  0.19555  0.63882  0.33864  1.0000
  C   C21       1.0  0.39550  0.78365  0.33803  1.0000
  C   C22       1.0  0.37036  0.81363  0.33865  1.0000
  C   C23       1.0  0.39730  0.86798  0.34087  1.0000
  C   C24       1.0  0.45154  0.89573  0.34226  1.0000
  C   C25       1.0  0.47802  0.86798  0.34103  1.0000
  C   C26       1.0  0.45062  0.81363  0.33885  1.0000
  H   H3        1.0  0.12205  0.49163  0.34296  1.0000
  H   H4        1.0  0.21207  0.53603  0.33883  1.0000
  H   H5        1.0  0.12204  0.63225  0.34259  1.0000
  H   H6        1.0  0.21206  0.67788  0.33824  1.0000
  H   H7        1.0  0.33131  0.79712  0.33830  1.0000
  H   H8        1.0  0.37693  0.88714  0.34261  1.0000
  H   H9        1.0  0.47316  0.79712  0.33881  1.0000
  H   H10       1.0  0.51756  0.88714  0.34292  1.0000
  H   H11       1.0  0.47316  0.67788  0.33853  1.0000
  H   H12       1.0  0.51756  0.63225  0.34278  1.0000
  H   H13       1.0  0.37693  0.49163  0.34279  1.0000
  H   H14       1.0  0.33131  0.53602  0.33856  1.0000
  H   H15       1.0  0.29289  0.57843  0.33671  1.0000
  H   H16       1.0  0.29289  0.71630  0.33767  1.0000
  H   H17       1.0  0.43076  0.71630  0.33684  1.0000
  C   C27       1.0  0.72858  0.36521  0.33777  1.0000
  C   C28       1.0  0.69879  0.39023  0.33767  1.0000
  C   C29       1.0  0.64398  0.36521  0.33775  1.0000
  C   C30       1.0  0.61896  0.31040  0.33771  1.0000
  C   C31       1.0  0.64398  0.28061  0.33779  1.0000
  C   C32       1.0  0.69879  0.31040  0.33781  1.0000
  C   C33       1.0  0.61552  0.39367  0.33812  1.0000
  C   C34       1.0  0.64066  0.44878  0.33865  1.0000
  C   C35       1.0  0.61372  0.47620  0.34015  1.0000
  C   C36       1.0  0.55948  0.44971  0.34098  1.0000
  C   C37       1.0  0.53300  0.39547  0.34016  1.0000
  C   C38       1.0  0.56041  0.36853  0.33863  1.0000
  C   C39       1.0  0.78549  0.39366  0.33814  1.0000
  C   C40       1.0  0.81547  0.44878  0.33869  1.0000
  C   C41       1.0  0.86982  0.47619  0.34017  1.0000
  C   C42       1.0  0.89758  0.44971  0.34096  1.0000
  C   C43       1.0  0.86983  0.39547  0.34010  1.0000
  C   C44       1.0  0.81547  0.36853  0.33860  1.0000
  C   C45       1.0  0.61552  0.22370  0.33816  1.0000
  C   C46       1.0  0.64066  0.19371  0.33863  1.0000
  C   C47       1.0  0.61372  0.13936  0.34014  1.0000
  C   C48       1.0  0.55947  0.11160  0.34094  1.0000
  C   C49       1.0  0.53299  0.13936  0.34014  1.0000
  C   C50       1.0  0.56041  0.19371  0.33867  1.0000
  H   H18       1.0  0.88900  0.51573  0.34158  1.0000
  H   H19       1.0  0.79896  0.47132  0.33871  1.0000
  H   H20       1.0  0.88900  0.37510  0.34142  1.0000
  H   H21       1.0  0.79896  0.32947  0.33846  1.0000
  H   H22       1.0  0.67971  0.21023  0.33854  1.0000
  H   H23       1.0  0.63408  0.12019  0.34147  1.0000
  H   H24       1.0  0.53786  0.21023  0.33866  1.0000
  H   H25       1.0  0.49346  0.12019  0.34152  1.0000
  H   H26       1.0  0.53786  0.32947  0.33856  1.0000
  H   H27       1.0  0.49345  0.37510  0.34150  1.0000
  H   H28       1.0  0.63409  0.51574  0.34151  1.0000
  H   H29       1.0  0.67971  0.47133  0.33859  1.0000
  H   H30       1.0  0.71814  0.42893  0.33739  1.0000
  H   H31       1.0  0.71814  0.29105  0.33776  1.0000
  H   H32       1.0  0.58026  0.29105  0.33752  1.0000
  C   C51       1.0  0.53233  0.47686  0.34652  1.0000
  C   C52       1.0  0.51941  0.48978  0.42982  1.0000
  C   C53       1.0  0.49211  0.51708  0.43281  1.0000
  C   C54       1.0  0.47870  0.53048  0.34952  1.0000
  N   N8        1.0  0.47989  0.52929  0.51362  1.0000
  H   H33       1.0  0.48958  0.51960  0.56962  1.0000
  H   H34       1.0  0.46118  0.54800  0.51816  1.0000
  H   H35       1.0  0.52988  0.47930  0.48816  1.0000
  C   C55       1.0  0.53232  0.05730  0.34649  1.0000
  C   C56       1.0  0.51942  0.03147  0.42979  1.0000
  C   C57       1.0  0.49211  0.97687  0.43278  1.0000
  C   C58       1.0  0.47870  0.95006  0.34950  1.0000
  N   N9        1.0  0.47991  0.95245  0.51359  1.0000
  H   H36       1.0  0.48960  0.97183  0.56960  1.0000
  H   H37       1.0  0.46119  0.91503  0.51815  1.0000
  H   H38       1.0  0.52990  0.05242  0.48813  1.0000
  C   C59       1.0  0.95189  0.47686  0.34651  1.0000
  C   C60       1.0  0.97771  0.48977  0.42980  1.0000
  H   H39       1.0  0.95676  0.47930  0.48815  1.0000
