data_image0
_chemical_formula_structural       N2C4H2C4H2C4H2C2H2C2H2C2H2C3NC18H12CNCNCNC18H12CNCNCNC18H12CNCNCNC18H12C2H2C2H2C2H2C4H2C4H2C4H2
_chemical_formula_sum              "N12 C120 H72"
_cell_length_a       44.8545
_cell_length_b       44.8545
_cell_length_c       14.9931
_cell_angle_alpha    90
_cell_angle_beta     90
_cell_angle_gamma    120

_space_group_name_H-M_alt    "P 1"
_space_group_IT_number       1

loop_
  _space_group_symop_operation_xyz
  'x, y, z'

loop_
  _atom_site_type_symbol
  _atom_site_label
  _atom_site_symmetry_multiplicity
  _atom_site_fract_x
  _atom_site_fract_y
  _atom_site_fract_z
  _atom_site_occupancy
  N   N1        1.0  0.00953  0.97898  0.33376  1.0000
  N   N2        1.0  0.00953  0.03066  0.33376  1.0000
  C   C1        1.0  0.22911  0.11461  0.25212  1.0000
  C   C2        1.0  0.19288  0.09649  0.25214  1.0000
  C   C3        1.0  0.17451  0.08731  0.33343  1.0000
  C   C4        1.0  0.24748  0.12379  0.33340  1.0000
  H   H1        1.0  0.18004  0.09008  0.19250  1.0000
  H   H2        1.0  0.24194  0.12102  0.19247  1.0000
  C   C5        1.0  0.87391  0.11461  0.25212  1.0000
  C   C6        1.0  0.89202  0.09650  0.25214  1.0000
  C   C7        1.0  0.90121  0.08731  0.33343  1.0000
  C   C8        1.0  0.86472  0.12380  0.33339  1.0000
  H   H3        1.0  0.89844  0.09008  0.19250  1.0000
  H   H4        1.0  0.86749  0.12103  0.19247  1.0000
  C   C9        1.0  0.87390  0.75940  0.25212  1.0000
  C   C10       1.0  0.89202  0.79563  0.25214  1.0000
  C   C11       1.0  0.90120  0.81400  0.33343  1.0000
  C   C12       1.0  0.86471  0.74103  0.33340  1.0000
  H   H5        1.0  0.89843  0.80847  0.19250  1.0000
  H   H6        1.0  0.86748  0.74657  0.19248  1.0000
  C   C13       1.0  0.54358  0.13016  0.25306  1.0000
  C   C14       1.0  0.57489  0.13004  0.25296  1.0000
  H   H7        1.0  0.53447  0.13370  0.19368  1.0000
  H   H8        1.0  0.58759  0.13371  0.19362  1.0000
  C   C15       1.0  0.85831  0.41358  0.25316  1.0000
  C   C16       1.0  0.85845  0.44502  0.25314  1.0000
  H   H9        1.0  0.85473  0.40095  0.19374  1.0000
  H   H10       1.0  0.85475  0.45404  0.19383  1.0000
  C   C17       1.0  0.57494  0.44500  0.25315  1.0000
  C   C18       1.0  0.54361  0.41358  0.25318  1.0000
  H   H11       1.0  0.58765  0.45396  0.19380  1.0000
  H   H12       1.0  0.53463  0.40092  0.19377  1.0000
  C   C19       1.0  0.97454  0.96066  0.33376  1.0000
  C   C20       1.0  0.02785  0.01398  0.33376  1.0000
  C   C21       1.0  0.97454  0.01398  0.33377  1.0000
  N   N3        1.0  0.95785  0.97898  0.33376  1.0000
  C   C22       1.0  0.06460  0.03236  0.33369  1.0000
  C   C23       1.0  0.08354  0.01478  0.33363  1.0000
  C   C24       1.0  0.11976  0.03284  0.33353  1.0000
  C   C25       1.0  0.13816  0.06914  0.33346  1.0000
  C   C26       1.0  0.11976  0.08703  0.33353  1.0000
  C   C27       1.0  0.08354  0.06887  0.33363  1.0000
  C   C28       1.0  0.95616  0.92391  0.33369  1.0000
  C   C29       1.0  0.97373  0.90497  0.33363  1.0000
  C   C30       1.0  0.95567  0.86875  0.33353  1.0000
  C   C31       1.0  0.91938  0.85035  0.33346  1.0000
  C   C32       1.0  0.90148  0.86875  0.33353  1.0000
  C   C33       1.0  0.91965  0.90497  0.33363  1.0000
  C   C34       1.0  0.95616  0.03236  0.33369  1.0000
  C   C35       1.0  0.91965  0.01478  0.33363  1.0000
  C   C36       1.0  0.90148  0.03284  0.33353  1.0000
  C   C37       1.0  0.91938  0.06914  0.33346  1.0000
  C   C38       1.0  0.95568  0.08704  0.33353  1.0000
  C   C39       1.0  0.97373  0.06887  0.33363  1.0000
  H   H13       1.0  0.96921  0.85593  0.33350  1.0000
  H   H14       1.0  0.00005  0.91731  0.33367  1.0000
  H   H15       1.0  0.87512  0.85593  0.33350  1.0000
  H   H16       1.0  0.90567  0.91732  0.33367  1.0000
  H   H17       1.0  0.90567  0.98847  0.33368  1.0000
  H   H18       1.0  0.87513  0.01930  0.33350  1.0000
  H   H19       1.0  0.00005  0.08285  0.33368  1.0000
  H   H20       1.0  0.96922  0.11339  0.33350  1.0000
  H   H21       1.0  0.07120  0.08285  0.33367  1.0000
  H   H22       1.0  0.13258  0.11339  0.33350  1.0000
  H   H23       1.0  0.13258  0.01930  0.33350  1.0000
  H   H24       1.0  0.07120  0.98847  0.33367  1.0000
  C   C40       1.0  0.44732  0.19698  0.33381  1.0000
  N   N4        1.0  0.41234  0.18022  0.33372  1.0000
  C   C41       1.0  0.39411  0.19710  0.33367  1.0000
  N   N5        1.0  0.41234  0.23221  0.33371  1.0000
  C   C42       1.0  0.44732  0.25043  0.33381  1.0000
  N   N6        1.0  0.46366  0.23187  0.33385  1.0000
  C   C43       1.0  0.35737  0.17873  0.33357  1.0000
  C   C44       1.0  0.33843  0.14222  0.33353  1.0000
  C   C45       1.0  0.30221  0.12406  0.33345  1.0000
  C   C46       1.0  0.28382  0.14196  0.33340  1.0000
  C   C47       1.0  0.30221  0.17825  0.33345  1.0000
  C   C48       1.0  0.33843  0.19631  0.33353  1.0000
  C   C49       1.0  0.46677  0.17970  0.33389  1.0000
  C   C50       1.0  0.45090  0.14327  0.33394  1.0000
  C   C51       1.0  0.47067  0.12675  0.33406  1.0000
  C   C52       1.0  0.50694  0.14636  0.33413  1.0000
  C   C53       1.0  0.52299  0.18260  0.33408  1.0000
  C   C54       1.0  0.50326  0.19890  0.33395  1.0000
  C   C55       1.0  0.46678  0.28716  0.33389  1.0000
  C   C56       1.0  0.50327  0.30445  0.33395  1.0000
  C   C57       1.0  0.52300  0.34048  0.33407  1.0000
  C   C58       1.0  0.50695  0.36068  0.33413  1.0000
  C   C59       1.0  0.47068  0.34402  0.33407  1.0000
  C   C60       1.0  0.45091  0.30772  0.33394  1.0000
  H   H25       1.0  0.45848  0.10043  0.33411  1.0000
  H   H26       1.0  0.42466  0.12828  0.33391  1.0000
  H   H27       1.0  0.54930  0.19752  0.33413  1.0000
  H   H28       1.0  0.51623  0.22524  0.33392  1.0000
  H   H29       1.0  0.51624  0.29108  0.33391  1.0000
  H   H30       1.0  0.54931  0.35186  0.33413  1.0000
  H   H31       1.0  0.42466  0.29647  0.33391  1.0000
  H   H32       1.0  0.45850  0.35815  0.33413  1.0000
  H   H33       1.0  0.35076  0.22262  0.33357  1.0000
  H   H34       1.0  0.28940  0.19180  0.33344  1.0000
  H   H35       1.0  0.28939  0.09770  0.33344  1.0000
  H   H36       1.0  0.35076  0.12823  0.33357  1.0000
  C   C61       1.0  0.79152  0.25044  0.33381  1.0000
  N   N7        1.0  0.80828  0.23222  0.33371  1.0000
  C   C62       1.0  0.79140  0.19711  0.33369  1.0000
  N   N8        1.0  0.75630  0.18023  0.33377  1.0000
  C   C63       1.0  0.73808  0.19699  0.33388  1.0000
  N   N9        1.0  0.75663  0.23188  0.33390  1.0000
  C   C64       1.0  0.80978  0.17874  0.33359  1.0000
  C   C65       1.0  0.84629  0.19631  0.33353  1.0000
  C   C66       1.0  0.86445  0.17826  0.33345  1.0000
  C   C67       1.0  0.84655  0.14197  0.33340  1.0000
  C   C68       1.0  0.81026  0.12406  0.33345  1.0000
  C   C69       1.0  0.79220  0.14223  0.33354  1.0000
  C   C70       1.0  0.80880  0.28717  0.33387  1.0000
  C   C71       1.0  0.84523  0.30773  0.33393  1.0000
  C   C72       1.0  0.86175  0.34403  0.33405  1.0000
  C   C73       1.0  0.84213  0.36068  0.33407  1.0000
  C   C74       1.0  0.80589  0.34048  0.33401  1.0000
  C   C75       1.0  0.78959  0.30445  0.33390  1.0000
  C   C76       1.0  0.70134  0.17972  0.33399  1.0000
  C   C77       1.0  0.68406  0.19892  0.33405  1.0000
  C   C78       1.0  0.64803  0.18262  0.33415  1.0000
  C   C79       1.0  0.62783  0.14638  0.33419  1.0000
  C   C80       1.0  0.64449  0.12676  0.33408  1.0000
  C   C81       1.0  0.68078  0.14328  0.33400  1.0000
  H   H37       1.0  0.88807  0.35816  0.33412  1.0000
  H   H38       1.0  0.86022  0.29648  0.33393  1.0000
  H   H39       1.0  0.79096  0.35186  0.33405  1.0000
  H   H40       1.0  0.76326  0.29108  0.33386  1.0000
  H   H41       1.0  0.69743  0.22526  0.33402  1.0000
  H   H42       1.0  0.63665  0.19755  0.33415  1.0000
  H   H43       1.0  0.69203  0.12829  0.33393  1.0000
  H   H44       1.0  0.63035  0.10044  0.33405  1.0000
  H   H45       1.0  0.76589  0.12824  0.33358  1.0000
  H   H46       1.0  0.79672  0.09771  0.33344  1.0000
  H   H47       1.0  0.89081  0.19180  0.33343  1.0000
  H   H48       1.0  0.86028  0.22263  0.33357  1.0000
  C   C82       1.0  0.73807  0.54119  0.33375  1.0000
  N   N10       1.0  0.75629  0.57617  0.33368  1.0000
  C   C83       1.0  0.79140  0.59440  0.33365  1.0000
  N   N11       1.0  0.80828  0.57617  0.33370  1.0000
  C   C84       1.0  0.79152  0.54119  0.33377  1.0000
  N   N12       1.0  0.75662  0.52485  0.33380  1.0000
  C   C85       1.0  0.80977  0.63114  0.33357  1.0000
  C   C86       1.0  0.79219  0.65008  0.33353  1.0000
  C   C87       1.0  0.81025  0.68630  0.33345  1.0000
  C   C88       1.0  0.84654  0.70469  0.33341  1.0000
  C   C89       1.0  0.86444  0.68630  0.33345  1.0000
  C   C90       1.0  0.84628  0.65008  0.33353  1.0000
  C   C91       1.0  0.70134  0.52174  0.33383  1.0000
  C   C92       1.0  0.68078  0.53762  0.33389  1.0000
  C   C93       1.0  0.64449  0.51785  0.33404  1.0000
  C   C94       1.0  0.62782  0.48158  0.33410  1.0000
  C   C95       1.0  0.64801  0.46553  0.33404  1.0000
  C   C96       1.0  0.68404  0.48525  0.33389  1.0000
  C   C97       1.0  0.80880  0.52174  0.33387  1.0000
  C   C98       1.0  0.78961  0.48525  0.33395  1.0000
  C   C99       1.0  0.80592  0.46553  0.33410  1.0000
  C   C100      1.0  0.84216  0.48159  0.33415  1.0000
  C   C101      1.0  0.86177  0.51786  0.33407  1.0000
  C   C102      1.0  0.84523  0.53762  0.33392  1.0000
  H   H49       1.0  0.63036  0.53005  0.33412  1.0000
  H   H50       1.0  0.69204  0.56386  0.33387  1.0000
  H   H51       1.0  0.63662  0.43922  0.33411  1.0000
  H   H52       1.0  0.69741  0.47228  0.33385  1.0000
  H   H53       1.0  0.76327  0.47228  0.33391  1.0000
  H   H54       1.0  0.79100  0.43923  0.33418  1.0000
  H   H55       1.0  0.86022  0.56387  0.33388  1.0000
  H   H56       1.0  0.88809  0.53006  0.33413  1.0000
  H   H57       1.0  0.86027  0.63775  0.33357  1.0000
  H   H58       1.0  0.89080  0.69912  0.33344  1.0000
  H   H59       1.0  0.79671  0.69912  0.33344  1.0000
  H   H60       1.0  0.76588  0.63775  0.33357  1.0000
  C   C103      1.0  0.19289  0.09650  0.41470  1.0000
  C   C104      1.0  0.22912  0.11461  0.41469  1.0000
  H   H61       1.0  0.18006  0.09008  0.47435  1.0000
  H   H62       1.0  0.24196  0.12103  0.47433  1.0000
  C   C105      1.0  0.89202  0.09650  0.41470  1.0000
  C   C106      1.0  0.87390  0.11462  0.41468  1.0000
  H   H63       1.0  0.89843  0.09009  0.47435  1.0000
  H   H64       1.0  0.86748  0.12104  0.47433  1.0000
  C   C107      1.0  0.89201  0.79563  0.41470  1.0000
  C   C108      1.0  0.87390  0.75940  0.41469  1.0000
  H   H65       1.0  0.89843  0.80845  0.47435  1.0000
  H   H66       1.0  0.86748  0.74656  0.47433  1.0000
  C   C109      1.0  0.57505  0.13033  0.41534  1.0000
  C   C110      1.0  0.54362  0.13021  0.41546  1.0000
  C   C111      1.0  0.52826  0.13143  0.33429  1.0000
  C   C112      1.0  0.59159  0.13147  0.33411  1.0000
  H   H67       1.0  0.53463  0.13391  0.47484  1.0000
  H   H68       1.0  0.58775  0.13394  0.47467  1.0000
  C   C113      1.0  0.85840  0.44495  0.41553  1.0000
  C   C114      1.0  0.85840  0.41357  0.41545  1.0000
  C   C115      1.0  0.85704  0.39691  0.33427  1.0000
  C   C116      1.0  0.85709  0.46028  0.33439  1.0000
  H   H69       1.0  0.85463  0.40082  0.47473  1.0000
  H   H70       1.0  0.85462  0.45391  0.47483  1.0000
  C   C117      1.0  0.54361  0.41355  0.41546  1.0000
  C   C118      1.0  0.57495  0.44496  0.41554  1.0000
  C   C119      1.0  0.59158  0.46027  0.33437  1.0000
  C   C120      1.0  0.52827  0.39690  0.33431  1.0000
  H   H71       1.0  0.58769  0.45393  0.47483  1.0000
  H   H72       1.0  0.53463  0.40086  0.47483  1.0000
