data_image0
_chemical_formula_structural       C15H12C4HC2H3OC4HC2H3OC2NC2NC5NC3NC17H14N4C15H12C4HC2H3OC4HC2H3OC2NC2NC5NC3NC17H14N4C15H12C4HC2H3OC4HC2H3OC2NC2NC5NC3NC17H14N4C15H12C4HC2H3OC4HC2H3OC2NC2NC5NC3NC17H14N4
_chemical_formula_sum              "C224 H136 O8 N32"
_cell_length_a       42.5738
_cell_length_b       42.5738
_cell_length_c       14.8976
_cell_angle_alpha    90
_cell_angle_beta     90
_cell_angle_gamma    90

_space_group_name_H-M_alt    "P 1"
_space_group_IT_number       1

loop_
  _space_group_symop_operation_xyz
  'x, y, z'

loop_
  _atom_site_type_symbol
  _atom_site_label
  _atom_site_symmetry_multiplicity
  _atom_site_fract_x
  _atom_site_fract_y
  _atom_site_fract_z
  _atom_site_occupancy
  C   C1        1.0  0.43456  0.47225  0.35282  1.0000
  C   C2        1.0  0.03168  0.43498  0.35076  1.0000
  C   C3        1.0  0.49958  0.08467  0.34845  1.0000
  C   C4        1.0  0.47002  0.06909  0.35023  1.0000
  C   C5        1.0  0.41794  0.06046  0.34795  1.0000
  C   C6        1.0  0.44060  0.08362  0.34917  1.0000
  C   C7        1.0  0.33699  0.49077  0.25675  1.0000
  C   C8        1.0  0.36993  0.49096  0.26440  1.0000
  C   C9        1.0  0.49949  0.11826  0.34180  1.0000
  C   C10       1.0  0.49029  0.16611  0.25410  1.0000
  C   C11       1.0  0.49019  0.13315  0.26131  1.0000
  C   C12       1.0  0.13144  0.00294  0.25763  1.0000
  C   C13       1.0  0.16441  0.00309  0.25050  1.0000
  C   C14       1.0  0.00186  0.37157  0.25926  1.0000
  C   C15       1.0  0.00197  0.33863  0.25170  1.0000
  H   H1        1.0  0.00097  0.32932  0.18857  1.0000
  H   H2        1.0  0.00145  0.38491  0.20208  1.0000
  H   H3        1.0  0.43927  0.39644  0.35794  1.0000
  H   H4        1.0  0.11819  0.00253  0.20030  1.0000
  H   H5        1.0  0.17381  0.00217  0.18747  1.0000
  H   H6        1.0  0.06257  0.10730  0.33305  1.0000
  H   H7        1.0  0.39433  0.06465  0.34567  1.0000
  H   H8        1.0  0.43591  0.10715  0.34771  1.0000
  H   H9        1.0  0.48300  0.12006  0.20746  1.0000
  H   H10       1.0  0.48238  0.17587  0.19568  1.0000
  H   H11       1.0  0.38316  0.48381  0.21077  1.0000
  H   H12       1.0  0.32739  0.48269  0.19832  1.0000
  C   C16       1.0  0.00293  0.28528  0.32132  1.0000
  C   C17       1.0  0.51485  0.26887  0.24610  1.0000
  C   C18       1.0  0.51437  0.23562  0.24265  1.0000
  C   C19       1.0  0.00214  0.21888  0.31766  1.0000
  H   H13       1.0  0.52501  0.28106  0.19454  1.0000
  C   C20       1.0  0.52784  0.22034  0.16977  1.0000
  C   C21       1.0  0.01478  0.22448  0.08066  1.0000
  H   H14       1.0  0.48912  0.22376  0.08252  1.0000
  H   H15       1.0  0.02280  0.20558  0.03662  1.0000
  H   H16       1.0  0.02215  0.24693  0.05196  1.0000
  O   O1        1.0  0.55642  0.21765  0.17394  1.0000
  C   C22       1.0  0.21767  0.00376  0.32097  1.0000
  C   C23       1.0  0.23432  0.51551  0.24597  1.0000
  C   C24       1.0  0.26758  0.51492  0.24331  1.0000
  C   C25       1.0  0.28408  0.00278  0.31889  1.0000
  H   H17       1.0  0.22231  0.52555  0.19390  1.0000
  C   C26       1.0  0.28311  0.52818  0.17054  1.0000
  C   C27       1.0  0.27926  0.01488  0.08162  1.0000
  H   H18       1.0  0.27994  0.48923  0.08408  1.0000
  H   H19       1.0  0.29832  0.02276  0.03794  1.0000
  H   H20       1.0  0.25692  0.02219  0.05212  1.0000
  O   O2        1.0  0.28583  0.55677  0.17414  1.0000
  C   C28       1.0  0.44342  0.42007  0.35593  1.0000
  C   C29       1.0  0.42024  0.44272  0.35652  1.0000
  N   N1        1.0  0.46588  0.46635  0.35178  1.0000
  C   C30       1.0  0.47254  0.43518  0.35287  1.0000
  C   C31       1.0  0.50210  0.41956  0.35092  1.0000
  N   N2        1.0  0.03742  0.46622  0.35221  1.0000
  C   C32       1.0  0.06853  0.47259  0.35082  1.0000
  C   C33       1.0  0.08374  0.44352  0.34891  1.0000
  C   C34       1.0  0.06104  0.42036  0.34870  1.0000
  C   C35       1.0  0.08332  0.50250  0.34931  1.0000
  C   C36       1.0  0.06707  0.03174  0.34859  1.0000
  N   N3        1.0  0.03581  0.03783  0.35360  1.0000
  C   C37       1.0  0.02917  0.06897  0.34830  1.0000
  C   C38       1.0  0.05833  0.08382  0.34030  1.0000
  C   C39       1.0  0.08147  0.06111  0.34092  1.0000
  N   N4        1.0  0.46423  0.03783  0.35176  1.0000
  C   C40       1.0  0.43310  0.03137  0.35064  1.0000
  C   C41       1.0  0.41820  0.50145  0.35084  1.0000
  C   C42       1.0  0.38462  0.50071  0.34474  1.0000
  C   C43       1.0  0.36539  0.00986  0.41755  1.0000
  C   C44       1.0  0.33241  0.01021  0.40905  1.0000
  C   C45       1.0  0.31755  0.50128  0.32783  1.0000
  C   C46       1.0  0.00878  0.13731  0.41485  1.0000
  C   C47       1.0  0.00939  0.17029  0.40681  1.0000
  C   C48       1.0  0.50066  0.18537  0.32575  1.0000
  C   C49       1.0  0.11679  0.50303  0.34257  1.0000
  C   C50       1.0  0.18400  0.50346  0.32763  1.0000
  C   C51       1.0  0.16887  0.50308  0.41252  1.0000
  C   C52       1.0  0.13587  0.50296  0.42006  1.0000
  C   C53       1.0  0.50213  0.38609  0.34437  1.0000
  C   C54       1.0  0.50219  0.36691  0.42165  1.0000
  C   C55       1.0  0.50225  0.33391  0.41368  1.0000
  C   C56       1.0  0.50251  0.31892  0.32857  1.0000
  H   H21       1.0  0.50267  0.32089  0.47139  1.0000
  H   H22       1.0  0.50227  0.37685  0.48421  1.0000
  H   H23       1.0  0.39674  0.43793  0.35923  1.0000
  H   H24       1.0  0.48162  0.48245  0.34766  1.0000
  H   H25       1.0  0.02012  0.02183  0.36111  1.0000
  H   H26       1.0  0.06559  0.39680  0.34702  1.0000
  H   H27       1.0  0.10738  0.43945  0.34690  1.0000
  H   H28       1.0  0.12584  0.50282  0.48251  1.0000
  H   H29       1.0  0.18178  0.50334  0.47043  1.0000
  H   H30       1.0  0.10494  0.06569  0.33476  1.0000
  H   H31       1.0  0.01560  0.12723  0.47410  1.0000
  H   H32       1.0  0.01698  0.18323  0.46051  1.0000
  H   H33       1.0  0.31933  0.01792  0.46232  1.0000
  H   H34       1.0  0.37533  0.01698  0.47670  1.0000
  N   N5        1.0  0.99176  0.23640  0.38812  1.0000
  N   N6        1.0  0.99205  0.26712  0.38976  1.0000
  N   N7        1.0  0.26634  0.99257  0.38909  1.0000
  N   N8        1.0  0.23561  0.99296  0.38996  1.0000
  C   C57       1.0  0.43456  0.97225  0.35282  1.0000
  C   C58       1.0  0.03168  0.93498  0.35076  1.0000
  C   C59       1.0  0.49958  0.58467  0.34845  1.0000
  C   C60       1.0  0.47002  0.56909  0.35023  1.0000
  C   C61       1.0  0.41794  0.56046  0.34795  1.0000
  C   C62       1.0  0.44060  0.58362  0.34917  1.0000
  C   C63       1.0  0.33699  0.99077  0.25675  1.0000
  C   C64       1.0  0.36993  0.99096  0.26440  1.0000
  C   C65       1.0  0.49949  0.61826  0.34180  1.0000
  C   C66       1.0  0.49029  0.66611  0.25410  1.0000
  C   C67       1.0  0.49019  0.63315  0.26131  1.0000
  C   C68       1.0  0.13144  0.50294  0.25763  1.0000
  C   C69       1.0  0.16441  0.50309  0.25050  1.0000
  C   C70       1.0  0.00186  0.87157  0.25926  1.0000
  C   C71       1.0  0.00197  0.83863  0.25170  1.0000
  H   H35       1.0  0.00097  0.82932  0.18857  1.0000
  H   H36       1.0  0.00145  0.88491  0.20208  1.0000
  H   H37       1.0  0.43927  0.89644  0.35794  1.0000
  H   H38       1.0  0.11819  0.50253  0.20030  1.0000
  H   H39       1.0  0.17381  0.50217  0.18747  1.0000
  H   H40       1.0  0.06257  0.60730  0.33305  1.0000
  H   H41       1.0  0.39433  0.56465  0.34567  1.0000
  H   H42       1.0  0.43591  0.60715  0.34771  1.0000
  H   H43       1.0  0.48300  0.62006  0.20746  1.0000
  H   H44       1.0  0.48238  0.67587  0.19568  1.0000
  H   H45       1.0  0.38316  0.98381  0.21077  1.0000
  H   H46       1.0  0.32739  0.98269  0.19832  1.0000
  C   C72       1.0  0.00293  0.78528  0.32132  1.0000
  C   C73       1.0  0.51485  0.76888  0.24610  1.0000
  C   C74       1.0  0.51437  0.73562  0.24265  1.0000
  C   C75       1.0  0.00214  0.71888  0.31766  1.0000
  H   H47       1.0  0.52501  0.78106  0.19454  1.0000
  C   C76       1.0  0.52784  0.72034  0.16977  1.0000
  C   C77       1.0  0.01478  0.72448  0.08066  1.0000
  H   H48       1.0  0.48912  0.72376  0.08252  1.0000
  H   H49       1.0  0.02280  0.70558  0.03662  1.0000
  H   H50       1.0  0.02215  0.74693  0.05196  1.0000
  O   O3        1.0  0.55642  0.71764  0.17394  1.0000
  C   C78       1.0  0.21767  0.50376  0.32097  1.0000
  C   C79       1.0  0.23432  0.01551  0.24597  1.0000
  C   C80       1.0  0.26758  0.01492  0.24331  1.0000
  C   C81       1.0  0.28408  0.50278  0.31889  1.0000
  H   H51       1.0  0.22231  0.02555  0.19390  1.0000
  C   C82       1.0  0.28311  0.02818  0.17054  1.0000
  C   C83       1.0  0.27926  0.51488  0.08162  1.0000
  H   H52       1.0  0.27994  0.98923  0.08408  1.0000
  H   H53       1.0  0.29832  0.52275  0.03794  1.0000
  H   H54       1.0  0.25692  0.52219  0.05212  1.0000
  O   O4        1.0  0.28583  0.05677  0.17414  1.0000
  C   C84       1.0  0.44342  0.92007  0.35593  1.0000
  C   C85       1.0  0.42024  0.94273  0.35652  1.0000
  N   N9        1.0  0.46588  0.96635  0.35178  1.0000
  C   C86       1.0  0.47254  0.93518  0.35287  1.0000
  C   C87       1.0  0.50210  0.91956  0.35092  1.0000
  N   N10       1.0  0.03742  0.96622  0.35221  1.0000
  C   C88       1.0  0.06853  0.97260  0.35082  1.0000
  C   C89       1.0  0.08374  0.94352  0.34891  1.0000
  C   C90       1.0  0.06104  0.92036  0.34870  1.0000
  C   C91       1.0  0.08332  0.00250  0.34931  1.0000
  C   C92       1.0  0.06707  0.53175  0.34859  1.0000
  N   N11       1.0  0.03581  0.53783  0.35360  1.0000
  C   C93       1.0  0.02917  0.56897  0.34830  1.0000
  C   C94       1.0  0.05833  0.58382  0.34030  1.0000
  C   C95       1.0  0.08147  0.56111  0.34092  1.0000
  N   N12       1.0  0.46423  0.53783  0.35176  1.0000
  C   C96       1.0  0.43310  0.53137  0.35064  1.0000
  C   C97       1.0  0.41820  0.00145  0.35084  1.0000
  C   C98       1.0  0.38462  0.00071  0.34474  1.0000
  C   C99       1.0  0.36539  0.50986  0.41755  1.0000
  C   C100      1.0  0.33241  0.51021  0.40905  1.0000
  C   C101      1.0  0.31755  0.00128  0.32783  1.0000
  C   C102      1.0  0.00878  0.63731  0.41485  1.0000
  C   C103      1.0  0.00939  0.67029  0.40681  1.0000
  C   C104      1.0  0.50066  0.68537  0.32575  1.0000
  C   C105      1.0  0.11679  0.00303  0.34257  1.0000
  C   C106      1.0  0.18400  0.00346  0.32763  1.0000
  C   C107      1.0  0.16887  0.00308  0.41252  1.0000
  C   C108      1.0  0.13587  0.00296  0.42006  1.0000
  C   C109      1.0  0.50213  0.88609  0.34437  1.0000
  C   C110      1.0  0.50219  0.86691  0.42165  1.0000
  C   C111      1.0  0.50225  0.83391  0.41368  1.0000
  C   C112      1.0  0.50251  0.81892  0.32857  1.0000
  H   H55       1.0  0.50267  0.82089  0.47139  1.0000
  H   H56       1.0  0.50227  0.87685  0.48421  1.0000
  H   H57       1.0  0.39674  0.93793  0.35923  1.0000
  H   H58       1.0  0.48162  0.98245  0.34766  1.0000
  H   H59       1.0  0.02012  0.52183  0.36111  1.0000
  H   H60       1.0  0.06559  0.89680  0.34702  1.0000
  H   H61       1.0  0.10738  0.93945  0.34690  1.0000
  H   H62       1.0  0.12584  0.00282  0.48251  1.0000
  H   H63       1.0  0.18178  0.00334  0.47043  1.0000
  H   H64       1.0  0.10494  0.56569  0.33476  1.0000
  H   H65       1.0  0.01560  0.62723  0.47410  1.0000
  H   H66       1.0  0.01698  0.68323  0.46051  1.0000
  H   H67       1.0  0.31933  0.51792  0.46232  1.0000
  H   H68       1.0  0.37533  0.51698  0.47670  1.0000
  N   N13       1.0  0.99176  0.73640  0.38812  1.0000
  N   N14       1.0  0.99205  0.76713  0.38976  1.0000
  N   N15       1.0  0.26634  0.49257  0.38909  1.0000
  N   N16       1.0  0.23561  0.49295  0.38996  1.0000
  C   C113      1.0  0.93456  0.47225  0.35282  1.0000
  C   C114      1.0  0.53168  0.43498  0.35076  1.0000
  C   C115      1.0  0.99958  0.08467  0.34845  1.0000
  C   C116      1.0  0.97002  0.06909  0.35023  1.0000
  C   C117      1.0  0.91794  0.06046  0.34795  1.0000
  C   C118      1.0  0.94060  0.08362  0.34917  1.0000
  C   C119      1.0  0.83699  0.49077  0.25675  1.0000
  C   C120      1.0  0.86993  0.49096  0.26440  1.0000
  C   C121      1.0  0.99949  0.11826  0.34180  1.0000
  C   C122      1.0  0.99029  0.16611  0.25410  1.0000
  C   C123      1.0  0.99020  0.13315  0.26131  1.0000
  C   C124      1.0  0.63144  0.00294  0.25763  1.0000
  C   C125      1.0  0.66441  0.00309  0.25050  1.0000
  C   C126      1.0  0.50186  0.37157  0.25926  1.0000
  C   C127      1.0  0.50197  0.33863  0.25170  1.0000
  H   H69       1.0  0.50097  0.32932  0.18857  1.0000
  H   H70       1.0  0.50145  0.38491  0.20208  1.0000
  H   H71       1.0  0.93927  0.39644  0.35794  1.0000
  H   H72       1.0  0.61819  0.00253  0.20030  1.0000
  H   H73       1.0  0.67381  0.00217  0.18747  1.0000
  H   H74       1.0  0.56257  0.10730  0.33305  1.0000
  H   H75       1.0  0.89433  0.06465  0.34567  1.0000
  H   H76       1.0  0.93591  0.10715  0.34771  1.0000
  H   H77       1.0  0.98300  0.12006  0.20746  1.0000
  H   H78       1.0  0.98238  0.17587  0.19568  1.0000
  H   H79       1.0  0.88316  0.48381  0.21077  1.0000
  H   H80       1.0  0.82739  0.48269  0.19832  1.0000
  C   C128      1.0  0.50293  0.28528  0.32132  1.0000
  C   C129      1.0  0.01485  0.26887  0.24610  1.0000
  C   C130      1.0  0.01437  0.23562  0.24265  1.0000
  C   C131      1.0  0.50214  0.21888  0.31766  1.0000
  H   H81       1.0  0.02501  0.28106  0.19454  1.0000
  C   C132      1.0  0.02783  0.22034  0.16977  1.0000
  C   C133      1.0  0.51478  0.22448  0.08066  1.0000
  H   H82       1.0  0.98912  0.22376  0.08252  1.0000
  H   H83       1.0  0.52280  0.20558  0.03662  1.0000
  H   H84       1.0  0.52215  0.24693  0.05196  1.0000
  O   O5        1.0  0.05642  0.21765  0.17394  1.0000
  C   C134      1.0  0.71766  0.00376  0.32097  1.0000
  C   C135      1.0  0.73432  0.51551  0.24597  1.0000
  C   C136      1.0  0.76758  0.51492  0.24331  1.0000
  C   C137      1.0  0.78408  0.00278  0.31889  1.0000
  H   H85       1.0  0.72231  0.52555  0.19390  1.0000
  C   C138      1.0  0.78311  0.52818  0.17054  1.0000
  C   C139      1.0  0.77926  0.01488  0.08162  1.0000
  H   H86       1.0  0.77994  0.48923  0.08408  1.0000
  H   H87       1.0  0.79832  0.02276  0.03794  1.0000
  H   H88       1.0  0.75692  0.02219  0.05212  1.0000
  O   O6        1.0  0.78583  0.55677  0.17414  1.0000
  C   C140      1.0  0.94343  0.42007  0.35593  1.0000
  C   C141      1.0  0.92023  0.44272  0.35652  1.0000
  N   N17       1.0  0.96588  0.46635  0.35178  1.0000
  C   C142      1.0  0.97254  0.43518  0.35287  1.0000
  C   C143      1.0  0.00210  0.41956  0.35092  1.0000
  N   N18       1.0  0.53742  0.46622  0.35221  1.0000
  C   C144      1.0  0.56853  0.47259  0.35082  1.0000
  C   C145      1.0  0.58374  0.44352  0.34891  1.0000
  C   C146      1.0  0.56104  0.42036  0.34870  1.0000
  C   C147      1.0  0.58332  0.50250  0.34931  1.0000
  C   C148      1.0  0.56707  0.03174  0.34859  1.0000
  N   N19       1.0  0.53581  0.03783  0.35360  1.0000
  C   C149      1.0  0.52917  0.06897  0.34830  1.0000
  C   C150      1.0  0.55833  0.08382  0.34030  1.0000
  C   C151      1.0  0.58147  0.06111  0.34092  1.0000
  N   N20       1.0  0.96423  0.03783  0.35176  1.0000
  C   C152      1.0  0.93310  0.03137  0.35064  1.0000
  C   C153      1.0  0.91820  0.50145  0.35084  1.0000
  C   C154      1.0  0.88462  0.50071  0.34474  1.0000
  C   C155      1.0  0.86539  0.00986  0.41755  1.0000
  C   C156      1.0  0.83241  0.01021  0.40905  1.0000
  C   C157      1.0  0.81755  0.50128  0.32783  1.0000
  C   C158      1.0  0.50878  0.13731  0.41485  1.0000
  C   C159      1.0  0.50939  0.17029  0.40681  1.0000
  C   C160      1.0  0.00067  0.18537  0.32575  1.0000
  C   C161      1.0  0.61679  0.50303  0.34257  1.0000
  C   C162      1.0  0.68400  0.50346  0.32763  1.0000
  C   C163      1.0  0.66887  0.50308  0.41252  1.0000
  C   C164      1.0  0.63587  0.50296  0.42006  1.0000
  C   C165      1.0  0.00214  0.38609  0.34437  1.0000
  C   C166      1.0  0.00219  0.36691  0.42165  1.0000
  C   C167      1.0  0.00225  0.33391  0.41368  1.0000
  C   C168      1.0  0.00251  0.31892  0.32857  1.0000
  H   H89       1.0  0.00267  0.32089  0.47139  1.0000
  H   H90       1.0  0.00227  0.37685  0.48421  1.0000
  H   H91       1.0  0.89674  0.43793  0.35923  1.0000
  H   H92       1.0  0.98162  0.48245  0.34766  1.0000
  H   H93       1.0  0.52012  0.02183  0.36111  1.0000
  H   H94       1.0  0.56559  0.39680  0.34702  1.0000
  H   H95       1.0  0.60738  0.43945  0.34690  1.0000
  H   H96       1.0  0.62584  0.50282  0.48251  1.0000
  H   H97       1.0  0.68178  0.50334  0.47043  1.0000
  H   H98       1.0  0.60494  0.06569  0.33476  1.0000
  H   H99       1.0  0.51560  0.12723  0.47410  1.0000
  H   H100      1.0  0.51698  0.18323  0.46051  1.0000
  H   H101      1.0  0.81933  0.01792  0.46232  1.0000
  H   H102      1.0  0.87533  0.01698  0.47670  1.0000
  N   N21       1.0  0.49176  0.23640  0.38812  1.0000
  N   N22       1.0  0.49205  0.26712  0.38976  1.0000
  N   N23       1.0  0.76634  0.99257  0.38909  1.0000
  N   N24       1.0  0.73561  0.99296  0.38996  1.0000
  C   C169      1.0  0.93456  0.97225  0.35282  1.0000
  C   C170      1.0  0.53168  0.93498  0.35076  1.0000
  C   C171      1.0  0.99958  0.58467  0.34845  1.0000
  C   C172      1.0  0.97002  0.56909  0.35023  1.0000
  C   C173      1.0  0.91794  0.56046  0.34795  1.0000
  C   C174      1.0  0.94060  0.58362  0.34917  1.0000
  C   C175      1.0  0.83699  0.99077  0.25675  1.0000
  C   C176      1.0  0.86993  0.99096  0.26440  1.0000
  C   C177      1.0  0.99949  0.61826  0.34180  1.0000
  C   C178      1.0  0.99029  0.66611  0.25410  1.0000
  C   C179      1.0  0.99020  0.63315  0.26131  1.0000
  C   C180      1.0  0.63144  0.50294  0.25763  1.0000
  C   C181      1.0  0.66441  0.50309  0.25050  1.0000
  C   C182      1.0  0.50186  0.87157  0.25926  1.0000
  C   C183      1.0  0.50197  0.83863  0.25170  1.0000
  H   H103      1.0  0.50097  0.82932  0.18857  1.0000
  H   H104      1.0  0.50145  0.88491  0.20208  1.0000
  H   H105      1.0  0.93927  0.89644  0.35794  1.0000
  H   H106      1.0  0.61819  0.50253  0.20030  1.0000
  H   H107      1.0  0.67381  0.50217  0.18747  1.0000
  H   H108      1.0  0.56257  0.60730  0.33305  1.0000
  H   H109      1.0  0.89433  0.56465  0.34567  1.0000
  H   H110      1.0  0.93591  0.60715  0.34771  1.0000
  H   H111      1.0  0.98300  0.62006  0.20746  1.0000
  H   H112      1.0  0.98238  0.67587  0.19568  1.0000
  H   H113      1.0  0.88316  0.98381  0.21077  1.0000
  H   H114      1.0  0.82739  0.98269  0.19832  1.0000
  C   C184      1.0  0.50293  0.78528  0.32132  1.0000
  C   C185      1.0  0.01485  0.76888  0.24610  1.0000
  C   C186      1.0  0.01437  0.73562  0.24265  1.0000
  C   C187      1.0  0.50214  0.71888  0.31766  1.0000
  H   H115      1.0  0.02501  0.78106  0.19454  1.0000
  C   C188      1.0  0.02783  0.72034  0.16977  1.0000
  C   C189      1.0  0.51478  0.72448  0.08066  1.0000
  H   H116      1.0  0.98912  0.72376  0.08252  1.0000
  H   H117      1.0  0.52280  0.70558  0.03662  1.0000
  H   H118      1.0  0.52215  0.74693  0.05196  1.0000
  O   O7        1.0  0.05642  0.71764  0.17394  1.0000
  C   C190      1.0  0.71766  0.50376  0.32097  1.0000
  C   C191      1.0  0.73432  0.01551  0.24597  1.0000
  C   C192      1.0  0.76758  0.01492  0.24331  1.0000
  C   C193      1.0  0.78408  0.50278  0.31889  1.0000
  H   H119      1.0  0.72231  0.02555  0.19390  1.0000
  C   C194      1.0  0.78311  0.02818  0.17054  1.0000
  C   C195      1.0  0.77926  0.51488  0.08162  1.0000
  H   H120      1.0  0.77994  0.98923  0.08408  1.0000
  H   H121      1.0  0.79832  0.52275  0.03794  1.0000
  H   H122      1.0  0.75692  0.52219  0.05212  1.0000
  O   O8        1.0  0.78583  0.05677  0.17414  1.0000
  C   C196      1.0  0.94343  0.92007  0.35593  1.0000
  C   C197      1.0  0.92023  0.94273  0.35652  1.0000
  N   N25       1.0  0.96588  0.96635  0.35178  1.0000
  C   C198      1.0  0.97254  0.93518  0.35287  1.0000
  C   C199      1.0  0.00210  0.91956  0.35092  1.0000
  N   N26       1.0  0.53742  0.96622  0.35221  1.0000
  C   C200      1.0  0.56853  0.97260  0.35082  1.0000
  C   C201      1.0  0.58374  0.94352  0.34891  1.0000
  C   C202      1.0  0.56104  0.92036  0.34870  1.0000
  C   C203      1.0  0.58332  0.00250  0.34931  1.0000
  C   C204      1.0  0.56707  0.53175  0.34859  1.0000
  N   N27       1.0  0.53581  0.53783  0.35360  1.0000
  C   C205      1.0  0.52917  0.56897  0.34830  1.0000
  C   C206      1.0  0.55833  0.58382  0.34030  1.0000
  C   C207      1.0  0.58147  0.56111  0.34092  1.0000
  N   N28       1.0  0.96423  0.53783  0.35176  1.0000
  C   C208      1.0  0.93310  0.53137  0.35064  1.0000
  C   C209      1.0  0.91820  0.00145  0.35084  1.0000
  C   C210      1.0  0.88462  0.00071  0.34474  1.0000
  C   C211      1.0  0.86539  0.50986  0.41755  1.0000
  C   C212      1.0  0.83241  0.51021  0.40905  1.0000
  C   C213      1.0  0.81755  0.00128  0.32783  1.0000
  C   C214      1.0  0.50878  0.63731  0.41485  1.0000
  C   C215      1.0  0.50939  0.67029  0.40681  1.0000
  C   C216      1.0  0.00067  0.68537  0.32575  1.0000
  C   C217      1.0  0.61679  0.00303  0.34257  1.0000
  C   C218      1.0  0.68400  0.00346  0.32763  1.0000
  C   C219      1.0  0.66887  0.00308  0.41252  1.0000
  C   C220      1.0  0.63587  0.00296  0.42006  1.0000
  C   C221      1.0  0.00214  0.88609  0.34437  1.0000
  C   C222      1.0  0.00219  0.86691  0.42165  1.0000
  C   C223      1.0  0.00225  0.83391  0.41368  1.0000
  C   C224      1.0  0.00251  0.81892  0.32857  1.0000
  H   H123      1.0  0.00267  0.82089  0.47139  1.0000
  H   H124      1.0  0.00227  0.87685  0.48421  1.0000
  H   H125      1.0  0.89674  0.93793  0.35923  1.0000
  H   H126      1.0  0.98162  0.98245  0.34766  1.0000
  H   H127      1.0  0.52012  0.52183  0.36111  1.0000
  H   H128      1.0  0.56559  0.89680  0.34702  1.0000
  H   H129      1.0  0.60738  0.93945  0.34690  1.0000
  H   H130      1.0  0.62584  0.00282  0.48251  1.0000
  H   H131      1.0  0.68178  0.00334  0.47043  1.0000
  H   H132      1.0  0.60494  0.56569  0.33476  1.0000
  H   H133      1.0  0.51560  0.62723  0.47410  1.0000
  H   H134      1.0  0.51698  0.68323  0.46051  1.0000
  H   H135      1.0  0.81933  0.51792  0.46232  1.0000
  H   H136      1.0  0.87533  0.51698  0.47670  1.0000
  N   N29       1.0  0.49176  0.73640  0.38812  1.0000
  N   N30       1.0  0.49205  0.76713  0.38976  1.0000
  N   N31       1.0  0.76634  0.49257  0.38909  1.0000
  N   N32       1.0  0.73561  0.49295  0.38996  1.0000
