data_image0
_chemical_formula_structural       C14H12C7NC12H12C2NC3NC3NC15H14CNCHNHCNCHNHCNCHNHCNCHNHCNCHNHCNCHNHC3NC2NC5NC3NC17H14CNC2NC4NC18H14C2NC19H12C4HC6H3C4HC6H3C4HC6H3C4HC6H3C4HC6H3C4HC6H3
_chemical_formula_sum              "C204 H114 N24"
_cell_length_a       50.156
_cell_length_b       50.156
_cell_length_c       15.016
_cell_angle_alpha    90.0312
_cell_angle_beta     89.9688
_cell_angle_gamma    120

_space_group_name_H-M_alt    "P 1"
_space_group_IT_number       1

loop_
  _space_group_symop_operation_xyz
  'x, y, z'

loop_
  _atom_site_type_symbol
  _atom_site_label
  _atom_site_symmetry_multiplicity
  _atom_site_fract_x
  _atom_site_fract_y
  _atom_site_fract_z
  _atom_site_occupancy
  C   C1        1.0  0.95724  0.54007  0.32678  1.0000
  C   C2        1.0  0.08186  0.53023  0.32566  1.0000
  C   C3        1.0  0.09201  0.56227  0.32662  1.0000
  C   C4        1.0  0.12271  0.61365  0.32803  1.0000
  C   C5        1.0  0.12261  0.58614  0.32889  1.0000
  C   C6        1.0  0.13449  0.71185  0.26452  1.0000
  C   C7        1.0  0.11112  0.68078  0.26044  1.0000
  C   C8        1.0  0.10492  0.52141  0.32585  1.0000
  C   C9        1.0  0.14878  0.52120  0.25505  1.0000
  C   C10       1.0  0.12457  0.52769  0.25194  1.0000
  C   C11       1.0  0.93823  0.42156  0.26051  1.0000
  C   C12       1.0  0.91496  0.39045  0.26464  1.0000
  C   C13       1.0  0.92468  0.57459  0.25188  1.0000
  C   C14       1.0  0.90042  0.58098  0.25497  1.0000
  H   H1        1.0  0.88564  0.57383  0.20207  1.0000
  H   H2        1.0  0.92700  0.56386  0.19680  1.0000
  H   H3        1.0  0.99608  0.63784  0.32431  1.0000
  H   H4        1.0  0.95127  0.42959  0.20390  1.0000
  H   H5        1.0  0.91248  0.37691  0.21085  1.0000
  H   H6        1.0  0.05317  0.46450  0.32453  1.0000
  H   H7        1.0  0.14223  0.63478  0.32834  1.0000
  H   H8        1.0  0.14204  0.58439  0.33052  1.0000
  H   H9        1.0  0.12230  0.53841  0.19682  1.0000
  H   H10       1.0  0.16354  0.52826  0.20210  1.0000
  H   H11       1.0  0.09813  0.67275  0.20377  1.0000
  H   H12       1.0  0.13708  0.72539  0.21066  1.0000
  C   C15       1.0  0.44787  0.45837  0.32489  1.0000
  C   C16       1.0  0.45358  0.50582  0.32752  1.0000
  C   C17       1.0  0.53520  0.49382  0.32638  1.0000
  C   C18       1.0  0.59463  0.59441  0.32774  1.0000
  C   C19       1.0  0.60034  0.64186  0.32513  1.0000
  C   C20       1.0  0.54505  0.62829  0.32529  1.0000
  C   C21       1.0  0.51301  0.60641  0.32628  1.0000
  N   N1        1.0  0.49924  0.57533  0.32634  1.0000
  C   C22       1.0  0.46163  0.58573  0.32773  1.0000
  C   C23       1.0  0.48914  0.61314  0.32849  1.0000
  C   C24       1.0  0.36342  0.49928  0.26425  1.0000
  C   C25       1.0  0.39449  0.50698  0.26012  1.0000
  C   C26       1.0  0.55387  0.66018  0.32548  1.0000
  C   C27       1.0  0.56847  0.72338  0.32969  1.0000
  C   C28       1.0  0.55410  0.70423  0.25465  1.0000
  C   C29       1.0  0.54758  0.67353  0.25158  1.0000
  C   C30       1.0  0.65372  0.59331  0.26023  1.0000
  C   C31       1.0  0.68483  0.60114  0.26437  1.0000
  C   C32       1.0  0.50069  0.42673  0.25152  1.0000
  C   C33       1.0  0.49428  0.39606  0.25463  1.0000
  H   H13       1.0  0.50142  0.38841  0.20174  1.0000
  H   H14       1.0  0.51141  0.43975  0.19643  1.0000
  H   H15       1.0  0.43743  0.43490  0.32399  1.0000
  H   H16       1.0  0.64568  0.59827  0.20359  1.0000
  H   H17       1.0  0.69837  0.61217  0.21057  1.0000
  H   H18       1.0  0.61078  0.66533  0.32408  1.0000
  H   H19       1.0  0.44049  0.58411  0.32792  1.0000
  H   H20       1.0  0.49089  0.63433  0.33011  1.0000
  H   H21       1.0  0.53688  0.66052  0.19644  1.0000
  H   H22       1.0  0.54701  0.71190  0.20174  1.0000
  H   H23       1.0  0.40251  0.50200  0.20344  1.0000
  H   H24       1.0  0.34988  0.48832  0.21040  1.0000
  C   C34       1.0  0.61691  0.06617  0.32491  1.0000
  C   C35       1.0  0.56946  0.02443  0.32733  1.0000
  N   N2        1.0  0.56760  0.05049  0.32589  1.0000
  C   C36       1.0  0.60334  0.10789  0.32515  1.0000
  C   C37       1.0  0.58145  0.11805  0.32614  1.0000
  C   C38       1.0  0.48086  0.07688  0.32742  1.0000
  N   N3        1.0  0.48273  0.05082  0.32588  1.0000
  C   C39       1.0  0.43342  0.03514  0.32497  1.0000
  C   C40       1.0  0.44698  0.99342  0.32513  1.0000
  C   C41       1.0  0.46887  0.98327  0.32607  1.0000
  N   N4        1.0  0.49995  0.00057  0.32612  1.0000
  C   C42       1.0  0.48955  0.95257  0.32742  1.0000
  C   C43       1.0  0.46214  0.95267  0.32822  1.0000
  C   C44       1.0  0.55411  0.96984  0.33284  1.0000
  C   C45       1.0  0.56863  0.92125  0.33927  1.0000
  C   C46       1.0  0.57601  0.94080  0.26392  1.0000
  C   C47       1.0  0.56831  0.96417  0.25980  1.0000
  C   C48       1.0  0.41510  0.97036  0.32541  1.0000
  C   C49       1.0  0.35190  0.92176  0.32979  1.0000
  C   C50       1.0  0.37104  0.92649  0.25474  1.0000
  C   C51       1.0  0.40172  0.95071  0.25150  1.0000
  C   C52       1.0  0.48196  0.13705  0.25991  1.0000
  C   C53       1.0  0.47414  0.16034  0.26404  1.0000
  C   C54       1.0  0.64858  0.15062  0.25148  1.0000
  C   C55       1.0  0.69836  0.17969  0.32977  1.0000
  C   C56       1.0  0.67923  0.17489  0.25471  1.0000
  H   H25       1.0  0.68691  0.18965  0.20178  1.0000
  H   H26       1.0  0.63558  0.14831  0.19634  1.0000
  H   H27       1.0  0.64038  0.07920  0.32377  1.0000
  H   H28       1.0  0.54849  0.05057  0.32599  1.0000
  H   H29       1.0  0.50183  0.05075  0.32587  1.0000
  H   H30       1.0  0.47699  0.12403  0.20327  1.0000
  H   H31       1.0  0.46312  0.16285  0.21024  1.0000
  H   H32       1.0  0.40995  0.02211  0.32399  1.0000
  H   H33       1.0  0.49117  0.93305  0.32750  1.0000
  H   H34       1.0  0.44095  0.93323  0.32979  1.0000
  H   H35       1.0  0.41472  0.95295  0.19639  1.0000
  H   H36       1.0  0.36334  0.91171  0.20183  1.0000
  H   H37       1.0  0.57329  0.97715  0.20312  1.0000
  H   H38       1.0  0.58699  0.93821  0.21007  1.0000
  C   C57       1.0  0.30506  0.50195  0.26169  1.0000
  N   N5        1.0  0.27702  0.49973  0.26420  1.0000
  C   C58       1.0  0.19361  0.49842  0.25691  1.0000
  H   H39       1.0  0.31536  0.50558  0.20082  1.0000
  N   N6        1.0  0.21976  0.49685  0.26176  1.0000
  H   H40       1.0  0.18498  0.49768  0.19487  1.0000
  C   C59       1.0  0.57335  0.87977  0.26137  1.0000
  N   N7        1.0  0.57556  0.85395  0.26388  1.0000
  C   C60       1.0  0.57685  0.77183  0.25657  1.0000
  H   H41       1.0  0.56973  0.88643  0.20049  1.0000
  N   N8        1.0  0.57841  0.79955  0.26143  1.0000
  H   H42       1.0  0.57760  0.76392  0.19453  1.0000
  C   C61       1.0  0.19552  0.77021  0.26184  1.0000
  N   N9        1.0  0.22133  0.79825  0.26430  1.0000
  C   C62       1.0  0.30343  0.88166  0.25680  1.0000
  H   H43       1.0  0.18885  0.75990  0.20099  1.0000
  N   N10       1.0  0.27572  0.85551  0.26172  1.0000
  H   H44       1.0  0.31132  0.89028  0.19474  1.0000
  C   C63       1.0  0.74341  0.59892  0.26185  1.0000
  N   N11       1.0  0.77155  0.60138  0.26436  1.0000
  C   C64       1.0  0.85534  0.60345  0.25700  1.0000
  H   H45       1.0  0.73315  0.59527  0.20094  1.0000
  N   N12       1.0  0.82906  0.60477  0.26189  1.0000
  H   H46       1.0  0.86404  0.60431  0.19496  1.0000
  C   C65       1.0  0.47637  0.22116  0.26150  1.0000
  N   N13       1.0  0.47390  0.24683  0.26402  1.0000
  C   C66       1.0  0.47179  0.32851  0.25667  1.0000
  H   H47       1.0  0.48003  0.21452  0.20060  1.0000
  N   N14       1.0  0.47047  0.30092  0.26155  1.0000
  H   H48       1.0  0.47094  0.33635  0.19463  1.0000
  C   C67       1.0  0.85416  0.33186  0.26201  1.0000
  N   N15       1.0  0.82848  0.30372  0.26448  1.0000
  C   C68       1.0  0.74679  0.21993  0.25690  1.0000
  H   H49       1.0  0.86081  0.34213  0.20112  1.0000
  N   N16       1.0  0.77438  0.24622  0.26187  1.0000
  H   H50       1.0  0.73898  0.21124  0.19484  1.0000
  C   C69       1.0  0.00911  0.62740  0.32547  1.0000
  C   C70       1.0  0.04082  0.64316  0.32867  1.0000
  C   C71       1.0  0.05085  0.62170  0.32794  1.0000
  N   N17       1.0  0.02479  0.59377  0.32652  1.0000
  C   C72       1.0  0.99885  0.59586  0.32590  1.0000
  C   C73       1.0  0.96739  0.57212  0.32573  1.0000
  N   N18       1.0  0.97454  0.52630  0.32685  1.0000
  C   C74       1.0  0.95708  0.49524  0.32836  1.0000
  C   C75       1.0  0.92653  0.48869  0.32825  1.0000
  C   C76       1.0  0.92664  0.51621  0.32904  1.0000
  C   C77       1.0  0.96702  0.47319  0.32947  1.0000
  C   C78       1.0  0.99840  0.48065  0.32799  1.0000
  N   N19       1.0  0.02446  0.50858  0.32638  1.0000
  C   C79       1.0  0.05040  0.50649  0.32580  1.0000
  C   C80       1.0  0.04014  0.47494  0.32537  1.0000
  C   C81       1.0  0.00843  0.45919  0.32879  1.0000
  N   N20       1.0  0.07471  0.57604  0.32669  1.0000
  C   C82       1.0  0.09217  0.60710  0.32820  1.0000
  C   C83       1.0  0.08223  0.62915  0.32935  1.0000
  C   C84       1.0  0.10544  0.66094  0.33350  1.0000
  C   C85       1.0  0.12378  0.67301  0.41045  1.0000
  C   C86       1.0  0.14801  0.70368  0.41255  1.0000
  C   C87       1.0  0.15406  0.72404  0.33984  1.0000
  C   C88       1.0  0.10922  0.50707  0.40096  1.0000
  C   C89       1.0  0.13251  0.49924  0.40189  1.0000
  C   C90       1.0  0.15352  0.50680  0.33004  1.0000
  C   C91       1.0  0.94382  0.44140  0.33355  1.0000
  C   C92       1.0  0.89538  0.37822  0.33996  1.0000
  C   C93       1.0  0.90130  0.39860  0.41257  1.0000
  C   C94       1.0  0.92544  0.42931  0.41044  1.0000
  C   C95       1.0  0.94432  0.58093  0.32582  1.0000
  C   C96       1.0  0.93995  0.59526  0.40091  1.0000
  C   C97       1.0  0.91659  0.60298  0.40183  1.0000
  C   C98       1.0  0.89558  0.59532  0.33001  1.0000
  H   H51       1.0  0.91509  0.61411  0.45694  1.0000
  H   H52       1.0  0.95389  0.60030  0.45552  1.0000
  H   H53       1.0  0.05398  0.66661  0.33059  1.0000
  H   H54       1.0  0.02471  0.57459  0.32664  1.0000
  H   H55       1.0  0.02453  0.52776  0.32658  1.0000
  H   H56       1.0  0.90720  0.51795  0.33064  1.0000
  H   H57       1.0  0.90702  0.46756  0.32846  1.0000
  H   H58       1.0  0.92868  0.44319  0.46420  1.0000
  H   H59       1.0  0.88748  0.39177  0.46763  1.0000
  H   H60       1.0  0.99528  0.43574  0.33096  1.0000
  H   H61       1.0  0.09526  0.50207  0.45555  1.0000
  H   H62       1.0  0.13392  0.48807  0.45696  1.0000
  H   H63       1.0  0.16184  0.71047  0.46756  1.0000
  H   H64       1.0  0.12050  0.65913  0.46418  1.0000
  C   C99       1.0  0.43212  0.47433  0.32830  1.0000
  N   N21       1.0  0.48151  0.50768  0.32602  1.0000
  C   C100      1.0  0.47942  0.47965  0.32543  1.0000
  C   C101      1.0  0.50316  0.47194  0.32533  1.0000
  N   N22       1.0  0.54898  0.52490  0.32646  1.0000
  C   C102      1.0  0.58003  0.53850  0.32801  1.0000
  C   C103      1.0  0.58659  0.51451  0.32792  1.0000
  C   C104      1.0  0.55907  0.48709  0.32868  1.0000
  C   C105      1.0  0.60208  0.57049  0.32917  1.0000
  N   N23       1.0  0.56670  0.59255  0.32616  1.0000
  C   C106      1.0  0.56879  0.62058  0.32552  1.0000
  C   C107      1.0  0.61609  0.62591  0.32857  1.0000
  C   C108      1.0  0.46818  0.56173  0.32784  1.0000
  C   C109      1.0  0.44613  0.52974  0.32899  1.0000
  C   C110      1.0  0.41434  0.52117  0.33318  1.0000
  C   C111      1.0  0.40227  0.52746  0.41014  1.0000
  C   C112      1.0  0.37160  0.52101  0.41228  1.0000
  C   C113      1.0  0.35123  0.50667  0.33961  1.0000
  C   C114      1.0  0.56821  0.67884  0.40060  1.0000
  C   C115      1.0  0.57603  0.70995  0.40154  1.0000
  C   C116      1.0  0.63387  0.57908  0.33326  1.0000
  C   C117      1.0  0.69705  0.59383  0.33972  1.0000
  C   C118      1.0  0.67668  0.57941  0.41235  1.0000
  C   C119      1.0  0.64596  0.57283  0.41019  1.0000
  C   C120      1.0  0.49435  0.44005  0.32544  1.0000
  C   C121      1.0  0.48002  0.42139  0.40055  1.0000
  C   C122      1.0  0.47229  0.39030  0.40150  1.0000
  C   C123      1.0  0.47994  0.37692  0.32967  1.0000
  H   H65       1.0  0.46116  0.37770  0.45661  1.0000
  H   H66       1.0  0.47499  0.43032  0.45515  1.0000
  H   H67       1.0  0.40867  0.46404  0.33025  1.0000
  H   H68       1.0  0.50068  0.52679  0.32629  1.0000
  H   H69       1.0  0.54752  0.57344  0.32624  1.0000
  H   H70       1.0  0.55732  0.46591  0.33032  1.0000
  H   H71       1.0  0.60772  0.51613  0.32818  1.0000
  H   H72       1.0  0.63207  0.56219  0.46390  1.0000
  H   H73       1.0  0.68349  0.57240  0.46736  1.0000
  H   H74       1.0  0.63954  0.63620  0.33055  1.0000
  H   H75       1.0  0.57321  0.66990  0.45519  1.0000
  H   H76       1.0  0.58720  0.72256  0.45662  1.0000
  H   H77       1.0  0.36482  0.52807  0.46730  1.0000
  H   H78       1.0  0.41617  0.53809  0.46385  1.0000
  C   C124      1.0  0.60095  0.03447  0.32814  1.0000
  C   C125      1.0  0.59563  0.07643  0.32533  1.0000
  N   N24       1.0  0.55038  0.10074  0.32620  1.0000
  C   C126      1.0  0.53678  0.11820  0.32770  1.0000
  C   C127      1.0  0.56077  0.14875  0.32758  1.0000
  C   C128      1.0  0.58819  0.14865  0.32840  1.0000
  C   C129      1.0  0.50478  0.10826  0.32881  1.0000
  C   C130      1.0  0.45470  0.02488  0.32533  1.0000
  C   C131      1.0  0.44937  0.06684  0.32832  1.0000
  C   C132      1.0  0.51355  0.98311  0.32755  1.0000
  C   C133      1.0  0.54554  0.99305  0.32868  1.0000
  C   C134      1.0  0.54783  0.95151  0.40980  1.0000
  C   C135      1.0  0.55428  0.92729  0.41194  1.0000
  C   C136      1.0  0.39646  0.96607  0.40058  1.0000
  C   C137      1.0  0.36535  0.94279  0.40158  1.0000
  C   C138      1.0  0.49620  0.13146  0.33293  1.0000
  C   C139      1.0  0.48147  0.17991  0.33937  1.0000
  C   C140      1.0  0.49588  0.17397  0.41201  1.0000
  C   C141      1.0  0.50246  0.14983  0.40983  1.0000
  C   C142      1.0  0.63522  0.13096  0.32537  1.0000
  C   C143      1.0  0.65386  0.13531  0.40052  1.0000
  C   C144      1.0  0.68495  0.15867  0.40156  1.0000
  H   H79       1.0  0.69754  0.16015  0.45669  1.0000
  H   H80       1.0  0.64492  0.12136  0.45510  1.0000
  H   H81       1.0  0.61125  0.02130  0.32996  1.0000
  H   H82       1.0  0.60936  0.16808  0.33003  1.0000
  H   H83       1.0  0.55915  0.16826  0.32780  1.0000
  H   H84       1.0  0.51309  0.14659  0.46358  1.0000
  H   H85       1.0  0.50290  0.18781  0.46702  1.0000
  H   H86       1.0  0.43908  0.08000  0.33034  1.0000
  H   H87       1.0  0.40542  0.98003  0.45515  1.0000
  H   H88       1.0  0.35276  0.94137  0.45670  1.0000
  H   H89       1.0  0.54723  0.91347  0.46697  1.0000
  H   H90       1.0  0.53719  0.95479  0.46352  1.0000
  C   C145      1.0  0.32024  0.50146  0.34084  1.0000
  C   C146      1.0  0.26155  0.49697  0.34090  1.0000
  C   C147      1.0  0.27507  0.49622  0.42309  1.0000
  C   C148      1.0  0.30384  0.49751  0.42148  1.0000
  H   H91       1.0  0.31317  0.49629  0.48082  1.0000
  C   C149      1.0  0.23338  0.49689  0.33977  1.0000
  C   C150      1.0  0.17932  0.50163  0.33458  1.0000
  C   C151      1.0  0.19293  0.50089  0.41689  1.0000
  C   C152      1.0  0.21945  0.49792  0.42089  1.0000
  C   C153      1.0  0.23292  0.49699  0.50254  1.0000
  C   C154      1.0  0.26015  0.49546  0.50361  1.0000
  H   H92       1.0  0.22314  0.49763  0.56177  1.0000
  H   H93       1.0  0.26981  0.49539  0.56361  1.0000
  H   H94       1.0  0.18438  0.50389  0.47549  1.0000
  C   C155      1.0  0.57386  0.89548  0.34052  1.0000
  C   C156      1.0  0.57831  0.84126  0.34057  1.0000
  C   C157      1.0  0.57906  0.85556  0.42276  1.0000
  C   C158      1.0  0.57780  0.88305  0.42116  1.0000
  H   H95       1.0  0.57899  0.89359  0.48051  1.0000
  C   C159      1.0  0.57837  0.81316  0.33944  1.0000
  C   C160      1.0  0.57364  0.75436  0.33424  1.0000
  C   C161      1.0  0.57434  0.76871  0.41654  1.0000
  C   C162      1.0  0.57732  0.79821  0.42055  1.0000
  C   C163      1.0  0.57826  0.81263  0.50221  1.0000
  C   C164      1.0  0.57978  0.84140  0.50329  1.0000
  H   H96       1.0  0.57762  0.80223  0.56144  1.0000
  H   H97       1.0  0.57990  0.85116  0.56328  1.0000
  H   H98       1.0  0.57138  0.75720  0.47515  1.0000
  C   C165      1.0  0.17984  0.75503  0.34104  1.0000
  C   C166      1.0  0.23404  0.81372  0.34096  1.0000
  C   C167      1.0  0.21977  0.80021  0.42319  1.0000
  C   C168      1.0  0.19229  0.77145  0.42165  1.0000
  H   H99       1.0  0.18174  0.76212  0.48101  1.0000
  C   C169      1.0  0.26213  0.84189  0.33977  1.0000
  C   C170      1.0  0.32092  0.89596  0.33442  1.0000
  C   C171      1.0  0.30659  0.88237  0.41676  1.0000
  C   C172      1.0  0.27710  0.85584  0.42084  1.0000
  C   C173      1.0  0.26269  0.84238  0.50254  1.0000
  C   C174      1.0  0.23392  0.81514  0.50368  1.0000
  H   H100      1.0  0.27311  0.85217  0.56174  1.0000
  H   H101      1.0  0.22421  0.80550  0.56370  1.0000
  H   H102      1.0  0.31812  0.89092  0.47534  1.0000
  C   C175      1.0  0.72812  0.59923  0.34101  1.0000
  C   C176      1.0  0.78702  0.60420  0.34106  1.0000
  C   C177      1.0  0.77337  0.60476  0.42327  1.0000
  C   C178      1.0  0.74450  0.60324  0.42167  1.0000
  H   H103      1.0  0.73508  0.60431  0.48103  1.0000
  C   C179      1.0  0.81531  0.60453  0.33991  1.0000
  C   C180      1.0  0.86965  0.60030  0.33463  1.0000
  C   C181      1.0  0.85593  0.60084  0.41695  1.0000
  C   C182      1.0  0.82927  0.60357  0.42101  1.0000
  C   C183      1.0  0.81568  0.60431  0.50268  1.0000
  C   C184      1.0  0.78829  0.60556  0.50379  1.0000
  H   H104      1.0  0.82547  0.60372  0.56190  1.0000
  H   H105      1.0  0.77857  0.60553  0.56379  1.0000
  H   H106      1.0  0.86452  0.59792  0.47552  1.0000
  C   C185      1.0  0.47608  0.20558  0.34066  1.0000
  C   C186      1.0  0.47107  0.25948  0.34072  1.0000
  C   C187      1.0  0.47052  0.24532  0.42293  1.0000
  C   C188      1.0  0.47207  0.21797  0.42133  1.0000
  H   H107      1.0  0.47098  0.20750  0.48069  1.0000
  C   C189      1.0  0.47071  0.28743  0.33958  1.0000
  C   C190      1.0  0.47493  0.34600  0.33430  1.0000
  C   C191      1.0  0.47438  0.33176  0.41662  1.0000
  C   C192      1.0  0.47167  0.30238  0.42068  1.0000
  C   C193      1.0  0.47095  0.28809  0.50235  1.0000
  C   C194      1.0  0.46969  0.25944  0.50345  1.0000
  H   H108      1.0  0.47155  0.29850  0.56157  1.0000
  H   H109      1.0  0.46978  0.24980  0.56346  1.0000
  H   H110      1.0  0.47734  0.34331  0.47519  1.0000
  C   C195      1.0  0.86973  0.34715  0.34121  1.0000
  C   C196      1.0  0.81580  0.28825  0.34114  1.0000
  C   C197      1.0  0.82995  0.30189  0.42339  1.0000
  C   C198      1.0  0.85730  0.33076  0.42184  1.0000
  H   H111      1.0  0.86775  0.34018  0.48123  1.0000
  C   C199      1.0  0.78784  0.25995  0.33992  1.0000
  C   C200      1.0  0.72927  0.20561  0.33448  1.0000
  C   C201      1.0  0.74348  0.21932  0.41685  1.0000
  C   C202      1.0  0.77286  0.24599  0.42098  1.0000
  C   C203      1.0  0.78714  0.25957  0.50270  1.0000
  C   C204      1.0  0.81578  0.28696  0.50387  1.0000
  H   H112      1.0  0.77671  0.24977  0.56189  1.0000
  H   H113      1.0  0.82542  0.29667  0.56390  1.0000
  H   H114      1.0  0.73192  0.21072  0.47538  1.0000
