data_image0
_chemical_formula_structural       C5H6C4H4C4H2NC3H2NCHC12H6C6H3C9H3C8H4C6H3C6H2C3NOCHNC3NOCHNC2ONCHC2HC3HCHCHNC2HCHNC2
_chemical_formula_sum              "C87 H45 N9 O3"
_cell_length_a       45.3564
_cell_length_b       45.362
_cell_length_c       14.3803
_cell_angle_alpha    90
_cell_angle_beta     90
_cell_angle_gamma    119.994

_space_group_name_H-M_alt    "P 1"
_space_group_IT_number       1

loop_
  _space_group_symop_operation_xyz
  'x, y, z'

loop_
  _atom_site_type_symbol
  _atom_site_label
  _atom_site_symmetry_multiplicity
  _atom_site_fract_x
  _atom_site_fract_y
  _atom_site_fract_z
  _atom_site_occupancy
  C   C1        1.0  0.42326  0.59081  0.39918  1.0000
  C   C2        1.0  0.46359  0.84316  0.39495  1.0000
  C   C3        1.0  0.47808  0.87871  0.38539  1.0000
  C   C4        1.0  0.21073  0.63122  0.39523  1.0000
  C   C5        1.0  0.17518  0.61016  0.38567  1.0000
  H   H1        1.0  0.43422  0.55093  0.40320  1.0000
  H   H2        1.0  0.47904  0.83354  0.41226  1.0000
  H   H3        1.0  0.50373  0.89389  0.39547  1.0000
  H   H4        1.0  0.22034  0.65627  0.41276  1.0000
  H   H5        1.0  0.15998  0.62060  0.39590  1.0000
  H   H6        1.0  0.39859  0.57564  0.42049  1.0000
  C   C6        1.0  0.44432  0.57632  0.38938  1.0000
  C   C7        1.0  0.63937  0.45051  0.34844  1.0000
  C   C8        1.0  0.60358  0.19957  0.34706  1.0000
  C   C9        1.0  0.58922  0.16403  0.35625  1.0000
  H   H7        1.0  0.62619  0.48836  0.32921  1.0000
  H   H8        1.0  0.59041  0.20881  0.31112  1.0000
  H   H9        1.0  0.56595  0.14853  0.32668  1.0000
  H   H10       1.0  0.66205  0.46394  0.31391  1.0000
  C   C10       1.0  0.61816  0.46484  0.35747  1.0000
  C   C11       1.0  0.55153  0.50409  0.38130  1.0000
  C   C12       1.0  0.55282  0.52410  0.30435  1.0000
  C   C13       1.0  0.53440  0.54165  0.30398  1.0000
  H   H11       1.0  0.53566  0.55531  0.24616  1.0000
  H   H12       1.0  0.56701  0.52577  0.24719  1.0000
  N   N1        1.0  0.56976  0.48840  0.37772  1.0000
  C   C14       1.0  0.54982  0.05816  0.38155  1.0000
  C   C15       1.0  0.53019  0.03939  0.30418  1.0000
  C   C16       1.0  0.51270  0.00342  0.30397  1.0000
  H   H13       1.0  0.49929  0.99094  0.24590  1.0000
  H   H14       1.0  0.52873  0.05186  0.24663  1.0000
  N   N2        1.0  0.56547  0.09209  0.37786  1.0000
  C   C17       1.0  0.05047  0.52005  0.30393  1.0000
  H   H15       1.0  0.06294  0.51911  0.24586  1.0000
  C   C18       1.0  0.42846  0.82122  0.37907  1.0000
  C   C19       1.0  0.43588  0.62552  0.37838  1.0000
  C   C20       1.0  0.23270  0.61809  0.37900  1.0000
  C   C21       1.0  0.47841  0.59608  0.35831  1.0000
  C   C22       1.0  0.49078  0.63091  0.33834  1.0000
  C   C23       1.0  0.46991  0.64549  0.34836  1.0000
  C   C24       1.0  0.45788  0.89317  0.35959  1.0000
  C   C25       1.0  0.42266  0.87087  0.34458  1.0000
  C   C26       1.0  0.40808  0.83542  0.35432  1.0000
  C   C27       1.0  0.16074  0.57554  0.35945  1.0000
  C   C28       1.0  0.18306  0.56266  0.34413  1.0000
  C   C29       1.0  0.21852  0.58354  0.35393  1.0000
  H   H16       1.0  0.51521  0.64610  0.31531  1.0000
  H   H17       1.0  0.47980  0.67072  0.33225  1.0000
  H   H18       1.0  0.38255  0.82019  0.34188  1.0000
  H   H19       1.0  0.40717  0.88024  0.32537  1.0000
  H   H20       1.0  0.17371  0.53784  0.32466  1.0000
  H   H21       1.0  0.23376  0.57327  0.34123  1.0000
  C   C30       1.0  0.32957  0.67032  0.38844  1.0000
  C   C31       1.0  0.34782  0.70630  0.38834  1.0000
  C   C32       1.0  0.38382  0.72435  0.38844  1.0000
  C   C33       1.0  0.40156  0.70611  0.38834  1.0000
  C   C34       1.0  0.38361  0.67011  0.38845  1.0000
  C   C35       1.0  0.34763  0.65237  0.38834  1.0000
  H   H22       1.0  0.42772  0.71913  0.38787  1.0000
  H   H23       1.0  0.33479  0.71944  0.38787  1.0000
  H   H24       1.0  0.33450  0.62622  0.38787  1.0000
  C   C36       1.0  0.26581  0.63741  0.38467  1.0000
  C   C37       1.0  0.29624  0.65365  0.38729  1.0000
  C   C38       1.0  0.41655  0.63928  0.38445  1.0000
  C   C39       1.0  0.40029  0.65345  0.38726  1.0000
  C   C40       1.0  0.40048  0.75769  0.38730  1.0000
  C   C41       1.0  0.41468  0.78812  0.38470  1.0000
  C   C42       1.0  0.12601  0.55449  0.34389  1.0000
  C   C43       1.0  0.47154  0.92790  0.34410  1.0000
  C   C44       1.0  0.49943  0.58235  0.34278  1.0000
  H   H25       1.0  0.51843  0.59411  0.29760  1.0000
  H   H26       1.0  0.45955  0.93512  0.29967  1.0000
  H   H27       1.0  0.11879  0.53529  0.29941  1.0000
  C   C45       1.0  0.63560  0.22200  0.38687  1.0000
  C   C46       1.0  0.62945  0.41817  0.38658  1.0000
  C   C47       1.0  0.58651  0.44732  0.40469  1.0000
  C   C48       1.0  0.57700  0.41491  0.44262  1.0000
  C   C49       1.0  0.59805  0.40050  0.43377  1.0000
  C   C50       1.0  0.60641  0.14994  0.40532  1.0000
  C   C51       1.0  0.63848  0.17285  0.44496  1.0000
  C   C52       1.0  0.65292  0.20830  0.43595  1.0000
  H   H28       1.0  0.55442  0.40127  0.47741  1.0000
  H   H29       1.0  0.59010  0.37699  0.46230  1.0000
  H   H30       1.0  0.67620  0.22388  0.46573  1.0000
  H   H31       1.0  0.65188  0.16393  0.48113  1.0000
  C   C53       1.0  0.73508  0.37256  0.37337  1.0000
  C   C54       1.0  0.71663  0.33659  0.37349  1.0000
  C   C55       1.0  0.68063  0.31877  0.37337  1.0000
  C   C56       1.0  0.66310  0.33722  0.37349  1.0000
  C   C57       1.0  0.68127  0.37322  0.37339  1.0000
  C   C58       1.0  0.71725  0.39074  0.37349  1.0000
  H   H32       1.0  0.63694  0.32435  0.37424  1.0000
  H   H33       1.0  0.72950  0.32330  0.37423  1.0000
  H   H34       1.0  0.73054  0.41690  0.37425  1.0000
  C   C59       1.0  0.64868  0.40436  0.37916  1.0000
  C   C60       1.0  0.66480  0.39006  0.37529  1.0000
  C   C61       1.0  0.66378  0.28546  0.37529  1.0000
  C   C62       1.0  0.64946  0.25505  0.37925  1.0000
  C   C63       1.0  0.59314  0.11496  0.41652  1.0000
  C   C64       1.0  0.56478  0.46057  0.41577  1.0000
  H   H35       1.0  0.54378  0.44732  0.45342  1.0000
  H   H36       1.0  0.60627  0.10723  0.45481  1.0000
  C   C65       1.0  0.51437  0.54027  0.38148  1.0000
  C   C66       1.0  0.51324  0.52031  0.45799  1.0000
  C   C67       1.0  0.53151  0.50307  0.45799  1.0000
  N   N3        1.0  0.52616  0.48774  0.54024  1.0000
  O   O1        1.0  0.49610  0.51586  0.53931  1.0000
  C   C68       1.0  0.50526  0.49549  0.58656  1.0000
  H   H37       1.0  0.49700  0.48702  0.65245  1.0000
  N   N4        1.0  0.49640  0.55623  0.38672  1.0000
  C   C69       1.0  0.51379  0.98485  0.38205  1.0000
  C   C70       1.0  0.53344  0.00374  0.45892  1.0000
  C   C71       1.0  0.55058  0.03925  0.45878  1.0000
  N   N5        1.0  0.56547  0.04929  0.54155  1.0000
  O   O2        1.0  0.53749  0.99112  0.54087  1.0000
  C   C72       1.0  0.55760  0.02068  0.58826  1.0000
  H   H38       1.0  0.56565  0.02095  0.65470  1.0000
  N   N6        1.0  0.49788  0.95093  0.38738  1.0000
  C   C73       1.0  0.06904  0.53973  0.38197  1.0000
  C   C74       1.0  0.05015  0.54047  0.45885  1.0000
  O   O3        1.0  0.06277  0.55718  0.54076  1.0000
  N   N7        1.0  0.10296  0.55774  0.38729  1.0000
  C   C75       1.0  0.85430  0.41477  0.34699  1.0000
  H   H39       1.0  0.84507  0.39238  0.31101  1.0000
  C   C76       1.0  0.83186  0.42433  0.38689  1.0000
  C   C77       1.0  0.84554  0.45533  0.43602  1.0000
  H   H40       1.0  0.82996  0.46301  0.46585  1.0000
  C   C78       1.0  0.79881  0.40513  0.37927  1.0000
  C   C79       1.0  0.76840  0.38903  0.37530  1.0000
  C   C80       1.0  0.03321  0.54769  0.58819  1.0000
  H   H41       1.0  0.03294  0.55561  0.65448  1.0000
  C   C81       1.0  0.88984  0.43596  0.35617  1.0000
  H   H42       1.0  0.90535  0.42821  0.32654  1.0000
  C   C82       1.0  0.99572  0.50245  0.38149  1.0000
  H   H43       1.0  0.00202  0.48763  0.24659  1.0000
  N   N8        1.0  0.96179  0.48415  0.37782  1.0000
  C   C83       1.0  0.90392  0.46722  0.40530  1.0000
  C   C84       1.0  0.88100  0.47636  0.44501  1.0000
  H   H44       1.0  0.88991  0.49865  0.48122  1.0000
  C   C85       1.0  0.93891  0.48895  0.41646  1.0000
  H   H45       1.0  0.94663  0.50981  0.45472  1.0000
  N   N9        1.0  0.00459  0.52698  0.54146  1.0000
  C   C86       1.0  0.01449  0.50156  0.30415  1.0000
  C   C87       1.0  0.01464  0.52210  0.45874  1.0000
