data_image0
_chemical_formula_structural       C6H4C6H4C6H4C6H4C6H4C6H4C2H2C4H2C2H2C4H2C2H2C4H2C2H2C4H2C2H2C4H2C2H2C4H2C2H2C4H2C2H2C4H2C2H2C4H2C2H2C4H2C2H2C4H2C2H2C4H2CNCNCNCNCNCNCNCNCNCNCNCNCNCNCNCNCNCNCNCNCNCNCNCNCNCNCNCNCNCNCNCNCNCNCNCNC2H2C4H2C2H2C4H2C2H2C4H2C2H2C4H2C2H2C4H2C2H2C4H2C6H4C6H4C6H4C6H4C6H4C6H4C6H4C6H4C6H4C6H4C6H4C6H4
_chemical_formula_sum              "C252 H144 N36"
_cell_length_a       56.5056
_cell_length_b       56.5056
_cell_length_c       14.842
_cell_angle_alpha    90
_cell_angle_beta     90
_cell_angle_gamma    120

_space_group_name_H-M_alt    "P 1"
_space_group_IT_number       1

loop_
  _space_group_symop_operation_xyz
  'x, y, z'

loop_
  _atom_site_type_symbol
  _atom_site_label
  _atom_site_symmetry_multiplicity
  _atom_site_fract_x
  _atom_site_fract_y
  _atom_site_fract_z
  _atom_site_occupancy
  C   C1        1.0  0.16629  0.32184  0.34430  1.0000
  C   C2        1.0  0.19298  0.33691  0.30811  1.0000
  C   C3        1.0  0.20725  0.36572  0.30732  1.0000
  C   C4        1.0  0.19583  0.38096  0.34423  1.0000
  C   C5        1.0  0.23936  0.42574  0.35477  1.0000
  C   C6        1.0  0.25379  0.45455  0.35418  1.0000
  H   H1        1.0  0.25029  0.41601  0.36492  1.0000
  H   H2        1.0  0.27452  0.46436  0.36287  1.0000
  H   H3        1.0  0.20216  0.32703  0.27972  1.0000
  H   H4        1.0  0.22609  0.37547  0.27750  1.0000
  C   C7        1.0  0.68582  0.84149  0.34266  1.0000
  C   C8        1.0  0.67073  0.85435  0.31817  1.0000
  C   C9        1.0  0.64192  0.83990  0.31727  1.0000
  C   C10       1.0  0.62664  0.81194  0.34198  1.0000
  C   C11       1.0  0.58202  0.76919  0.31676  1.0000
  C   C12       1.0  0.55322  0.75467  0.31661  1.0000
  H   H5        1.0  0.59186  0.75904  0.29666  1.0000
  H   H6        1.0  0.54348  0.73459  0.29734  1.0000
  H   H7        1.0  0.68059  0.87442  0.29880  1.0000
  H   H8        1.0  0.63219  0.85008  0.29630  1.0000
  C   C13       1.0  0.16638  0.84152  0.34497  1.0000
  C   C14       1.0  0.15343  0.81340  0.32274  1.0000
  C   C15       1.0  0.16790  0.79906  0.32259  1.0000
  C   C16       1.0  0.19598  0.81194  0.34579  1.0000
  C   C17       1.0  0.23856  0.80966  0.32069  1.0000
  C   C18       1.0  0.25298  0.79526  0.32212  1.0000
  H   H9        1.0  0.24870  0.82947  0.29869  1.0000
  H   H10       1.0  0.27298  0.80530  0.30193  1.0000
  H   H11       1.0  0.13325  0.80301  0.30469  1.0000
  H   H12       1.0  0.15761  0.77899  0.30341  1.0000
  C   C19       1.0  0.84595  0.68116  0.34426  1.0000
  C   C20       1.0  0.81800  0.66602  0.31990  1.0000
  C   C21       1.0  0.80365  0.63721  0.31956  1.0000
  C   C22       1.0  0.81634  0.62198  0.34476  1.0000
  C   C23       1.0  0.81426  0.57714  0.32159  1.0000
  C   C24       1.0  0.79987  0.54833  0.32282  1.0000
  H   H13       1.0  0.83423  0.58683  0.30123  1.0000
  H   H14       1.0  0.81010  0.53841  0.30426  1.0000
  H   H15       1.0  0.80777  0.67584  0.30033  1.0000
  H   H16       1.0  0.78372  0.62745  0.29878  1.0000
  C   C25       1.0  0.32667  0.16185  0.34403  1.0000
  C   C26       1.0  0.34184  0.14807  0.34209  1.0000
  C   C27       1.0  0.37064  0.16247  0.34232  1.0000
  C   C28       1.0  0.38588  0.19142  0.34422  1.0000
  C   C29       1.0  0.43057  0.19674  0.29504  1.0000
  C   C30       1.0  0.45937  0.21096  0.29578  1.0000
  H   H17       1.0  0.42079  0.17948  0.25638  1.0000
  H   H18       1.0  0.46928  0.20337  0.25825  1.0000
  H   H19       1.0  0.33205  0.12717  0.34098  1.0000
  H   H20       1.0  0.38041  0.15134  0.34298  1.0000
  C   C31       1.0  0.84600  0.16180  0.34361  1.0000
  C   C32       1.0  0.85888  0.18981  0.31998  1.0000
  C   C33       1.0  0.84439  0.20413  0.31908  1.0000
  C   C34       1.0  0.81636  0.19134  0.34292  1.0000
  C   C35       1.0  0.77365  0.19326  0.31708  1.0000
  C   C36       1.0  0.75913  0.20754  0.31708  1.0000
  H   H21       1.0  0.76356  0.17333  0.29631  1.0000
  H   H22       1.0  0.73910  0.19727  0.29722  1.0000
  H   H23       1.0  0.87901  0.20011  0.30129  1.0000
  H   H24       1.0  0.85461  0.22410  0.29877  1.0000
  C   C37       1.0  0.19800  0.16337  0.31902  1.0000
  C   C38       1.0  0.21232  0.14889  0.32054  1.0000
  H   H25       1.0  0.17805  0.15313  0.29838  1.0000
  H   H26       1.0  0.20206  0.12877  0.30177  1.0000
  C   C39       1.0  0.19597  0.20613  0.34179  1.0000
  C   C40       1.0  0.16633  0.23565  0.34042  1.0000
  C   C41       1.0  0.19430  0.24848  0.31637  1.0000
  C   C42       1.0  0.20867  0.23404  0.31641  1.0000
  H   H27       1.0  0.20454  0.26855  0.29697  1.0000
  H   H28       1.0  0.22863  0.24421  0.29596  1.0000
  C   C43       1.0  0.84449  0.03167  0.32007  1.0000
  C   C44       1.0  0.85897  0.06047  0.32165  1.0000
  H   H29       1.0  0.85472  0.02198  0.29924  1.0000
  H   H30       1.0  0.87908  0.07035  0.30277  1.0000
  C   C45       1.0  0.80172  0.98688  0.34273  1.0000
  C   C46       1.0  0.77217  0.92771  0.34083  1.0000
  C   C47       1.0  0.75934  0.94289  0.31719  1.0000
  C   C48       1.0  0.77380  0.97170  0.31750  1.0000
  H   H31       1.0  0.73926  0.93309  0.29792  1.0000
  H   H32       1.0  0.76362  0.98151  0.29737  1.0000
  C   C49       1.0  0.97610  0.80978  0.32060  1.0000
  C   C50       1.0  0.94730  0.79545  0.32202  1.0000
  H   H33       1.0  0.98579  0.82969  0.29968  1.0000
  H   H34       1.0  0.93743  0.80568  0.30286  1.0000
  C   C51       1.0  0.02089  0.81184  0.34379  1.0000
  C   C52       1.0  0.08006  0.84150  0.34218  1.0000
  C   C53       1.0  0.06491  0.81347  0.31878  1.0000
  C   C54       1.0  0.03610  0.79910  0.31893  1.0000
  H   H35       1.0  0.07473  0.80320  0.29967  1.0000
  H   H36       1.0  0.02631  0.77910  0.29887  1.0000
  C   C55       1.0  0.81438  0.83981  0.31998  1.0000
  C   C56       1.0  0.80007  0.85431  0.32132  1.0000
  H   H37       1.0  0.83430  0.85001  0.29915  1.0000
  H   H38       1.0  0.81032  0.87441  0.30227  1.0000
  C   C57       1.0  0.81637  0.79704  0.34310  1.0000
  C   C58       1.0  0.84598  0.76747  0.34156  1.0000
  C   C59       1.0  0.81797  0.75463  0.31802  1.0000
  C   C60       1.0  0.80362  0.76909  0.31816  1.0000
  H   H39       1.0  0.80768  0.73453  0.29894  1.0000
  H   H40       1.0  0.78362  0.75890  0.29809  1.0000
  C   C61       1.0  0.16793  0.97165  0.32059  1.0000
  C   C62       1.0  0.15343  0.94284  0.32204  1.0000
  H   H41       1.0  0.15774  0.98136  0.29964  1.0000
  H   H42       1.0  0.13334  0.93299  0.30286  1.0000
  C   C63       1.0  0.21069  0.01641  0.34392  1.0000
  C   C64       1.0  0.24027  0.07556  0.34257  1.0000
  C   C65       1.0  0.25312  0.06040  0.31909  1.0000
  C   C66       1.0  0.23865  0.03159  0.31912  1.0000
  H   H43       1.0  0.27321  0.07020  0.29995  1.0000
  H   H44       1.0  0.24883  0.02178  0.29898  1.0000
  C   C67       1.0  0.03622  0.19339  0.32191  1.0000
  C   C68       1.0  0.06502  0.20769  0.32335  1.0000
  H   H45       1.0  0.02651  0.17351  0.30056  1.0000
  H   H46       1.0  0.07487  0.19749  0.30381  1.0000
  C   C69       1.0  0.99145  0.19136  0.34515  1.0000
  C   C70       1.0  0.93229  0.16177  0.34266  1.0000
  C   C71       1.0  0.94749  0.18983  0.31974  1.0000
  C   C72       1.0  0.97631  0.20417  0.32035  1.0000
  H   H47       1.0  0.93772  0.20016  0.30077  1.0000
  H   H48       1.0  0.98615  0.22421  0.30071  1.0000
  C   C73       1.0  0.22211  0.58183  0.29269  1.0000
  C   C74       1.0  0.22728  0.55986  0.29431  1.0000
  H   H49       1.0  0.21227  0.58389  0.23794  1.0000
  H   H50       1.0  0.22182  0.54714  0.23965  1.0000
  C   C75       1.0  0.23153  0.62687  0.35275  1.0000
  C   C76       1.0  0.24172  0.68176  0.34436  1.0000
  C   C77       1.0  0.24680  0.66962  0.26913  1.0000
  C   C78       1.0  0.24148  0.64252  0.27289  1.0000
  H   H51       1.0  0.25633  0.68107  0.21316  1.0000
  H   H52       1.0  0.24744  0.63530  0.21938  1.0000
  C   C79       1.0  0.42378  0.63892  0.26169  1.0000
  C   C80       1.0  0.44590  0.66594  0.26558  1.0000
  H   H53       1.0  0.41992  0.62852  0.20207  1.0000
  H   H54       1.0  0.45698  0.67463  0.20829  1.0000
  C   C81       1.0  0.38043  0.60199  0.32709  1.0000
  C   C82       1.0  0.32524  0.55768  0.32415  1.0000
  C   C83       1.0  0.33556  0.57706  0.25358  1.0000
  C   C84       1.0  0.36275  0.59867  0.25453  1.0000
  H   H55       1.0  0.32281  0.57667  0.20375  1.0000
  H   H56       1.0  0.36873  0.61329  0.20544  1.0000
  C   C85       1.0  0.36870  0.78294  0.27857  1.0000
  C   C86       1.0  0.34164  0.77790  0.28374  1.0000
  H   H57       1.0  0.37950  0.79120  0.22053  1.0000
  H   H58       1.0  0.33332  0.78190  0.22856  1.0000
  C   C87       1.0  0.40539  0.77501  0.33763  1.0000
  C   C88       1.0  0.44980  0.76438  0.32778  1.0000
  C   C89       1.0  0.43084  0.75697  0.25633  1.0000
  C   C90       1.0  0.40920  0.76248  0.26070  1.0000
  H   H59       1.0  0.43151  0.74577  0.20310  1.0000
  H   H60       1.0  0.39483  0.75491  0.21058  1.0000
  C   C91       1.0  0.78788  0.42039  0.27893  1.0000
  C   C92       1.0  0.78277  0.44238  0.28346  1.0000
  H   H61       1.0  0.79626  0.41784  0.22119  1.0000
  H   H62       1.0  0.78690  0.45471  0.22826  1.0000
  C   C93       1.0  0.77978  0.37578  0.33860  1.0000
  C   C94       1.0  0.76906  0.32070  0.32939  1.0000
  C   C95       1.0  0.76194  0.33229  0.25736  1.0000
  C   C96       1.0  0.76748  0.35945  0.26144  1.0000
  H   H63       1.0  0.75099  0.32046  0.20370  1.0000
  H   H64       1.0  0.76020  0.36634  0.21067  1.0000
  C   C97       1.0  0.58643  0.36528  0.29315  1.0000
  C   C98       1.0  0.56440  0.33819  0.29580  1.0000
  H   H65       1.0  0.58852  0.37696  0.23776  1.0000
  H   H66       1.0  0.55165  0.33075  0.24123  1.0000
  C   C99       1.0  0.63153  0.40099  0.35201  1.0000
  C   C100      1.0  0.68633  0.44572  0.34212  1.0000
  C   C101      1.0  0.67433  0.42790  0.26814  1.0000
  C   C102      1.0  0.64725  0.40609  0.27262  1.0000
  H   H67       1.0  0.68584  0.42944  0.21274  1.0000
  H   H68       1.0  0.64009  0.39251  0.22016  1.0000
  C   C103      1.0  0.64338  0.22085  0.26305  1.0000
  C   C104      1.0  0.67039  0.22574  0.26774  1.0000
  H   H69       1.0  0.63293  0.21385  0.20368  1.0000
  H   H70       1.0  0.67903  0.22286  0.21118  1.0000
  C   C105      1.0  0.60646  0.22768  0.32623  1.0000
  C   C106      1.0  0.56206  0.23837  0.32154  1.0000
  C   C107      1.0  0.58149  0.24733  0.25118  1.0000
  C   C108      1.0  0.60313  0.24178  0.25293  1.0000
  H   H71       1.0  0.58112  0.25959  0.20100  1.0000
  H   H72       1.0  0.61780  0.25033  0.20393  1.0000
  C   C109      1.0  0.15174  0.25031  0.34132  1.0000
  N   N1        1.0  0.16502  0.27814  0.34078  1.0000
  C   C110      1.0  0.15170  0.29263  0.34433  1.0000
  N   N2        1.0  0.12389  0.27813  0.34789  1.0000
  C   C111      1.0  0.10936  0.25030  0.34736  1.0000
  N   N3        1.0  0.12393  0.23705  0.34434  1.0000
  C   C112      1.0  0.75750  0.89846  0.34112  1.0000
  N   N4        1.0  0.72967  0.88392  0.34055  1.0000
  C   C113      1.0  0.71508  0.85609  0.34287  1.0000
  N   N5        1.0  0.72962  0.84280  0.34536  1.0000
  C   C114      1.0  0.75746  0.85605  0.34511  1.0000
  N   N6        1.0  0.77073  0.88387  0.34320  1.0000
  C   C115      1.0  0.10932  0.85611  0.34253  1.0000
  N   N7        1.0  0.12389  0.84285  0.34236  1.0000
  C   C116      1.0  0.15172  0.85613  0.34470  1.0000
  N   N8        1.0  0.16497  0.88395  0.34682  1.0000
  C   C117      1.0  0.15169  0.89850  0.34622  1.0000
  N   N9        1.0  0.12387  0.88393  0.34428  1.0000
  C   C118      1.0  0.86058  0.75281  0.34198  1.0000
  N   N10       1.0  0.84731  0.72498  0.34165  1.0000
  C   C119      1.0  0.86058  0.71042  0.34412  1.0000
  N   N11       1.0  0.88841  0.72499  0.34651  1.0000
  C   C120      1.0  0.90297  0.75282  0.34600  1.0000
  N   N12       1.0  0.88840  0.76607  0.34395  1.0000
  C   C121      1.0  0.25492  0.10481  0.34267  1.0000
  N   N13       1.0  0.28275  0.11937  0.34259  1.0000
  C   C122      1.0  0.29737  0.14721  0.34390  1.0000
  N   N14       1.0  0.28277  0.16045  0.34503  1.0000
  C   C123      1.0  0.25494  0.14720  0.34466  1.0000
  N   N15       1.0  0.24166  0.11937  0.34360  1.0000
  C   C124      1.0  0.90303  0.14718  0.34255  1.0000
  N   N16       1.0  0.88847  0.16044  0.34193  1.0000
  C   C125      1.0  0.86064  0.14717  0.34385  1.0000
  N   N17       1.0  0.84737  0.11934  0.34600  1.0000
  C   C126      1.0  0.86065  0.10479  0.34578  1.0000
  N   N18       1.0  0.88847  0.11935  0.34426  1.0000
  C   C127      1.0  0.29669  0.54129  0.33472  1.0000
  N   N19       1.0  0.28265  0.51350  0.33598  1.0000
  C   C128      1.0  0.25479  0.49900  0.34421  1.0000
  N   N20       1.0  0.24138  0.51345  0.35251  1.0000
  C   C129      1.0  0.25509  0.54124  0.35391  1.0000
  N   N21       1.0  0.28256  0.55461  0.34435  1.0000
  C   C130      1.0  0.46628  0.75216  0.33301  1.0000
  N   N22       1.0  0.49408  0.76607  0.33590  1.0000
  C   C131      1.0  0.50870  0.75274  0.33875  1.0000
  N   N23       1.0  0.49444  0.72478  0.34017  1.0000
  C   C132      1.0  0.46666  0.71053  0.33966  1.0000
  N   N24       1.0  0.45308  0.72453  0.33556  1.0000
  C   C133      1.0  0.25442  0.71047  0.34847  1.0000
  N   N25       1.0  0.24092  0.72474  0.34800  1.0000
  C   C134      1.0  0.25465  0.75270  0.34901  1.0000
  N   N26       1.0  0.28261  0.76602  0.35136  1.0000
  C   C135      1.0  0.29647  0.75208  0.35415  1.0000
  N   N27       1.0  0.28202  0.72446  0.35205  1.0000
  C   C136      1.0  0.71504  0.46189  0.34623  1.0000
  N   N28       1.0  0.72921  0.48968  0.34599  1.0000
  C   C137      1.0  0.75717  0.50402  0.34745  1.0000
  N   N29       1.0  0.77058  0.48948  0.35027  1.0000
  C   C138      1.0  0.75676  0.46169  0.35294  1.0000
  N   N30       1.0  0.72914  0.44841  0.35027  1.0000
  C   C139      1.0  0.54575  0.25061  0.33203  1.0000
  N   N31       1.0  0.51795  0.23686  0.33296  1.0000
  C   C140      1.0  0.50360  0.25024  0.34432  1.0000
  N   N32       1.0  0.51797  0.27798  0.35568  1.0000
  C   C141      1.0  0.54576  0.29200  0.35666  1.0000
  N   N33       1.0  0.55913  0.27799  0.34433  1.0000
  C   C142      1.0  0.75676  0.29201  0.33490  1.0000
  N   N34       1.0  0.77059  0.27804  0.33749  1.0000
  C   C143      1.0  0.75718  0.25009  0.34020  1.0000
  N   N35       1.0  0.72921  0.23646  0.34164  1.0000
  C   C144      1.0  0.71504  0.25007  0.34146  1.0000
  N   N36       1.0  0.72914  0.27767  0.33751  1.0000
  C   C145      1.0  0.16919  0.36571  0.38121  1.0000
  C   C146      1.0  0.15466  0.33690  0.38044  1.0000
  H   H73       1.0  0.16008  0.37545  0.41096  1.0000
  H   H74       1.0  0.13561  0.32701  0.40890  1.0000
  C   C147      1.0  0.21058  0.41047  0.34419  1.0000
  C   C148      1.0  0.24016  0.46970  0.34418  1.0000
  C   C149      1.0  0.21138  0.45452  0.33416  1.0000
  C   C150      1.0  0.19702  0.42571  0.33361  1.0000
  H   H75       1.0  0.20043  0.46431  0.32546  1.0000
  H   H76       1.0  0.17636  0.41595  0.32342  1.0000
  C   C151      1.0  0.64184  0.79922  0.36719  1.0000
  C   C152      1.0  0.67065  0.81354  0.36692  1.0000
  H   H77       1.0  0.63206  0.77928  0.38784  1.0000
  H   H78       1.0  0.68045  0.80328  0.38644  1.0000
  C   C153      1.0  0.59714  0.79717  0.34132  1.0000
  C   C154      1.0  0.53796  0.76746  0.33976  1.0000
  C   C155      1.0  0.55298  0.79546  0.36364  1.0000
  C   C156      1.0  0.58179  0.80986  0.36502  1.0000
  H   H79       1.0  0.54304  0.80567  0.38217  1.0000
  H   H80       1.0  0.59147  0.82982  0.38540  1.0000
  C   C157      1.0  0.20884  0.84006  0.36847  1.0000
  C   C158      1.0  0.19449  0.85452  0.36751  1.0000
  H   H81       1.0  0.22889  0.85038  0.38792  1.0000
  H   H82       1.0  0.20484  0.87472  0.38535  1.0000
  C   C159      1.0  0.21070  0.79716  0.34651  1.0000
  C   C160      1.0  0.24014  0.76744  0.34806  1.0000
  C   C161      1.0  0.21227  0.75483  0.37331  1.0000
  C   C162      1.0  0.19801  0.76938  0.37323  1.0000
  H   H83       1.0  0.20207  0.73490  0.39420  1.0000
  H   H84       1.0  0.17817  0.75938  0.39488  1.0000
  C   C163      1.0  0.84428  0.63722  0.36962  1.0000
  C   C164      1.0  0.85877  0.66603  0.36880  1.0000
  H   H85       1.0  0.85445  0.62747  0.39058  1.0000
  H   H86       1.0  0.87884  0.67587  0.38821  1.0000
  C   C165      1.0  0.80155  0.59247  0.34525  1.0000
  C   C166      1.0  0.77186  0.53329  0.34653  1.0000
  C   C167      1.0  0.75904  0.54852  0.36961  1.0000
  C   C168      1.0  0.77356  0.57733  0.36961  1.0000
  H   H87       1.0  0.73894  0.53877  0.38868  1.0000
  H   H88       1.0  0.76338  0.58716  0.38957  1.0000
  C   C169      1.0  0.37067  0.20517  0.34601  1.0000
  C   C170      1.0  0.34186  0.19079  0.34608  1.0000
  H   H89       1.0  0.38045  0.22606  0.34546  1.0000
  H   H90       1.0  0.33209  0.20192  0.34713  1.0000
  C   C171      1.0  0.41536  0.20615  0.34426  1.0000
  C   C172      1.0  0.47442  0.23566  0.34430  1.0000
  C   C173      1.0  0.45938  0.24533  0.39282  1.0000
  C   C174      1.0  0.43057  0.23076  0.39350  1.0000
  H   H91       1.0  0.46930  0.26282  0.43038  1.0000
  H   H92       1.0  0.42080  0.23824  0.43217  1.0000
  C   C175      1.0  0.80360  0.16334  0.36721  1.0000
  C   C176      1.0  0.81796  0.14890  0.36696  1.0000
  H   H93       1.0  0.78360  0.15310  0.38721  1.0000
  H   H94       1.0  0.80767  0.12878  0.38582  1.0000
  C   C177      1.0  0.80157  0.20605  0.34240  1.0000
  C   C178      1.0  0.77187  0.23552  0.34110  1.0000
  C   C179      1.0  0.79980  0.24843  0.36580  1.0000
  C   C180      1.0  0.81419  0.23400  0.36708  1.0000
  H   H95       1.0  0.80995  0.26851  0.38504  1.0000
  H   H96       1.0  0.83409  0.24423  0.38808  1.0000
  C   C181      1.0  0.24030  0.16181  0.34455  1.0000
  C   C182      1.0  0.25317  0.18985  0.36773  1.0000
  C   C183      1.0  0.23870  0.20420  0.36745  1.0000
  C   C184      1.0  0.21074  0.19140  0.34274  1.0000
  C   C185      1.0  0.16800  0.19341  0.36633  1.0000
  C   C186      1.0  0.15350  0.20771  0.36504  1.0000
  H   H97       1.0  0.15784  0.17352  0.38751  1.0000
  H   H98       1.0  0.13345  0.19749  0.38458  1.0000
  H   H99       1.0  0.27327  0.20015  0.38679  1.0000
  H   H100      1.0  0.24890  0.22421  0.38738  1.0000
  C   C187      1.0  0.84606  0.07553  0.34591  1.0000
  C   C188      1.0  0.81803  0.06035  0.36923  1.0000
  C   C189      1.0  0.80368  0.03154  0.36887  1.0000
  C   C190      1.0  0.81646  0.01637  0.34390  1.0000
  C   C191      1.0  0.81444  0.97158  0.36679  1.0000
  C   C192      1.0  0.80012  0.94278  0.36530  1.0000
  H   H101      1.0  0.83434  0.98128  0.38788  1.0000
  H   H102      1.0  0.81034  0.93291  0.38445  1.0000
  H   H103      1.0  0.80773  0.07014  0.38840  1.0000
  H   H104      1.0  0.78368  0.02172  0.38886  1.0000
  C   C193      1.0  0.93222  0.76749  0.34635  1.0000
  C   C194      1.0  0.94740  0.75466  0.36997  1.0000
  C   C195      1.0  0.97622  0.76914  0.36979  1.0000
  C   C196      1.0  0.99139  0.79708  0.34474  1.0000
  C   C197      1.0  0.03616  0.83987  0.36772  1.0000
  C   C198      1.0  0.06496  0.85437  0.36631  1.0000
  H   H105      1.0  0.02643  0.85007  0.38849  1.0000
  H   H106      1.0  0.07480  0.87448  0.38530  1.0000
  H   H107      1.0  0.93761  0.73458  0.38919  1.0000
  H   H108      1.0  0.98603  0.75897  0.39001  1.0000
  C   C199      1.0  0.77211  0.84144  0.34554  1.0000
  C   C200      1.0  0.75924  0.81342  0.36908  1.0000
  C   C201      1.0  0.77369  0.79906  0.36895  1.0000
  C   C202      1.0  0.80163  0.81180  0.34402  1.0000
  C   C203      1.0  0.84439  0.80977  0.36710  1.0000
  C   C204      1.0  0.85887  0.79544  0.36577  1.0000
  H   H109      1.0  0.85460  0.82968  0.38800  1.0000
  H   H110      1.0  0.87896  0.80568  0.38485  1.0000
  H   H111      1.0  0.73915  0.80315  0.38821  1.0000
  H   H112      1.0  0.76349  0.77907  0.38909  1.0000
  C   C205      1.0  0.16629  0.92775  0.34646  1.0000
  C   C206      1.0  0.19430  0.94291  0.37011  1.0000
  C   C207      1.0  0.20867  0.97172  0.36991  1.0000
  C   C208      1.0  0.19593  0.98691  0.34480  1.0000
  C   C209      1.0  0.19796  0.03169  0.36793  1.0000
  C   C210      1.0  0.21229  0.06049  0.36663  1.0000
  H   H113      1.0  0.17803  0.02198  0.38865  1.0000
  H   H114      1.0  0.20205  0.07036  0.38560  1.0000
  H   H115      1.0  0.20456  0.93310  0.38941  1.0000
  H   H116      1.0  0.22864  0.98152  0.39018  1.0000
  C   C211      1.0  0.08010  0.23561  0.34818  1.0000
  C   C212      1.0  0.06494  0.24842  0.37232  1.0000
  C   C213      1.0  0.03613  0.23397  0.37207  1.0000
  C   C214      1.0  0.02094  0.20608  0.34643  1.0000
  C   C215      1.0  0.97613  0.16330  0.36854  1.0000
  C   C216      1.0  0.94733  0.14883  0.36676  1.0000
  H   H117      1.0  0.98581  0.15304  0.38929  1.0000
  H   H118      1.0  0.93744  0.12869  0.38538  1.0000
  H   H119      1.0  0.07475  0.26848  0.39184  1.0000
  H   H120      1.0  0.02632  0.24412  0.39253  1.0000
  C   C217      1.0  0.24288  0.55759  0.36456  1.0000
  C   C218      1.0  0.25196  0.57699  0.43507  1.0000
  C   C219      1.0  0.24631  0.59856  0.43424  1.0000
  C   C220      1.0  0.23196  0.60187  0.36167  1.0000
  C   C221      1.0  0.22565  0.63889  0.42695  1.0000
  C   C222      1.0  0.23058  0.66592  0.42288  1.0000
  H   H121      1.0  0.21917  0.62855  0.48669  1.0000
  H   H122      1.0  0.22831  0.67467  0.48022  1.0000
  H   H123      1.0  0.26442  0.57668  0.48468  1.0000
  H   H124      1.0  0.25508  0.61325  0.48305  1.0000
  C   C223      1.0  0.45063  0.68182  0.34401  1.0000
  C   C224      1.0  0.43338  0.66979  0.41925  1.0000
  C   C225      1.0  0.41157  0.64269  0.41563  1.0000
  C   C226      1.0  0.40587  0.62698  0.33591  1.0000
  C   C227      1.0  0.37024  0.58197  0.39614  1.0000
  C   C228      1.0  0.34308  0.56003  0.39461  1.0000
  H   H125      1.0  0.38212  0.58408  0.45100  1.0000
  H   H126      1.0  0.33582  0.54729  0.44925  1.0000
  H   H127      1.0  0.43534  0.68127  0.47515  1.0000
  H   H128      1.0  0.39838  0.63552  0.46913  1.0000
  C   C229      1.0  0.32517  0.76429  0.35914  1.0000
  C   C230      1.0  0.33684  0.75711  0.43080  1.0000
  C   C231      1.0  0.36401  0.76269  0.42634  1.0000
  C   C232      1.0  0.38023  0.77498  0.34897  1.0000
  C   C233      1.0  0.42498  0.78321  0.40774  1.0000
  C   C234      1.0  0.44702  0.77819  0.40273  1.0000
  H   H129      1.0  0.42251  0.79163  0.46552  1.0000
  H   H130      1.0  0.45943  0.78236  0.45775  1.0000
  H   H131      1.0  0.32506  0.74609  0.48443  1.0000
  H   H132      1.0  0.37092  0.75529  0.47667  1.0000
  C   C235      1.0  0.76908  0.44531  0.35847  1.0000
  C   C236      1.0  0.76176  0.42648  0.43028  1.0000
  C   C237      1.0  0.76733  0.40487  0.42634  1.0000
  C   C238      1.0  0.77979  0.40094  0.34945  1.0000
  C   C239      1.0  0.78772  0.36434  0.40932  1.0000
  C   C240      1.0  0.78257  0.33723  0.40475  1.0000
  H   H133      1.0  0.79591  0.37518  0.46734  1.0000
  H   H134      1.0  0.78656  0.32898  0.46015  1.0000
  H   H135      1.0  0.75065  0.42725  0.48360  1.0000
  H   H136      1.0  0.75983  0.39060  0.47677  1.0000
  C   C241      1.0  0.56209  0.32056  0.36696  1.0000
  C   C242      1.0  0.58158  0.33106  0.43716  1.0000
  C   C243      1.0  0.60320  0.35826  0.43538  1.0000
  C   C244      1.0  0.60650  0.37566  0.36198  1.0000
  C   C245      1.0  0.64342  0.41944  0.42493  1.0000
  C   C246      1.0  0.67041  0.44160  0.42007  1.0000
  H   H137      1.0  0.63300  0.41598  0.48436  1.0000
  H   H138      1.0  0.67908  0.45309  0.47665  1.0000
  H   H139      1.0  0.58129  0.31843  0.48722  1.0000
  H   H140      1.0  0.61794  0.36436  0.48408  1.0000
  C   C247      1.0  0.68633  0.23752  0.34565  1.0000
  C   C248      1.0  0.67435  0.24335  0.41968  1.0000
  C   C249      1.0  0.64726  0.23803  0.41537  1.0000
  C   C250      1.0  0.63150  0.22738  0.33606  1.0000
  C   C251      1.0  0.58643  0.21799  0.39519  1.0000
  C   C252      1.0  0.56444  0.22313  0.39280  1.0000
  H   H141      1.0  0.58857  0.20845  0.45062  1.0000
  H   H142      1.0  0.55171  0.21781  0.44742  1.0000
  H   H143      1.0  0.68586  0.25329  0.47511  1.0000
  H   H144      1.0  0.64011  0.24444  0.46789  1.0000
