data_image0
_chemical_formula_structural       CHCHC2HNC2HCHCHC3HC2H4NC3NCNC2NC6H6N2C6H6N2C6H6N2C6H6N2C6H6N2C2HCHC3H2CHC3H2CHC3H2CHC3H2CHC3H2CHC3H2CHC3H2CHC3H2CHC6H4NC12H5CNC2NHN2C12H5CNC2NHN2C12H5CNC2NHN2C12H5CNC2NHN2C12H5CNC2NHN2CHC3H2CHC3H2CHC3H2CHC3H2CHC3H2CHC3H2CHC3H2CHC3H2CH
_chemical_formula_sum              "C198 H126 N36"
_cell_length_a       76.9813
_cell_length_b       76.9812
_cell_length_c       14.9275
_cell_angle_alpha    90
_cell_angle_beta     90
_cell_angle_gamma    120

_space_group_name_H-M_alt    "P 1"
_space_group_IT_number       1

loop_
  _space_group_symop_operation_xyz
  'x, y, z'

loop_
  _atom_site_type_symbol
  _atom_site_label
  _atom_site_symmetry_multiplicity
  _atom_site_fract_x
  _atom_site_fract_y
  _atom_site_fract_z
  _atom_site_occupancy
  C   C1        1.0  0.09017  0.56010  0.36340  1.0000
  H   H1        1.0  0.08286  0.56801  0.37147  1.0000
  C   C2        1.0  0.01781  0.50116  0.29954  1.0000
  H   H2        1.0  0.02774  0.49969  0.25912  1.0000
  C   C3        1.0  0.09011  0.52902  0.33805  1.0000
  C   C4        1.0  0.07921  0.53906  0.35122  1.0000
  H   H3        1.0  0.08268  0.51382  0.32819  1.0000
  N   N1        1.0  0.05920  0.52804  0.34841  1.0000
  C   C5        1.0  0.02470  0.51699  0.36256  1.0000
  C   C6        1.0  0.01011  0.51831  0.41535  1.0000
  H   H4        1.0  0.01437  0.52949  0.46189  1.0000
  C   C7        1.0  0.04498  0.53128  0.37226  1.0000
  H   H5        1.0  0.04856  0.54433  0.40068  1.0000
  C   C8        1.0  0.11132  0.57066  0.36270  1.0000
  H   H6        1.0  0.11853  0.58588  0.37116  1.0000
  C   C9        1.0  0.12241  0.56067  0.34992  1.0000
  C   C10       1.0  0.11125  0.53957  0.33791  1.0000
  C   C11       1.0  0.14391  0.57145  0.34656  1.0000
  H   H7        1.0  0.11838  0.53155  0.32746  1.0000
  C   C12       1.0  0.18699  0.62399  0.34186  1.0000
  C   C13       1.0  0.17914  0.63656  0.36552  1.0000
  H   H8        1.0  0.16435  0.63045  0.38237  1.0000
  H   H9        1.0  0.18556  0.66629  0.38807  1.0000
  H   H10       1.0  0.19016  0.52231  0.39432  1.0000
  H   H11       1.0  0.16781  0.53563  0.39700  1.0000
  N   N2        1.0  0.15462  0.59198  0.34770  1.0000
  C   C14       1.0  0.18665  0.56206  0.32306  1.0000
  C   C15       1.0  0.18110  0.54333  0.36314  1.0000
  C   C16       1.0  0.17480  0.57143  0.33158  1.0000
  N   N3        1.0  0.18433  0.59170  0.33321  1.0000
  C   C17       1.0  0.17501  0.60258  0.34118  1.0000
  N   N4        1.0  0.15446  0.56156  0.33889  1.0000
  C   C18       1.0  0.19159  0.65764  0.36920  1.0000
  C   C19       1.0  0.21214  0.66680  0.34707  1.0000
  N   N5        1.0  0.22429  0.68658  0.35460  1.0000
  C   C20       1.0  0.38205  0.56415  0.34187  1.0000
  C   C21       1.0  0.44595  0.53124  0.36342  1.0000
  C   C22       1.0  0.43540  0.54184  0.36270  1.0000
  C   C23       1.0  0.36948  0.54373  0.36550  1.0000
  C   C24       1.0  0.34841  0.53510  0.36917  1.0000
  C   C25       1.0  0.33923  0.54647  0.34703  1.0000
  H   H12       1.0  0.43804  0.51602  0.37144  1.0000
  H   H13       1.0  0.42018  0.53382  0.37114  1.0000
  H   H14       1.0  0.37559  0.53504  0.38236  1.0000
  H   H15       1.0  0.33976  0.52042  0.38803  1.0000
  H   H16       1.0  0.48367  0.66902  0.39466  1.0000
  H   H17       1.0  0.47038  0.63335  0.39715  1.0000
  N   N6        1.0  0.41406  0.56380  0.34770  1.0000
  N   N7        1.0  0.31945  0.53884  0.35453  1.0000
  C   C26       1.0  0.44190  0.81910  0.34193  1.0000
  C   C27       1.0  0.47482  0.91591  0.36344  1.0000
  C   C28       1.0  0.46423  0.89476  0.36272  1.0000
  C   C29       1.0  0.46232  0.82695  0.36548  1.0000
  C   C30       1.0  0.47096  0.81452  0.36917  1.0000
  C   C31       1.0  0.45958  0.79396  0.34711  1.0000
  H   H18       1.0  0.49004  0.92322  0.37150  1.0000
  H   H19       1.0  0.47224  0.88755  0.37120  1.0000
  H   H20       1.0  0.47101  0.84176  0.38229  1.0000
  H   H21       1.0  0.48564  0.82055  0.38796  1.0000
  H   H22       1.0  0.33705  0.81588  0.39448  1.0000
  H   H23       1.0  0.37271  0.83824  0.39709  1.0000
  N   N8        1.0  0.44226  0.85147  0.34773  1.0000
  N   N9        1.0  0.46722  0.78182  0.35459  1.0000
  C   C32       1.0  0.82062  0.38060  0.33647  1.0000
  C   C33       1.0  0.91737  0.44488  0.34666  1.0000
  C   C34       1.0  0.89622  0.43414  0.34517  1.0000
  C   C35       1.0  0.82796  0.36804  0.36705  1.0000
  C   C36       1.0  0.81538  0.34699  0.37087  1.0000
  C   C37       1.0  0.79526  0.33783  0.34161  1.0000
  H   H24       1.0  0.92486  0.43710  0.34089  1.0000
  H   H25       1.0  0.88920  0.41892  0.33690  1.0000
  H   H26       1.0  0.84236  0.37416  0.39020  1.0000
  H   H27       1.0  0.82094  0.33836  0.39578  1.0000
  H   H28       1.0  0.81694  0.48197  0.39900  1.0000
  H   H29       1.0  0.83927  0.46863  0.40131  1.0000
  N   N10       1.0  0.85283  0.41262  0.34642  1.0000
  N   N11       1.0  0.78289  0.31813  0.35088  1.0000
  C   C38       1.0  0.62544  0.44118  0.33643  1.0000
  C   C39       1.0  0.56118  0.47366  0.34676  1.0000
  C   C40       1.0  0.57192  0.46326  0.34523  1.0000
  C   C41       1.0  0.63800  0.46106  0.36714  1.0000
  C   C42       1.0  0.65905  0.46951  0.37098  1.0000
  C   C43       1.0  0.66820  0.45856  0.34159  1.0000
  H   H30       1.0  0.56896  0.48894  0.34096  1.0000
  H   H31       1.0  0.58714  0.47146  0.33694  1.0000
  H   H32       1.0  0.63189  0.46933  0.39042  1.0000
  H   H33       1.0  0.66768  0.48369  0.39604  1.0000
  H   H34       1.0  0.52402  0.33613  0.39878  1.0000
  H   H35       1.0  0.53740  0.37182  0.40130  1.0000
  N   N12       1.0  0.59343  0.44138  0.34644  1.0000
  N   N13       1.0  0.68790  0.46587  0.35092  1.0000
  C   C44       1.0  0.56484  0.18545  0.33627  1.0000
  C   C45       1.0  0.53240  0.08872  0.34674  1.0000
  C   C46       1.0  0.54280  0.10986  0.34520  1.0000
  C   C47       1.0  0.54497  0.17813  0.36712  1.0000
  C   C48       1.0  0.53651  0.19072  0.37093  1.0000
  C   C49       1.0  0.54744  0.21081  0.34134  1.0000
  H   H36       1.0  0.51713  0.08122  0.34096  1.0000
  H   H37       1.0  0.53460  0.11688  0.33696  1.0000
  H   H38       1.0  0.53672  0.16376  0.39055  1.0000
  H   H39       1.0  0.52235  0.18518  0.39611  1.0000
  H   H40       1.0  0.66992  0.18912  0.39892  1.0000
  H   H41       1.0  0.63423  0.16679  0.40121  1.0000
  N   N14       1.0  0.56466  0.15325  0.34636  1.0000
  N   N15       1.0  0.54014  0.22321  0.35073  1.0000
  C   C50       1.0  0.99720  0.48718  0.29020  1.0000
  C   C51       1.0  0.98260  0.48848  0.34307  1.0000
  H   H42       1.0  0.99294  0.47601  0.24363  1.0000
  C   C52       1.0  0.96231  0.47420  0.33334  1.0000
  H   H43       1.0  0.95873  0.46134  0.30297  1.0000
  C   C53       1.0  0.51889  0.51121  0.29032  1.0000
  C   C54       1.0  0.50491  0.51784  0.29962  1.0000
  C   C55       1.0  0.51759  0.49531  0.34317  1.0000
  H   H44       1.0  0.50638  0.52924  0.25921  1.0000
  H   H45       1.0  0.53008  0.51814  0.24377  1.0000
  C   C56       1.0  0.53187  0.48931  0.33350  1.0000
  H   H46       1.0  0.54473  0.49859  0.30313  1.0000
  C   C57       1.0  0.49487  0.00889  0.29028  1.0000
  C   C58       1.0  0.48824  0.98828  0.29960  1.0000
  C   C59       1.0  0.51077  0.02348  0.34311  1.0000
  H   H47       1.0  0.47683  0.97835  0.25921  1.0000
  H   H48       1.0  0.48794  0.01314  0.24375  1.0000
  C   C60       1.0  0.51678  0.04377  0.33343  1.0000
  H   H49       1.0  0.50749  0.04735  0.30311  1.0000
  C   C61       1.0  0.28760  0.53397  0.31276  1.0000
  C   C62       1.0  0.27524  0.53308  0.24056  1.0000
  C   C63       1.0  0.25598  0.53031  0.25552  1.0000
  H   H50       1.0  0.28048  0.53532  0.17608  1.0000
  H   H51       1.0  0.24786  0.53052  0.20158  1.0000
  C   C64       1.0  0.30764  0.53990  0.29629  1.0000
  H   H52       1.0  0.31354  0.54679  0.23833  1.0000
  C   C65       1.0  0.47209  0.75484  0.31281  1.0000
  C   C66       1.0  0.47287  0.74330  0.24064  1.0000
  C   C67       1.0  0.47561  0.72679  0.25565  1.0000
  H   H53       1.0  0.47052  0.74622  0.17621  1.0000
  H   H54       1.0  0.47528  0.71839  0.20177  1.0000
  C   C68       1.0  0.46615  0.76894  0.29635  1.0000
  H   H55       1.0  0.45926  0.76795  0.23841  1.0000
  C   C69       1.0  0.25127  0.71844  0.31289  1.0000
  C   C70       1.0  0.26276  0.73079  0.24068  1.0000
  C   C71       1.0  0.27924  0.75007  0.25561  1.0000
  H   H56       1.0  0.25978  0.72553  0.17621  1.0000
  H   H57       1.0  0.28759  0.75816  0.20168  1.0000
  C   C72       1.0  0.23719  0.69839  0.29645  1.0000
  H   H58       1.0  0.23818  0.69250  0.23848  1.0000
  C   C73       1.0  0.72000  0.47114  0.31105  1.0000
  C   C74       1.0  0.73262  0.47207  0.23989  1.0000
  C   C75       1.0  0.75176  0.47465  0.25642  1.0000
  H   H59       1.0  0.72768  0.47005  0.17494  1.0000
  H   H60       1.0  0.76006  0.47448  0.20314  1.0000
  C   C76       1.0  0.70011  0.46554  0.29270  1.0000
  H   H61       1.0  0.69463  0.45958  0.23279  1.0000
  C   C77       1.0  0.53488  0.25005  0.31093  1.0000
  C   C78       1.0  0.53380  0.26164  0.23976  1.0000
  C   C79       1.0  0.53124  0.27822  0.25633  1.0000
  H   H62       1.0  0.53570  0.25866  0.17477  1.0000
  H   H63       1.0  0.53128  0.28661  0.20300  1.0000
  C   C80       1.0  0.54044  0.23573  0.29250  1.0000
  H   H64       1.0  0.54640  0.23623  0.23256  1.0000
  C   C81       1.0  0.75605  0.28604  0.31102  1.0000
  C   C82       1.0  0.74437  0.27341  0.23987  1.0000
  C   C83       1.0  0.72779  0.25429  0.25645  1.0000
  H   H65       1.0  0.74727  0.27835  0.17493  1.0000
  H   H66       1.0  0.71931  0.24600  0.20318  1.0000
  C   C84       1.0  0.77036  0.30593  0.29262  1.0000
  H   H67       1.0  0.76983  0.31141  0.23279  1.0000
  C   C85       1.0  0.22007  0.65438  0.32400  1.0000
  C   C86       1.0  0.20774  0.63347  0.32098  1.0000
  C   C87       1.0  0.20543  0.57225  0.27863  1.0000
  C   C88       1.0  0.21840  0.56439  0.27657  1.0000
  C   C89       1.0  0.21322  0.54619  0.31993  1.0000
  C   C90       1.0  0.19430  0.53557  0.36241  1.0000
  H   H68       1.0  0.21438  0.62528  0.30373  1.0000
  H   H69       1.0  0.23504  0.66048  0.31045  1.0000
  H   H70       1.0  0.21007  0.58576  0.24789  1.0000
  H   H71       1.0  0.23201  0.57246  0.24537  1.0000
  N   N16       1.0  0.22713  0.54083  0.31859  1.0000
  C   C91       1.0  0.44538  0.56291  0.34995  1.0000
  C   C92       1.0  0.44396  0.62575  0.32312  1.0000
  C   C93       1.0  0.46648  0.57286  0.33795  1.0000
  C   C94       1.0  0.47703  0.56227  0.33807  1.0000
  C   C95       1.0  0.46699  0.54133  0.35121  1.0000
  C   C96       1.0  0.35165  0.56683  0.32397  1.0000
  C   C97       1.0  0.37256  0.57542  0.32097  1.0000
  C   C98       1.0  0.43377  0.63433  0.27867  1.0000
  C   C99       1.0  0.44161  0.65516  0.27669  1.0000
  C   C100      1.0  0.45979  0.66818  0.32017  1.0000
  C   C101      1.0  0.47043  0.65990  0.36261  1.0000
  C   C102      1.0  0.46269  0.63894  0.36327  1.0000
  H   H72       1.0  0.49223  0.57005  0.32823  1.0000
  H   H73       1.0  0.38075  0.59024  0.30372  1.0000
  H   H74       1.0  0.34555  0.57569  0.31040  1.0000
  H   H75       1.0  0.42026  0.62546  0.24789  1.0000
  H   H76       1.0  0.43352  0.66070  0.24555  1.0000
  C   C103      1.0  0.43461  0.60453  0.33160  1.0000
  N   N17       1.0  0.41434  0.59379  0.33323  1.0000
  C   C104      1.0  0.40346  0.57358  0.34118  1.0000
  C   C105      1.0  0.43459  0.57362  0.34658  1.0000
  N   N18       1.0  0.44448  0.59407  0.33892  1.0000
  H   H77       1.0  0.47450  0.58801  0.32751  1.0000
  N   N19       1.0  0.46511  0.68744  0.31904  1.0000
  N   N20       1.0  0.47803  0.53235  0.34843  1.0000
  C   C106      1.0  0.44315  0.88367  0.34993  1.0000
  C   C107      1.0  0.38031  0.81942  0.32298  1.0000
  C   C108      1.0  0.43321  0.89483  0.33789  1.0000
  C   C109      1.0  0.44380  0.91597  0.33801  1.0000
  C   C110      1.0  0.46474  0.92687  0.35118  1.0000
  C   C111      1.0  0.43922  0.78602  0.32416  1.0000
  C   C112      1.0  0.43063  0.79834  0.32111  1.0000
  C   C113      1.0  0.37173  0.80066  0.27851  1.0000
  C   C114      1.0  0.35090  0.78767  0.27647  1.0000
  C   C115      1.0  0.33788  0.79283  0.31997  1.0000
  C   C116      1.0  0.34616  0.81176  0.36244  1.0000
  C   C117      1.0  0.36712  0.82497  0.36309  1.0000
  H   H78       1.0  0.43603  0.92340  0.32814  1.0000
  H   H79       1.0  0.41581  0.79170  0.30391  1.0000
  H   H80       1.0  0.43036  0.77105  0.31060  1.0000
  H   H81       1.0  0.38060  0.79602  0.24775  1.0000
  H   H82       1.0  0.34536  0.77406  0.24529  1.0000
  C   C118      1.0  0.40153  0.83128  0.33154  1.0000
  N   N21       1.0  0.41226  0.82175  0.33321  1.0000
  C   C119      1.0  0.43247  0.83108  0.34120  1.0000
  C   C120      1.0  0.43244  0.86217  0.34656  1.0000
  N   N22       1.0  0.41199  0.85162  0.33886  1.0000
  H   H83       1.0  0.41806  0.88770  0.32742  1.0000
  N   N23       1.0  0.31861  0.77891  0.31871  1.0000
  N   N24       1.0  0.47372  0.94688  0.34841  1.0000
  C   C121      1.0  0.88489  0.44399  0.35333  1.0000
  C   C122      1.0  0.82054  0.44238  0.32603  1.0000
  C   C123      1.0  0.89579  0.46512  0.36436  1.0000
  C   C124      1.0  0.91692  0.47586  0.36662  1.0000
  C   C125      1.0  0.92807  0.46598  0.35661  1.0000
  C   C126      1.0  0.78790  0.35025  0.31060  1.0000
  C   C127      1.0  0.80035  0.37115  0.30762  1.0000
  C   C128      1.0  0.80184  0.43232  0.28098  1.0000
  C   C129      1.0  0.78888  0.44019  0.27910  1.0000
  C   C130      1.0  0.79400  0.45828  0.32331  1.0000
  C   C131      1.0  0.81284  0.46879  0.36650  1.0000
  C   C132      1.0  0.82603  0.46102  0.36702  1.0000
  H   H84       1.0  0.92417  0.49111  0.37463  1.0000
  H   H85       1.0  0.79414  0.37938  0.28498  1.0000
  H   H86       1.0  0.77321  0.34418  0.29179  1.0000
  H   H87       1.0  0.79725  0.41891  0.24937  1.0000
  H   H88       1.0  0.77533  0.43222  0.24727  1.0000
  C   C133      1.0  0.83247  0.43306  0.33353  1.0000
  N   N25       1.0  0.82305  0.41279  0.33199  1.0000
  C   C134      1.0  0.83248  0.40198  0.33820  1.0000
  C   C135      1.0  0.86341  0.43314  0.34851  1.0000
  N   N26       1.0  0.85278  0.44298  0.34244  1.0000
  H   H89       1.0  0.88845  0.47305  0.37110  1.0000
  N   N27       1.0  0.78014  0.46371  0.32159  1.0000
  N   N28       1.0  0.94806  0.47719  0.35945  1.0000
  C   C136      1.0  0.56206  0.44208  0.35338  1.0000
  C   C137      1.0  0.56364  0.37933  0.32594  1.0000
  C   C138      1.0  0.54093  0.43185  0.36444  1.0000
  C   C139      1.0  0.53020  0.44225  0.36671  1.0000
  C   C140      1.0  0.54008  0.46327  0.35674  1.0000
  C   C141      1.0  0.65578  0.43880  0.31040  1.0000
  C   C142      1.0  0.63488  0.43036  0.30742  1.0000
  C   C143      1.0  0.57369  0.37068  0.28079  1.0000
  C   C144      1.0  0.56579  0.34984  0.27879  1.0000
  C   C145      1.0  0.54770  0.33688  0.32302  1.0000
  C   C146      1.0  0.53722  0.34522  0.36635  1.0000
  C   C147      1.0  0.54500  0.36619  0.36691  1.0000
  H   H90       1.0  0.51495  0.43425  0.37472  1.0000
  H   H91       1.0  0.62664  0.41593  0.28468  1.0000
  H   H92       1.0  0.66184  0.43017  0.29153  1.0000
  H   H93       1.0  0.58709  0.37950  0.24918  1.0000
  H   H94       1.0  0.57374  0.34426  0.24686  1.0000
  C   C148      1.0  0.57297  0.40057  0.33349  1.0000
  N   N29       1.0  0.59324  0.41141  0.33193  1.0000
  C   C149      1.0  0.60405  0.43166  0.33818  1.0000
  C   C150      1.0  0.57290  0.43144  0.34855  1.0000
  N   N30       1.0  0.56306  0.41097  0.34244  1.0000
  H   H95       1.0  0.53300  0.41658  0.37115  1.0000
  N   N31       1.0  0.54224  0.31758  0.32108  1.0000
  N   N32       1.0  0.52887  0.47206  0.35956  1.0000
  C   C151      1.0  0.56398  0.12119  0.35338  1.0000
  C   C152      1.0  0.62671  0.18555  0.32612  1.0000
  C   C153      1.0  0.57422  0.11030  0.36441  1.0000
  C   C154      1.0  0.56382  0.08916  0.36669  1.0000
  C   C155      1.0  0.54280  0.07802  0.35671  1.0000
  C   C156      1.0  0.56720  0.21815  0.31005  1.0000
  C   C157      1.0  0.57564  0.20569  0.30707  1.0000
  C   C158      1.0  0.63536  0.20426  0.28113  1.0000
  C   C159      1.0  0.65620  0.21722  0.27926  1.0000
  C   C160      1.0  0.66916  0.21209  0.32340  1.0000
  C   C161      1.0  0.66082  0.19324  0.36655  1.0000
  C   C162      1.0  0.63986  0.18005  0.36709  1.0000
  H   H96       1.0  0.57183  0.08192  0.37466  1.0000
  H   H97       1.0  0.59007  0.21188  0.28429  1.0000
  H   H98       1.0  0.57581  0.23283  0.29109  1.0000
  H   H99       1.0  0.62654  0.20886  0.24955  1.0000
  H   H100      1.0  0.66178  0.23077  0.24746  1.0000
  C   C163      1.0  0.60547  0.17362  0.33355  1.0000
  N   N33       1.0  0.59462  0.18304  0.33193  1.0000
  C   C164      1.0  0.57437  0.17359  0.33809  1.0000
  C   C165      1.0  0.57461  0.14267  0.34854  1.0000
  N   N34       1.0  0.59508  0.15331  0.34250  1.0000
  H   H101      1.0  0.58949  0.11764  0.37111  1.0000
  N   N35       1.0  0.68845  0.22594  0.32164  1.0000
  N   N36       1.0  0.53402  0.05802  0.35951  1.0000
  C   C166      1.0  0.98950  0.50433  0.40604  1.0000
  H   H102      1.0  0.97957  0.50581  0.44643  1.0000
  C   C167      1.0  0.48907  0.50889  0.36259  1.0000
  C   C168      1.0  0.48775  0.49298  0.41538  1.0000
  C   C169      1.0  0.50173  0.48636  0.40610  1.0000
  H   H103      1.0  0.47656  0.48605  0.46189  1.0000
  H   H104      1.0  0.50025  0.47495  0.44649  1.0000
  C   C170      1.0  0.47479  0.51489  0.37227  1.0000
  H   H105      1.0  0.46173  0.50541  0.40060  1.0000
  C   C171      1.0  0.49718  0.98138  0.36257  1.0000
  C   C172      1.0  0.51310  0.99597  0.41535  1.0000
  C   C173      1.0  0.51972  0.01658  0.40604  1.0000
  H   H106      1.0  0.52003  0.99171  0.46186  1.0000
  H   H107      1.0  0.53114  0.02651  0.44643  1.0000
  C   C174      1.0  0.49118  0.96110  0.37227  1.0000
  H   H108      1.0  0.50066  0.95752  0.40062  1.0000
  C   C175      1.0  0.26029  0.52840  0.41559  1.0000
  C   C176      1.0  0.27962  0.53123  0.40052  1.0000
  C   C177      1.0  0.24837  0.52838  0.34346  1.0000
  H   H109      1.0  0.28820  0.53232  0.45493  1.0000
  H   H110      1.0  0.25546  0.52747  0.48028  1.0000
  C   C178      1.0  0.23046  0.52810  0.35948  1.0000
  H   H111      1.0  0.22146  0.51976  0.40871  1.0000
  C   C179      1.0  0.47774  0.73315  0.41564  1.0000
  C   C180      1.0  0.47494  0.74967  0.40053  1.0000
  C   C181      1.0  0.47764  0.72118  0.34358  1.0000
  H   H112      1.0  0.47392  0.75721  0.45492  1.0000
  H   H113      1.0  0.47875  0.72930  0.48032  1.0000
  C   C182      1.0  0.47786  0.70352  0.35972  1.0000
  H   H114      1.0  0.48640  0.70294  0.40821  1.0000
  C   C183      1.0  0.27299  0.74577  0.41567  1.0000
  C   C184      1.0  0.25649  0.72644  0.40062  1.0000
  C   C185      1.0  0.28490  0.75769  0.34354  1.0000
  H   H115      1.0  0.24900  0.71786  0.45503  1.0000
  H   H116      1.0  0.27689  0.75061  0.48035  1.0000
  C   C186      1.0  0.30255  0.77558  0.35955  1.0000
  H   H117      1.0  0.30316  0.78461  0.40855  1.0000
  C   C187      1.0  0.74679  0.47620  0.41613  1.0000
  C   C188      1.0  0.72759  0.47359  0.39946  1.0000
  C   C189      1.0  0.75898  0.47632  0.34497  1.0000
  H   H118      1.0  0.71884  0.47251  0.45316  1.0000
  H   H119      1.0  0.75135  0.47698  0.48118  1.0000
  C   C190      1.0  0.77673  0.47639  0.36240  1.0000
  H   H120      1.0  0.78567  0.48476  0.41171  1.0000
  C   C191      1.0  0.52995  0.27185  0.41609  1.0000
  C   C192      1.0  0.53256  0.25527  0.39941  1.0000
  C   C193      1.0  0.52972  0.28386  0.34490  1.0000
  H   H121      1.0  0.53377  0.24767  0.45309  1.0000
  H   H122      1.0  0.52929  0.27570  0.48117  1.0000
  C   C194      1.0  0.52960  0.30152  0.36223  1.0000
  H   H123      1.0  0.52145  0.30217  0.41238  1.0000
  C   C195      1.0  0.73432  0.25926  0.41614  1.0000
  C   C196      1.0  0.75091  0.27845  0.39945  1.0000
  C   C197      1.0  0.72223  0.24709  0.34502  1.0000
  H   H124      1.0  0.75857  0.28721  0.45313  1.0000
  H   H125      1.0  0.73053  0.25472  0.48121  1.0000
  C   C198      1.0  0.70454  0.22934  0.36245  1.0000
  H   H126      1.0  0.70396  0.22040  0.41178  1.0000
