data_image0
_chemical_formula_structural       C16H16CNC2OHCHCNC2OHCHC3NC3NC5NC5NC36H26N5C2HCHNC2HCH
_chemical_formula_sum              "C82 H50 N12 O2"
_cell_length_a       34.1965
_cell_length_b       34.1946
_cell_length_c       14.6752
_cell_angle_alpha    90
_cell_angle_beta     90
_cell_angle_gamma    89.934

_space_group_name_H-M_alt    "P 1"
_space_group_IT_number       1

loop_
  _space_group_symop_operation_xyz
  'x, y, z'

loop_
  _atom_site_type_symbol
  _atom_site_label
  _atom_site_symmetry_multiplicity
  _atom_site_fract_x
  _atom_site_fract_y
  _atom_site_fract_z
  _atom_site_occupancy
  C   C1        1.0  0.18002  0.01219  0.29248  1.0000
  C   C2        1.0  0.22122  0.01253  0.29114  1.0000
  C   C3        1.0  0.34745  0.03657  0.30930  1.0000
  C   C4        1.0  0.30624  0.03612  0.31131  1.0000
  C   C5        1.0  0.01210  0.17677  0.29644  1.0000
  C   C6        1.0  0.01228  0.21798  0.29660  1.0000
  C   C7        1.0  0.99011  0.30315  0.32448  1.0000
  C   C8        1.0  0.99000  0.34436  0.32463  1.0000
  C   C9        1.0  0.80764  0.00892  0.29741  1.0000
  C   C10       1.0  0.84885  0.00827  0.29708  1.0000
  C   C11       1.0  0.72245  0.98736  0.32612  1.0000
  C   C12       1.0  0.68125  0.98751  0.32637  1.0000
  C   C13       1.0  0.01623  0.84574  0.29246  1.0000
  C   C14       1.0  0.01648  0.80454  0.29099  1.0000
  C   C15       1.0  0.03935  0.67798  0.30932  1.0000
  C   C16       1.0  0.03929  0.71920  0.31144  1.0000
  H   H1        1.0  0.05789  0.66390  0.26539  1.0000
  H   H2        1.0  0.05833  0.73370  0.26966  1.0000
  H   H3        1.0  0.01784  0.79087  0.22905  1.0000
  H   H4        1.0  0.01797  0.86071  0.23219  1.0000
  H   H5        1.0  0.86328  0.00490  0.23645  1.0000
  H   H6        1.0  0.79340  0.00648  0.23637  1.0000
  H   H7        1.0  0.00906  0.16226  0.23584  1.0000
  H   H8        1.0  0.00982  0.23215  0.23546  1.0000
  H   H9        1.0  0.96962  0.35870  0.28607  1.0000
  H   H10       1.0  0.96963  0.28902  0.28578  1.0000
  H   H11       1.0  0.29154  0.05481  0.26895  1.0000
  H   H12       1.0  0.36133  0.05500  0.26486  1.0000
  H   H13       1.0  0.23491  0.01378  0.22923  1.0000
  H   H14       1.0  0.16507  0.01383  0.23215  1.0000
  H   H15       1.0  0.73649  0.96665  0.28780  1.0000
  H   H16       1.0  0.66684  0.96707  0.28823  1.0000
  C   C17       1.0  0.01025  0.47105  0.34630  1.0000
  N   N1        1.0  0.01396  0.53888  0.30765  1.0000
  C   C18       1.0  0.01434  0.50092  0.27931  1.0000
  C   C19       1.0  0.01969  0.49483  0.18718  1.0000
  O   O1        1.0  0.99333  0.50662  0.13805  1.0000
  H   H17       1.0  0.03131  0.46966  0.16757  1.0000
  C   C20       1.0  0.00736  0.43138  0.32649  1.0000
  H   H18       1.0  0.99687  0.42350  0.26610  1.0000
  C   C21       1.0  0.55456  0.00844  0.34722  1.0000
  N   N2        1.0  0.48676  0.01055  0.30853  1.0000
  C   C22       1.0  0.52470  0.01069  0.27961  1.0000
  C   C23       1.0  0.53202  0.01259  0.18676  1.0000
  O   O2        1.0  0.50500  0.01249  0.13215  1.0000
  H   H19       1.0  0.55519  0.02778  0.16678  1.0000
  C   C24       1.0  0.59431  0.00509  0.32808  1.0000
  H   H20       1.0  0.60225  0.99386  0.26846  1.0000
  C   C25       1.0  0.08670  0.90894  0.37712  1.0000
  C   C26       1.0  0.11550  0.93724  0.37704  1.0000
  C   C27       1.0  0.09749  0.97394  0.37759  1.0000
  N   N3        1.0  0.05851  0.96644  0.37800  1.0000
  C   C28       1.0  0.05030  0.92760  0.37743  1.0000
  C   C29       1.0  0.01348  0.90809  0.37730  1.0000
  C   C30       1.0  0.97660  0.92734  0.37789  1.0000
  N   N4        1.0  0.96930  0.96625  0.37817  1.0000
  C   C31       1.0  0.93053  0.97425  0.37850  1.0000
  C   C32       1.0  0.91171  0.93801  0.37869  1.0000
  C   C33       1.0  0.94003  0.90917  0.37802  1.0000
  C   C34       1.0  0.91195  0.01149  0.37889  1.0000
  C   C35       1.0  0.93214  0.04794  0.37890  1.0000
  N   N5        1.0  0.97112  0.05543  0.37873  1.0000
  C   C36       1.0  0.97934  0.09427  0.37860  1.0000
  C   C37       1.0  0.94297  0.11294  0.37881  1.0000
  C   C38       1.0  0.91416  0.08467  0.37868  1.0000
  C   C39       1.0  0.01615  0.11378  0.37856  1.0000
  C   C40       1.0  0.05303  0.09452  0.37838  1.0000
  N   N6        1.0  0.06030  0.05561  0.37835  1.0000
  C   C41       1.0  0.09906  0.04762  0.37763  1.0000
  C   C42       1.0  0.11790  0.08385  0.37728  1.0000
  C   C43       1.0  0.08960  0.11268  0.37753  1.0000
  C   C44       1.0  0.11765  0.01040  0.37728  1.0000
  C   C45       1.0  0.15948  0.00975  0.37576  1.0000
  C   C46       1.0  0.24339  0.01043  0.37268  1.0000
  C   C47       1.0  0.22237  0.00778  0.45579  1.0000
  C   C48       1.0  0.18116  0.00753  0.45748  1.0000
  C   C49       1.0  0.28543  0.01112  0.37120  1.0000
  C   C50       1.0  0.30785  0.98661  0.42912  1.0000
  C   C51       1.0  0.34907  0.98716  0.42749  1.0000
  C   C52       1.0  0.36950  0.01249  0.36807  1.0000
  C   C53       1.0  0.01622  0.15563  0.37856  1.0000
  C   C54       1.0  0.01676  0.23952  0.37851  1.0000
  C   C55       1.0  0.02099  0.21794  0.46044  1.0000
  C   C56       1.0  0.02065  0.17673  0.46064  1.0000
  C   C57       1.0  0.01686  0.28154  0.37848  1.0000
  C   C58       1.0  0.01690  0.36564  0.37849  1.0000
  C   C59       1.0  0.04329  0.34435  0.43331  1.0000
  C   C60       1.0  0.04341  0.30312  0.43300  1.0000
  C   C61       1.0  0.87010  0.01226  0.37907  1.0000
  C   C62       1.0  0.84910  0.01713  0.46117  1.0000
  C   C63       1.0  0.80789  0.01798  0.46114  1.0000
  C   C64       1.0  0.78621  0.01379  0.37936  1.0000
  C   C65       1.0  0.74419  0.01418  0.37952  1.0000
  C   C66       1.0  0.66008  0.01474  0.37971  1.0000
  C   C67       1.0  0.68151  0.04121  0.43393  1.0000
  C   C68       1.0  0.72275  0.04105  0.43359  1.0000
  C   C69       1.0  0.01349  0.86625  0.37576  1.0000
  C   C70       1.0  0.01093  0.84451  0.45735  1.0000
  C   C71       1.0  0.01393  0.78232  0.37239  1.0000
  C   C72       1.0  0.01108  0.80330  0.45552  1.0000
  C   C73       1.0  0.01421  0.74027  0.37073  1.0000
  C   C74       1.0  0.98917  0.71812  0.42783  1.0000
  C   C75       1.0  0.98931  0.67690  0.42607  1.0000
  C   C76       1.0  0.01473  0.65619  0.36730  1.0000
  H   H21       1.0  0.97012  0.66213  0.46691  1.0000
  H   H22       1.0  0.96969  0.73185  0.47004  1.0000
  H   H23       1.0  0.00989  0.78871  0.51631  1.0000
  H   H24       1.0  0.00910  0.85858  0.51878  1.0000
  H   H25       1.0  0.09200  0.87952  0.37674  1.0000
  H   H26       1.0  0.14483  0.93142  0.37649  1.0000
  H   H27       1.0  0.03882  0.98648  0.37819  1.0000
  H   H28       1.0  0.99081  0.03537  0.37880  1.0000
  H   H29       1.0  0.93439  0.87983  0.37787  1.0000
  H   H30       1.0  0.88227  0.93290  0.37916  1.0000
  H   H31       1.0  0.86371  0.01995  0.52170  1.0000
  H   H32       1.0  0.79381  0.02083  0.52229  1.0000
  H   H33       1.0  0.88484  0.09053  0.37850  1.0000
  H   H34       1.0  0.93766  0.14237  0.37892  1.0000
  H   H35       1.0  0.14734  0.08896  0.37668  1.0000
  H   H36       1.0  0.09525  0.14202  0.37697  1.0000
  H   H37       1.0  0.02359  0.16219  0.52125  1.0000
  H   H38       1.0  0.02362  0.23208  0.52156  1.0000
  H   H39       1.0  0.06367  0.28896  0.47235  1.0000
  H   H40       1.0  0.06300  0.35880  0.47357  1.0000
  H   H41       1.0  0.16706  0.00606  0.51891  1.0000
  H   H42       1.0  0.23693  0.00698  0.51667  1.0000
  H   H43       1.0  0.36407  0.96836  0.46895  1.0000
  H   H44       1.0  0.29433  0.96723  0.47184  1.0000
  H   H45       1.0  0.73701  0.06134  0.47253  1.0000
  H   H46       1.0  0.66715  0.06117  0.47379  1.0000
  N   N7        1.0  0.40843  0.01328  0.36078  1.0000
  N   N8        1.0  0.01531  0.61723  0.36006  1.0000
  N   N9        1.0  0.62103  0.01598  0.38452  1.0000
  N   N10       1.0  0.01779  0.40468  0.38350  1.0000
  N   N11       1.0  0.00610  0.48281  0.43446  1.0000
  C   C77       1.0  0.00598  0.52077  0.46158  1.0000
  C   C78       1.0  0.00984  0.55062  0.39572  1.0000
  H   H47       1.0  0.00246  0.52706  0.52919  1.0000
  C   C79       1.0  0.00832  0.59003  0.41853  1.0000
  H   H48       1.0  0.00165  0.59738  0.48226  1.0000
  N   N12       1.0  0.54286  0.00673  0.43588  1.0000
  C   C80       1.0  0.50494  0.00719  0.46318  1.0000
  C   C81       1.0  0.47504  0.00889  0.39701  1.0000
  H   H49       1.0  0.49872  0.00549  0.53121  1.0000
  C   C82       1.0  0.43566  0.00745  0.41992  1.0000
  H   H50       1.0  0.42833  0.00176  0.48419  1.0000
