data_image0
_chemical_formula_structural       C3HNO2COC3HNO2COC3HNO2COC3HNO2COC3HNO2COC3HNO2COCNCNCNC18H12NHNHNHCNCNCNC18H12NHNHNHCNCNCNC18H12NHNHNHCNCNCNC18H12NHNHNHC3HNO2COC3HNO2COC3HNO2COC3HNO2COC3HNO2COC3HNO2CO
_chemical_formula_sum              "C132 H72 N36 O36"
_cell_length_a       55.902
_cell_length_b       55.9022
_cell_length_c       15.0543
_cell_angle_alpha    90
_cell_angle_beta     90
_cell_angle_gamma    120

_space_group_name_H-M_alt    "P 1"
_space_group_IT_number       1

loop_
  _space_group_symop_operation_xyz
  'x, y, z'

loop_
  _atom_site_type_symbol
  _atom_site_label
  _atom_site_symmetry_multiplicity
  _atom_site_fract_x
  _atom_site_fract_y
  _atom_site_fract_z
  _atom_site_occupancy
  C   C1        1.0  0.18149  0.08969  0.30931  1.0000
  C   C2        1.0  0.20149  0.10070  0.24065  1.0000
  C   C3        1.0  0.22976  0.11531  0.26369  1.0000
  H   H1        1.0  0.24401  0.12380  0.21364  1.0000
  N   N1        1.0  0.19312  0.09794  0.15057  1.0000
  O   O1        1.0  0.20100  0.12105  0.11501  1.0000
  O   O2        1.0  0.20228  0.08526  0.10593  1.0000
  C   C4        1.0  0.15282  0.07408  0.29094  1.0000
  O   O3        1.0  0.14441  0.05473  0.22606  1.0000
  C   C5        1.0  0.89456  0.09089  0.30928  1.0000
  C   C6        1.0  0.88355  0.09988  0.24062  1.0000
  C   C7        1.0  0.86894  0.11354  0.26367  1.0000
  H   H2        1.0  0.86045  0.11930  0.21362  1.0000
  N   N2        1.0  0.88632  0.09427  0.15054  1.0000
  O   O4        1.0  0.86322  0.07905  0.11496  1.0000
  O   O5        1.0  0.89900  0.11613  0.10592  1.0000
  C   C8        1.0  0.91018  0.07784  0.29088  1.0000
  O   O6        1.0  0.92954  0.08879  0.22604  1.0000
  C   C9        1.0  0.89338  0.80277  0.30934  1.0000
  C   C10       1.0  0.88439  0.78277  0.24068  1.0000
  C   C11       1.0  0.87074  0.75450  0.26372  1.0000
  H   H3        1.0  0.86497  0.74025  0.21366  1.0000
  N   N3        1.0  0.89000  0.79114  0.15059  1.0000
  O   O7        1.0  0.90522  0.78327  0.11499  1.0000
  O   O8        1.0  0.86814  0.78197  0.10599  1.0000
  C   C12       1.0  0.90643  0.83144  0.29096  1.0000
  O   O9        1.0  0.89548  0.83984  0.22610  1.0000
  C   C13       1.0  0.52994  0.12181  0.31997  1.0000
  C   C14       1.0  0.54937  0.12615  0.25219  1.0000
  C   C15       1.0  0.57405  0.12668  0.27546  1.0000
  H   H4        1.0  0.58876  0.13209  0.22713  1.0000
  N   N4        1.0  0.54723  0.13227  0.16225  1.0000
  O   O10       1.0  0.54607  0.15401  0.15331  1.0000
  O   O11       1.0  0.52690  0.11259  0.12441  1.0000
  C   C16       1.0  0.50889  0.12851  0.30736  1.0000
  O   O12       1.0  0.48879  0.11365  0.24751  1.0000
  C   C17       1.0  0.86253  0.40725  0.32026  1.0000
  C   C18       1.0  0.85811  0.42229  0.25249  1.0000
  C   C19       1.0  0.85755  0.44643  0.27566  1.0000
  H   H5        1.0  0.85207  0.45568  0.22735  1.0000
  N   N5        1.0  0.85186  0.41395  0.16266  1.0000
  O   O13       1.0  0.83013  0.39102  0.15407  1.0000
  O   O14       1.0  0.87150  0.41332  0.12448  1.0000
  C   C20       1.0  0.85589  0.37950  0.30789  1.0000
  O   O15       1.0  0.87068  0.37436  0.24749  1.0000
  C   C21       1.0  0.57705  0.45425  0.32004  1.0000
  C   C22       1.0  0.56189  0.43484  0.25227  1.0000
  C   C23       1.0  0.53769  0.41021  0.27554  1.0000
  H   H6        1.0  0.52839  0.39547  0.22729  1.0000
  N   N6        1.0  0.57015  0.43689  0.16236  1.0000
  O   O16       1.0  0.59301  0.43795  0.15354  1.0000
  O   O17       1.0  0.57089  0.45724  0.12433  1.0000
  C   C24       1.0  0.60480  0.47528  0.30723  1.0000
  O   O18       1.0  0.61002  0.49533  0.24721  1.0000
  C   C25       1.0  0.97342  0.00638  0.32694  1.0000
  N   N7        1.0  0.00141  0.02198  0.32702  1.0000
  C   C26       1.0  0.01813  0.01085  0.32696  1.0000
  N   N8        1.0  0.00574  0.98286  0.32703  1.0000
  C   C27       1.0  0.97789  0.96614  0.32695  1.0000
  N   N9        1.0  0.96229  0.97853  0.32700  1.0000
  C   C28       1.0  0.04737  0.02776  0.32801  1.0000
  C   C29       1.0  0.06026  0.05697  0.32683  1.0000
  C   C30       1.0  0.08917  0.07360  0.32938  1.0000
  C   C31       1.0  0.10612  0.06155  0.33132  1.0000
  C   C32       1.0  0.09340  0.03246  0.33401  1.0000
  C   C33       1.0  0.06453  0.01586  0.33190  1.0000
  C   C34       1.0  0.95650  0.01870  0.32796  1.0000
  C   C35       1.0  0.96841  0.04777  0.33185  1.0000
  C   C36       1.0  0.95180  0.06004  0.33391  1.0000
  C   C37       1.0  0.92272  0.04367  0.33122  1.0000
  C   C38       1.0  0.91067  0.01467  0.32930  1.0000
  C   C39       1.0  0.92729  0.00238  0.32677  1.0000
  C   C40       1.0  0.96557  0.93691  0.32799  1.0000
  C   C41       1.0  0.93649  0.91974  0.33187  1.0000
  C   C42       1.0  0.92422  0.89087  0.33393  1.0000
  C   C43       1.0  0.94058  0.87814  0.33126  1.0000
  C   C44       1.0  0.96959  0.89509  0.32941  1.0000
  C   C45       1.0  0.98188  0.92401  0.32683  1.0000
  H   H7        1.0  0.96114  0.08105  0.33965  1.0000
  H   H8        1.0  0.98937  0.06049  0.33450  1.0000
  H   H9        1.0  0.88964  0.00231  0.32878  1.0000
  H   H10       1.0  0.91766  0.98129  0.32470  1.0000
  H   H11       1.0  0.92377  0.92798  0.33444  1.0000
  H   H12       1.0  0.90321  0.87921  0.33964  1.0000
  H   H13       1.0  0.00297  0.93547  0.32481  1.0000
  H   H14       1.0  0.98194  0.88642  0.32892  1.0000
  H   H15       1.0  0.05629  0.99490  0.33451  1.0000
  H   H16       1.0  0.10507  0.02312  0.33969  1.0000
  H   H17       1.0  0.09785  0.09463  0.32886  1.0000
  H   H18       1.0  0.04880  0.06660  0.32476  1.0000
  N   N10       1.0  0.13412  0.07794  0.33735  1.0000
  H   H19       1.0  0.14105  0.09429  0.37507  1.0000
  N   N11       1.0  0.92897  0.85015  0.33741  1.0000
  H   H20       1.0  0.93842  0.84323  0.37506  1.0000
  N   N12       1.0  0.90632  0.05527  0.33725  1.0000
  H   H21       1.0  0.88998  0.04585  0.37501  1.0000
  C   C46       1.0  0.44174  0.24300  0.31577  1.0000
  N   N13       1.0  0.45754  0.23074  0.31480  1.0000
  C   C47       1.0  0.44647  0.20281  0.31418  1.0000
  N   N14       1.0  0.41850  0.18717  0.31544  1.0000
  C   C48       1.0  0.40166  0.19814  0.31658  1.0000
  N   N15       1.0  0.41392  0.22609  0.31690  1.0000
  C   C49       1.0  0.46308  0.19007  0.31551  1.0000
  C   C50       1.0  0.49227  0.20605  0.31400  1.0000
  C   C51       1.0  0.50859  0.19346  0.31985  1.0000
  C   C52       1.0  0.49642  0.16444  0.32615  1.0000
  C   C53       1.0  0.46730  0.14839  0.32699  1.0000
  C   C54       1.0  0.45097  0.16096  0.32150  1.0000
  C   C55       1.0  0.45343  0.27223  0.31851  1.0000
  C   C56       1.0  0.48230  0.28995  0.32681  1.0000
  C   C57       1.0  0.49382  0.31873  0.33183  1.0000
  C   C58       1.0  0.47689  0.33086  0.32921  1.0000
  C   C59       1.0  0.44821  0.31347  0.31772  1.0000
  C   C60       1.0  0.43664  0.28462  0.31374  1.0000
  C   C61       1.0  0.37246  0.18108  0.31949  1.0000
  C   C62       1.0  0.35510  0.19279  0.31934  1.0000
  C   C63       1.0  0.32626  0.17602  0.32239  1.0000
  C   C64       1.0  0.31378  0.14696  0.32655  1.0000
  C   C65       1.0  0.33091  0.13511  0.32479  1.0000
  C   C66       1.0  0.35979  0.15190  0.32226  1.0000
  H   H22       1.0  0.51483  0.33088  0.33595  1.0000
  H   H23       1.0  0.49540  0.28215  0.32954  1.0000
  H   H24       1.0  0.43553  0.32173  0.31373  1.0000
  H   H25       1.0  0.41568  0.27280  0.30669  1.0000
  H   H26       1.0  0.36316  0.21371  0.31585  1.0000
  H   H27       1.0  0.31440  0.18520  0.31895  1.0000
  H   H28       1.0  0.37139  0.14240  0.32188  1.0000
  H   H29       1.0  0.32239  0.11410  0.32607  1.0000
  H   H30       1.0  0.42999  0.14844  0.32447  1.0000
  H   H31       1.0  0.45769  0.12748  0.33589  1.0000
  H   H32       1.0  0.52963  0.20575  0.32017  1.0000
  H   H33       1.0  0.50209  0.22713  0.31032  1.0000
  N   N16       1.0  0.51304  0.15319  0.33884  1.0000
  H   H34       1.0  0.53030  0.16478  0.37085  1.0000
  N   N17       1.0  0.28576  0.13034  0.32398  1.0000
  H   H35       1.0  0.27856  0.11390  0.28656  1.0000
  N   N18       1.0  0.48819  0.35895  0.32968  1.0000
  H   H36       1.0  0.48259  0.36691  0.28198  1.0000
  C   C67       1.0  0.74129  0.19788  0.31573  1.0000
  N   N19       1.0  0.75356  0.22594  0.31478  1.0000
  C   C68       1.0  0.78149  0.24280  0.31416  1.0000
  N   N20       1.0  0.79712  0.23045  0.31540  1.0000
  C   C69       1.0  0.78615  0.20265  0.31652  1.0000
  N   N21       1.0  0.75819  0.18696  0.31686  1.0000
  C   C70       1.0  0.79424  0.27215  0.31551  1.0000
  C   C71       1.0  0.77827  0.28537  0.31423  1.0000
  C   C72       1.0  0.79087  0.31427  0.32018  1.0000
  C   C73       1.0  0.81990  0.33112  0.32621  1.0000
  C   C74       1.0  0.83594  0.31804  0.32686  1.0000
  C   C75       1.0  0.82335  0.28913  0.32125  1.0000
  C   C76       1.0  0.71206  0.18035  0.31850  1.0000
  C   C77       1.0  0.69437  0.19153  0.32706  1.0000
  C   C78       1.0  0.66558  0.17428  0.33205  1.0000
  C   C79       1.0  0.65342  0.14522  0.32912  1.0000
  C   C80       1.0  0.67080  0.13392  0.31742  1.0000
  C   C81       1.0  0.69965  0.15118  0.31349  1.0000
  C   C82       1.0  0.80320  0.19050  0.31942  1.0000
  C   C83       1.0  0.79148  0.16143  0.31931  1.0000
  C   C84       1.0  0.80824  0.14934  0.32237  1.0000
  C   C85       1.0  0.83730  0.16591  0.32657  1.0000
  C   C86       1.0  0.84916  0.19489  0.32467  1.0000
  C   C87       1.0  0.83238  0.20700  0.32216  1.0000
  H   H37       1.0  0.65345  0.18316  0.33635  1.0000
  H   H38       1.0  0.70217  0.21242  0.32998  1.0000
  H   H39       1.0  0.66251  0.11297  0.31322  1.0000
  H   H40       1.0  0.71145  0.14203  0.30623  1.0000
  H   H41       1.0  0.77055  0.14857  0.31591  1.0000
  H   H42       1.0  0.79905  0.12830  0.31905  1.0000
  H   H43       1.0  0.84188  0.22809  0.32170  1.0000
  H   H44       1.0  0.87017  0.20738  0.32595  1.0000
  H   H45       1.0  0.83587  0.28067  0.32400  1.0000
  H   H46       1.0  0.85686  0.32933  0.33546  1.0000
  H   H47       1.0  0.77858  0.32303  0.32072  1.0000
  H   H48       1.0  0.75718  0.27411  0.31083  1.0000
  N   N22       1.0  0.83117  0.35899  0.33907  1.0000
  H   H49       1.0  0.81959  0.36466  0.37117  1.0000
  N   N23       1.0  0.85391  0.15450  0.32397  1.0000
  H   H50       1.0  0.87035  0.16374  0.28654  1.0000
  N   N24       1.0  0.62534  0.12846  0.32953  1.0000
  H   H51       1.0  0.61736  0.11494  0.28172  1.0000
  C   C88       1.0  0.78645  0.54253  0.31564  1.0000
  N   N25       1.0  0.75839  0.52673  0.31471  1.0000
  C   C89       1.0  0.74153  0.53779  0.31413  1.0000
  N   N26       1.0  0.75385  0.56576  0.31539  1.0000
  C   C90       1.0  0.78166  0.58260  0.31649  1.0000
  N   N27       1.0  0.79736  0.57034  0.31679  1.0000
  C   C91       1.0  0.71218  0.52117  0.31547  1.0000
  C   C92       1.0  0.69897  0.49198  0.31417  1.0000
  C   C93       1.0  0.67007  0.47566  0.32008  1.0000
  C   C94       1.0  0.65321  0.48782  0.32610  1.0000
  C   C95       1.0  0.66626  0.51694  0.32682  1.0000
  C   C96       1.0  0.69517  0.53327  0.32131  1.0000
  C   C97       1.0  0.80399  0.53083  0.31839  1.0000
  C   C98       1.0  0.79282  0.50196  0.32684  1.0000
  C   C99       1.0  0.81008  0.49043  0.33189  1.0000
  C   C100      1.0  0.83914  0.50735  0.32916  1.0000
  C   C101      1.0  0.85043  0.53603  0.31747  1.0000
  C   C102      1.0  0.83316  0.54761  0.31351  1.0000
  C   C103      1.0  0.79380  0.61180  0.31943  1.0000
  C   C104      1.0  0.82287  0.62916  0.31929  1.0000
  C   C105      1.0  0.83495  0.65800  0.32243  1.0000
  C   C106      1.0  0.81837  0.67048  0.32654  1.0000
  C   C107      1.0  0.78939  0.65336  0.32473  1.0000
  C   C108      1.0  0.77729  0.62447  0.32220  1.0000
  H   H52       1.0  0.80121  0.46943  0.33615  1.0000
  H   H53       1.0  0.77192  0.48886  0.32966  1.0000
  H   H54       1.0  0.87138  0.54870  0.31341  1.0000
  H   H55       1.0  0.84230  0.56856  0.30632  1.0000
  H   H56       1.0  0.83573  0.62110  0.31586  1.0000
  H   H57       1.0  0.85599  0.66986  0.31899  1.0000
  H   H58       1.0  0.75620  0.61288  0.32178  1.0000
  H   H59       1.0  0.77690  0.66187  0.32602  1.0000
  H   H60       1.0  0.70362  0.55425  0.32404  1.0000
  H   H61       1.0  0.65496  0.52654  0.33547  1.0000
  H   H62       1.0  0.66133  0.45462  0.32060  1.0000
  H   H63       1.0  0.71024  0.48216  0.31074  1.0000
  N   N28       1.0  0.62534  0.47119  0.33890  1.0000
  H   H64       1.0  0.61969  0.45397  0.37112  1.0000
  N   N29       1.0  0.82977  0.69850  0.32401  1.0000
  H   H65       1.0  0.82053  0.70570  0.28657  1.0000
  N   N30       1.0  0.85592  0.49605  0.32964  1.0000
  H   H66       1.0  0.86934  0.50149  0.28155  1.0000
  C   C109      1.0  0.23863  0.11907  0.35317  1.0000
  C   C110      1.0  0.21863  0.10815  0.42186  1.0000
  C   C111      1.0  0.19035  0.09353  0.39882  1.0000
  H   H67       1.0  0.17609  0.08505  0.44885  1.0000
  N   N31       1.0  0.22705  0.11096  0.51190  1.0000
  O   O19       1.0  0.21915  0.08788  0.54763  1.0000
  O   O20       1.0  0.21792  0.12369  0.55643  1.0000
  C   C112      1.0  0.26734  0.13443  0.37121  1.0000
  O   O21       1.0  0.27608  0.15399  0.43546  1.0000
  C   C113      1.0  0.86518  0.11864  0.35316  1.0000
  C   C114      1.0  0.87610  0.10957  0.42183  1.0000
  C   C115      1.0  0.89071  0.09589  0.39879  1.0000
  H   H68       1.0  0.89921  0.09014  0.44880  1.0000
  N   N32       1.0  0.87330  0.11518  0.51188  1.0000
  O   O22       1.0  0.89639  0.13036  0.54759  1.0000
  O   O23       1.0  0.86057  0.09332  0.55643  1.0000
  C   C116      1.0  0.84982  0.13200  0.37120  1.0000
  O   O24       1.0  0.83027  0.12119  0.43547  1.0000
  C   C117      1.0  0.86564  0.74563  0.35320  1.0000
  C   C118      1.0  0.87470  0.76562  0.42187  1.0000
  C   C119      1.0  0.88838  0.79391  0.39884  1.0000
  H   H69       1.0  0.89413  0.80817  0.44887  1.0000
  N   N33       1.0  0.86909  0.75721  0.51192  1.0000
  O   O25       1.0  0.85391  0.76511  0.54763  1.0000
  O   O26       1.0  0.89095  0.76634  0.55647  1.0000
  C   C120      1.0  0.85228  0.71692  0.37122  1.0000
  O   O27       1.0  0.86308  0.70817  0.43551  1.0000
  C   C121      1.0  0.58024  0.12341  0.36439  1.0000
  C   C122      1.0  0.55997  0.11744  0.43088  1.0000
  C   C123      1.0  0.53511  0.11672  0.40772  1.0000
  H   H70       1.0  0.52140  0.11411  0.45714  1.0000
  N   N34       1.0  0.56503  0.11308  0.52007  1.0000
  O   O28       1.0  0.54743  0.08940  0.54676  1.0000
  O   O29       1.0  0.56490  0.13068  0.57176  1.0000
  C   C124      1.0  0.60796  0.13111  0.38695  1.0000
  O   O30       1.0  0.61887  0.14720  0.45988  1.0000
  C   C125      1.0  0.86089  0.45595  0.36452  1.0000
  C   C126      1.0  0.86694  0.44172  0.43102  1.0000
  C   C127      1.0  0.86770  0.41759  0.40791  1.0000
  H   H71       1.0  0.87032  0.40652  0.45741  1.0000
  N   N35       1.0  0.87133  0.45118  0.52017  1.0000
  O   O31       1.0  0.89503  0.45731  0.54674  1.0000
  O   O32       1.0  0.85377  0.43345  0.57197  1.0000
  C   C128      1.0  0.85322  0.47600  0.38703  1.0000
  O   O33       1.0  0.83717  0.47087  0.46004  1.0000
  C   C129      1.0  0.52826  0.40403  0.36451  1.0000
  C   C130      1.0  0.54260  0.42430  0.43095  1.0000
  C   C131      1.0  0.56677  0.44914  0.40775  1.0000
  H   H72       1.0  0.57791  0.46281  0.45719  1.0000
  N   N36       1.0  0.53320  0.41926  0.52016  1.0000
  O   O34       1.0  0.52717  0.43689  0.54688  1.0000
  O   O35       1.0  0.55093  0.41935  0.57180  1.0000
  C   C132      1.0  0.50819  0.37633  0.38715  1.0000
  O   O36       1.0  0.51359  0.36542  0.45964  1.0000
