data_image0
_chemical_formula_structural       C2HC5H3C2HC5H3C2HC5H3C2NC3NHCH3C2NC3NHCH3C2NC3NHCH3C2NC3NHCH3C2NC3NHCH3C2NC3NHCH3NC18H12NC18H12NC18H12NC18H12NC18H12NC18H12C2NC3NHCH3C2NC3NHCH3C2NC3NHCH3C2HC5H3C2HC5H3C2HC5H3C2HC5H3C2HC5H3C2HC5H3
_chemical_formula_sum              "C225 H144 N24"
_cell_length_a       68.1593
_cell_length_b       68.1594
_cell_length_c       14.9133
_cell_angle_alpha    90
_cell_angle_beta     90
_cell_angle_gamma    120

_space_group_name_H-M_alt    "P 1"
_space_group_IT_number       1

loop_
  _space_group_symop_operation_xyz
  'x, y, z'

loop_
  _atom_site_type_symbol
  _atom_site_label
  _atom_site_symmetry_multiplicity
  _atom_site_fract_x
  _atom_site_fract_y
  _atom_site_fract_z
  _atom_site_occupancy
  C   C1        1.0  0.02845  0.52448  0.27182  1.0000
  C   C2        1.0  0.05237  0.53645  0.27634  1.0000
  H   H1        1.0  0.06129  0.54823  0.22782  1.0000
  C   C3        1.0  0.94390  0.47205  0.33632  1.0000
  C   C4        1.0  0.95633  0.48765  0.26717  1.0000
  C   C5        1.0  0.98030  0.49997  0.26723  1.0000
  C   C6        1.0  0.99277  0.51575  0.19920  1.0000
  C   C7        1.0  0.01660  0.52794  0.20164  1.0000
  H   H2        1.0  0.98461  0.51859  0.14757  1.0000
  H   H3        1.0  0.02521  0.53932  0.15166  1.0000
  H   H4        1.0  0.94782  0.49052  0.21700  1.0000
  C   C8        1.0  0.48255  0.50516  0.27244  1.0000
  C   C9        1.0  0.47060  0.51714  0.27685  1.0000
  H   H5        1.0  0.45871  0.51416  0.22871  1.0000
  C   C10       1.0  0.53513  0.47320  0.33659  1.0000
  C   C11       1.0  0.51935  0.46984  0.26796  1.0000
  C   C12       1.0  0.50702  0.48148  0.26799  1.0000
  C   C13       1.0  0.49107  0.47799  0.20047  1.0000
  C   C14       1.0  0.47889  0.48964  0.20287  1.0000
  H   H6        1.0  0.48809  0.46685  0.14928  1.0000
  H   H7        1.0  0.46738  0.48674  0.15325  1.0000
  H   H8        1.0  0.51637  0.45834  0.21815  1.0000
  C   C15       1.0  0.50201  0.97881  0.27231  1.0000
  C   C16       1.0  0.49005  0.95489  0.27681  1.0000
  H   H9        1.0  0.49297  0.94597  0.22848  1.0000
  C   C17       1.0  0.53402  0.06336  0.33646  1.0000
  C   C18       1.0  0.53729  0.05093  0.26761  1.0000
  C   C19       1.0  0.52565  0.02696  0.26771  1.0000
  C   C20       1.0  0.52907  0.01449  0.19998  1.0000
  C   C21       1.0  0.51743  0.99067  0.20245  1.0000
  H   H10       1.0  0.54015  0.02266  0.14858  1.0000
  H   H11       1.0  0.52028  0.98205  0.15268  1.0000
  H   H12       1.0  0.54875  0.05945  0.21764  1.0000
  C   C22       1.0  0.22886  0.55676  0.34878  1.0000
  C   C23       1.0  0.24105  0.55986  0.26716  1.0000
  N   N1        1.0  0.26028  0.55848  0.26832  1.0000
  C   C24       1.0  0.26931  0.55455  0.34246  1.0000
  C   C25       1.0  0.28986  0.55421  0.33805  1.0000
  C   C26       1.0  0.32035  0.55638  0.25108  1.0000
  N   N2        1.0  0.30032  0.55599  0.25851  1.0000
  H   H13       1.0  0.32660  0.55743  0.18800  1.0000
  C   C27       1.0  0.23564  0.56661  0.18021  1.0000
  H   H14       1.0  0.23297  0.58099  0.18953  1.0000
  H   H15       1.0  0.22050  0.55249  0.15110  1.0000
  H   H16       1.0  0.24938  0.57164  0.13185  1.0000
  C   C28       1.0  0.45055  0.67355  0.34772  1.0000
  C   C29       1.0  0.44724  0.68255  0.26628  1.0000
  N   N3        1.0  0.44863  0.70317  0.26743  1.0000
  C   C30       1.0  0.45273  0.71621  0.34145  1.0000
  C   C31       1.0  0.45306  0.73709  0.33711  1.0000
  C   C32       1.0  0.45069  0.76533  0.25034  1.0000
  N   N4        1.0  0.45110  0.74569  0.25768  1.0000
  H   H17       1.0  0.44949  0.77047  0.18732  1.0000
  C   C33       1.0  0.44033  0.67031  0.17952  1.0000
  H   H18       1.0  0.42598  0.65327  0.18925  1.0000
  H   H19       1.0  0.45440  0.66926  0.15001  1.0000
  H   H20       1.0  0.43521  0.67898  0.13132  1.0000
  C   C34       1.0  0.33368  0.77851  0.34878  1.0000
  C   C35       1.0  0.32462  0.76629  0.26720  1.0000
  N   N5        1.0  0.30400  0.74705  0.26834  1.0000
  C   C36       1.0  0.29102  0.73804  0.34243  1.0000
  C   C37       1.0  0.27014  0.71748  0.33803  1.0000
  C   C38       1.0  0.24188  0.68694  0.25110  1.0000
  N   N6        1.0  0.26150  0.70698  0.25851  1.0000
  H   H21       1.0  0.23670  0.68066  0.18803  1.0000
  C   C39       1.0  0.33680  0.77171  0.18027  1.0000
  H   H22       1.0  0.35385  0.77439  0.18963  1.0000
  H   H23       1.0  0.33781  0.78684  0.15115  1.0000
  H   H24       1.0  0.32809  0.75796  0.13191  1.0000
  C   C40       1.0  0.78067  0.45033  0.34239  1.0000
  C   C41       1.0  0.76802  0.44639  0.26150  1.0000
  N   N7        1.0  0.74883  0.44785  0.26269  1.0000
  C   C42       1.0  0.74028  0.45261  0.33626  1.0000
  C   C43       1.0  0.71967  0.45285  0.33215  1.0000
  C   C44       1.0  0.68860  0.44955  0.24608  1.0000
  N   N8        1.0  0.70874  0.45018  0.25312  1.0000
  H   H25       1.0  0.68200  0.44782  0.18323  1.0000
  C   C45       1.0  0.77291  0.43865  0.17579  1.0000
  H   H26       1.0  0.77530  0.42417  0.18748  1.0000
  H   H27       1.0  0.78808  0.45231  0.14485  1.0000
  H   H28       1.0  0.75903  0.43341  0.12796  1.0000
  C   C46       1.0  0.55694  0.33179  0.34219  1.0000
  C   C47       1.0  0.56088  0.32308  0.26130  1.0000
  N   N9        1.0  0.55942  0.30243  0.26244  1.0000
  C   C48       1.0  0.55465  0.28911  0.33599  1.0000
  C   C49       1.0  0.55443  0.26827  0.33186  1.0000
  C   C50       1.0  0.55775  0.24051  0.24575  1.0000
  N   N10       1.0  0.55711  0.26002  0.25282  1.0000
  H   H29       1.0  0.55949  0.23566  0.18292  1.0000
  C   C51       1.0  0.56863  0.33573  0.17563  1.0000
  H   H30       1.0  0.58311  0.35259  0.18738  1.0000
  H   H31       1.0  0.55498  0.33725  0.14469  1.0000
  H   H32       1.0  0.57388  0.32709  0.12778  1.0000
  C   C52       1.0  0.67545  0.22659  0.34196  1.0000
  C   C53       1.0  0.68415  0.23924  0.26110  1.0000
  N   N11       1.0  0.70481  0.25844  0.26226  1.0000
  C   C54       1.0  0.71814  0.26698  0.33578  1.0000
  C   C55       1.0  0.73897  0.28759  0.33168  1.0000
  C   C56       1.0  0.76672  0.31869  0.24563  1.0000
  N   N12       1.0  0.74722  0.29854  0.25267  1.0000
  H   H33       1.0  0.77157  0.32530  0.18282  1.0000
  C   C57       1.0  0.67150  0.23437  0.17545  1.0000
  H   H34       1.0  0.65465  0.23200  0.18724  1.0000
  H   H35       1.0  0.66998  0.21920  0.14445  1.0000
  H   H36       1.0  0.68014  0.24826  0.12762  1.0000
  N   N13       1.0  0.16140  0.58220  0.34222  1.0000
  C   C58       1.0  0.17401  0.60602  0.32584  1.0000
  C   C59       1.0  0.13729  0.57001  0.34344  1.0000
  C   C60       1.0  0.17450  0.57141  0.35706  1.0000
  C   C61       1.0  0.19147  0.57979  0.42394  1.0000
  C   C62       1.0  0.20898  0.57454  0.42212  1.0000
  C   C63       1.0  0.20955  0.55983  0.35628  1.0000
  C   C64       1.0  0.19099  0.54941  0.29633  1.0000
  C   C65       1.0  0.17413  0.55559  0.29496  1.0000
  C   C66       1.0  0.17504  0.62149  0.39109  1.0000
  C   C67       1.0  0.19212  0.64444  0.38812  1.0000
  C   C68       1.0  0.20944  0.65274  0.32200  1.0000
  C   C69       1.0  0.20732  0.63727  0.25372  1.0000
  C   C70       1.0  0.18976  0.61451  0.25462  1.0000
  C   C71       1.0  0.12516  0.56943  0.42108  1.0000
  C   C72       1.0  0.10128  0.55755  0.42176  1.0000
  C   C73       1.0  0.08862  0.54511  0.34605  1.0000
  C   C74       1.0  0.10094  0.54593  0.26817  1.0000
  C   C75       1.0  0.12482  0.55834  0.26659  1.0000
  H   H37       1.0  0.19236  0.65474  0.43842  1.0000
  H   H38       1.0  0.16441  0.61587  0.44508  1.0000
  H   H39       1.0  0.19006  0.60356  0.20843  1.0000
  H   H40       1.0  0.21957  0.64180  0.20587  1.0000
  H   H41       1.0  0.19269  0.59186  0.46794  1.0000
  H   H42       1.0  0.22216  0.58282  0.46604  1.0000
  H   H43       1.0  0.13370  0.57781  0.47766  1.0000
  H   H44       1.0  0.09320  0.55840  0.47811  1.0000
  H   H45       1.0  0.09258  0.53736  0.21151  1.0000
  H   H46       1.0  0.13310  0.55879  0.20882  1.0000
  H   H47       1.0  0.16234  0.54942  0.24490  1.0000
  H   H48       1.0  0.19016  0.53802  0.24982  1.0000
  N   N14       1.0  0.42511  0.58065  0.34186  1.0000
  C   C76       1.0  0.40128  0.56944  0.32563  1.0000
  C   C77       1.0  0.43729  0.56873  0.34314  1.0000
  C   C78       1.0  0.43592  0.60455  0.35636  1.0000
  C   C79       1.0  0.42758  0.61319  0.42323  1.0000
  C   C80       1.0  0.43289  0.63597  0.42150  1.0000
  C   C81       1.0  0.44749  0.65118  0.35528  1.0000
  C   C82       1.0  0.45781  0.64300  0.29504  1.0000
  C   C83       1.0  0.45166  0.61996  0.29393  1.0000
  C   C84       1.0  0.38584  0.55507  0.39110  1.0000
  C   C85       1.0  0.36290  0.54923  0.38827  1.0000
  C   C86       1.0  0.35456  0.55816  0.32195  1.0000
  C   C87       1.0  0.37001  0.57146  0.25350  1.0000
  C   C88       1.0  0.39278  0.57666  0.25433  1.0000
  C   C89       1.0  0.43799  0.55733  0.42102  1.0000
  C   C90       1.0  0.44986  0.54531  0.42179  1.0000
  C   C91       1.0  0.46217  0.54495  0.34587  1.0000
  C   C92       1.0  0.46123  0.55631  0.26775  1.0000
  C   C93       1.0  0.44883  0.56779  0.26613  1.0000
  H   H49       1.0  0.35261  0.53919  0.43862  1.0000
  H   H50       1.0  0.39149  0.55010  0.44513  1.0000
  H   H51       1.0  0.40370  0.58786  0.20798  1.0000
  H   H52       1.0  0.36547  0.57914  0.20554  1.0000
  H   H53       1.0  0.41565  0.60238  0.46778  1.0000
  H   H54       1.0  0.42470  0.64091  0.46568  1.0000
  H   H55       1.0  0.42970  0.55759  0.47769  1.0000
  H   H56       1.0  0.44911  0.53650  0.47834  1.0000
  H   H57       1.0  0.46970  0.55640  0.21096  1.0000
  H   H58       1.0  0.44831  0.57553  0.20822  1.0000
  H   H59       1.0  0.45773  0.61429  0.24367  1.0000
  H   H60       1.0  0.46912  0.65352  0.24822  1.0000
  N   N15       1.0  0.42659  0.84588  0.34224  1.0000
  C   C94       1.0  0.43777  0.83324  0.32564  1.0000
  C   C95       1.0  0.43854  0.86999  0.34346  1.0000
  C   C96       1.0  0.40270  0.83281  0.35702  1.0000
  C   C97       1.0  0.39411  0.81581  0.42378  1.0000
  C   C98       1.0  0.37133  0.79834  0.42208  1.0000
  C   C99       1.0  0.35606  0.79781  0.35629  1.0000
  C   C100      1.0  0.36421  0.81636  0.29633  1.0000
  C   C101      1.0  0.38727  0.83323  0.29499  1.0000
  C   C102      1.0  0.45226  0.83224  0.39069  1.0000
  C   C103      1.0  0.45811  0.81514  0.38756  1.0000
  C   C104      1.0  0.44907  0.79783  0.32140  1.0000
  C   C105      1.0  0.43566  0.79994  0.25334  1.0000
  C   C106      1.0  0.43045  0.81750  0.25439  1.0000
  C   C107      1.0  0.45000  0.88209  0.42123  1.0000
  C   C108      1.0  0.46202  0.90598  0.42196  1.0000
  C   C109      1.0  0.46232  0.91865  0.34613  1.0000
  C   C110      1.0  0.45090  0.90634  0.26812  1.0000
  C   C111      1.0  0.43942  0.88246  0.26652  1.0000
  H   H61       1.0  0.46824  0.81493  0.43760  1.0000
  H   H62       1.0  0.45732  0.84289  0.44463  1.0000
  H   H63       1.0  0.41918  0.81721  0.20836  1.0000
  H   H64       1.0  0.42790  0.78769  0.20552  1.0000
  H   H65       1.0  0.40494  0.81464  0.46804  1.0000
  H   H66       1.0  0.36639  0.78519  0.46621  1.0000
  H   H67       1.0  0.44978  0.87354  0.47786  1.0000
  H   H68       1.0  0.47089  0.91405  0.47841  1.0000
  H   H69       1.0  0.45076  0.91471  0.21137  1.0000
  H   H70       1.0  0.43163  0.87419  0.20868  1.0000
  H   H71       1.0  0.39290  0.84500  0.24487  1.0000
  H   H72       1.0  0.35367  0.81721  0.24979  1.0000
  N   N16       1.0  0.84684  0.42340  0.33780  1.0000
  C   C112      1.0  0.83404  0.39964  0.32130  1.0000
  C   C113      1.0  0.87091  0.43535  0.33760  1.0000
  C   C114      1.0  0.83411  0.43453  0.35208  1.0000
  C   C115      1.0  0.81725  0.42662  0.41928  1.0000
  C   C116      1.0  0.80011  0.43239  0.41715  1.0000
  C   C117      1.0  0.79979  0.44698  0.35019  1.0000
  C   C118      1.0  0.81821  0.45680  0.28934  1.0000
  C   C119      1.0  0.83481  0.45024  0.28875  1.0000
  C   C120      1.0  0.83358  0.38425  0.38555  1.0000
  C   C121      1.0  0.81669  0.36121  0.38245  1.0000
  C   C122      1.0  0.79914  0.35279  0.31719  1.0000
  C   C123      1.0  0.80072  0.36833  0.25016  1.0000
  C   C124      1.0  0.81805  0.39116  0.25098  1.0000
  C   C125      1.0  0.88320  0.44478  0.41730  1.0000
  C   C126      1.0  0.90710  0.45666  0.41696  1.0000
  C   C127      1.0  0.91954  0.45968  0.33690  1.0000
  C   C128      1.0  0.90695  0.45012  0.25725  1.0000
  C   C129      1.0  0.88306  0.43811  0.25759  1.0000
  H   H73       1.0  0.81685  0.35089  0.43177  1.0000
  H   H74       1.0  0.84461  0.39005  0.43843  1.0000
  H   H75       1.0  0.81744  0.40212  0.20570  1.0000
  H   H76       1.0  0.78828  0.36376  0.20316  1.0000
  H   H77       1.0  0.81593  0.41469  0.46424  1.0000
  H   H78       1.0  0.78702  0.42458  0.46176  1.0000
  H   H79       1.0  0.87475  0.44304  0.47608  1.0000
  H   H80       1.0  0.91535  0.46357  0.47592  1.0000
  H   H81       1.0  0.91509  0.45149  0.19798  1.0000
  H   H82       1.0  0.87451  0.43140  0.19898  1.0000
  H   H83       1.0  0.84658  0.45590  0.23843  1.0000
  H   H84       1.0  0.81908  0.46796  0.24162  1.0000
  N   N17       1.0  0.58387  0.42490  0.33803  1.0000
  C   C130      1.0  0.60763  0.43588  0.32158  1.0000
  C   C131      1.0  0.57190  0.43700  0.33785  1.0000
  C   C132      1.0  0.57275  0.40104  0.35220  1.0000
  C   C133      1.0  0.58064  0.39206  0.41932  1.0000
  C   C134      1.0  0.57488  0.36916  0.41708  1.0000
  C   C135      1.0  0.56029  0.35425  0.35008  1.0000
  C   C136      1.0  0.55050  0.36288  0.28920  1.0000
  C   C137      1.0  0.55705  0.38604  0.28877  1.0000
  C   C138      1.0  0.62300  0.45080  0.38590  1.0000
  C   C139      1.0  0.64604  0.45693  0.38291  1.0000
  C   C140      1.0  0.65448  0.44784  0.31756  1.0000
  C   C141      1.0  0.63896  0.43391  0.25043  1.0000
  C   C142      1.0  0.61613  0.42840  0.25120  1.0000
  C   C143      1.0  0.56252  0.43990  0.41761  1.0000
  C   C144      1.0  0.55062  0.45189  0.41729  1.0000
  C   C145      1.0  0.54752  0.46123  0.33717  1.0000
  C   C146      1.0  0.55700  0.45814  0.25743  1.0000
  C   C147      1.0  0.56905  0.44631  0.25778  1.0000
  H   H85       1.0  0.65634  0.46737  0.43234  1.0000
  H   H86       1.0  0.61719  0.45596  0.43894  1.0000
  H   H87       1.0  0.60518  0.41685  0.20585  1.0000
  H   H88       1.0  0.64354  0.42606  0.20337  1.0000
  H   H89       1.0  0.59257  0.40265  0.46434  1.0000
  H   H90       1.0  0.58268  0.36385  0.46169  1.0000
  H   H91       1.0  0.56433  0.43325  0.47644  1.0000
  H   H92       1.0  0.54378  0.45331  0.47632  1.0000
  H   H93       1.0  0.55557  0.46486  0.19812  1.0000
  H   H94       1.0  0.57571  0.44442  0.19912  1.0000
  H   H95       1.0  0.55140  0.39217  0.23848  1.0000
  H   H96       1.0  0.53934  0.35261  0.24148  1.0000
  N   N18       1.0  0.58236  0.16041  0.33774  1.0000
  C   C148      1.0  0.57139  0.17320  0.32127  1.0000
  C   C149      1.0  0.57025  0.13634  0.33760  1.0000
  C   C150      1.0  0.60622  0.17314  0.35192  1.0000
  C   C151      1.0  0.61519  0.18999  0.41916  1.0000
  C   C152      1.0  0.63809  0.20714  0.41686  1.0000
  C   C153      1.0  0.65299  0.20747  0.34983  1.0000
  C   C154      1.0  0.64437  0.18907  0.28890  1.0000
  C   C155      1.0  0.62122  0.17243  0.28851  1.0000
  C   C156      1.0  0.55646  0.17365  0.38553  1.0000
  C   C157      1.0  0.55033  0.19055  0.38252  1.0000
  C   C158      1.0  0.55944  0.20809  0.31722  1.0000
  C   C159      1.0  0.57338  0.20651  0.25011  1.0000
  C   C160      1.0  0.57888  0.18917  0.25091  1.0000
  C   C161      1.0  0.56738  0.12406  0.41736  1.0000
  C   C162      1.0  0.55538  0.10017  0.41707  1.0000
  C   C163      1.0  0.54599  0.08772  0.33701  1.0000
  C   C164      1.0  0.54904  0.10029  0.25730  1.0000
  C   C165      1.0  0.56089  0.12417  0.25758  1.0000
  H   H97       1.0  0.53988  0.19042  0.43194  1.0000
  H   H98       1.0  0.55129  0.16267  0.43855  1.0000
  H   H99       1.0  0.59044  0.18978  0.20560  1.0000
  H   H100      1.0  0.58125  0.21895  0.20313  1.0000
  H   H101      1.0  0.60457  0.19132  0.46403  1.0000
  H   H102      1.0  0.64338  0.22024  0.46146  1.0000
  H   H103      1.0  0.57406  0.13252  0.47614  1.0000
  H   H104      1.0  0.55400  0.09192  0.47608  1.0000
  H   H105      1.0  0.54230  0.09213  0.19801  1.0000
  H   H106      1.0  0.56275  0.13271  0.19894  1.0000
  H   H107      1.0  0.61508  0.16068  0.23816  1.0000
  H   H108      1.0  0.65465  0.18817  0.24120  1.0000
  C   C166      1.0  0.06425  0.53277  0.34639  1.0000
  C   C167      1.0  0.05092  0.51616  0.41199  1.0000
  N   N19       1.0  0.02789  0.50508  0.40548  1.0000
  C   C168      1.0  0.01608  0.50848  0.33993  1.0000
  C   C169      1.0  0.99207  0.49635  0.33809  1.0000
  C   C170      1.0  0.95676  0.46939  0.40491  1.0000
  N   N20       1.0  0.97977  0.48122  0.40336  1.0000
  H   H109      1.0  0.94899  0.45819  0.45619  1.0000
  C   C171      1.0  0.06040  0.50880  0.48550  1.0000
  H   H110      1.0  0.07273  0.50455  0.45880  1.0000
  H   H111      1.0  0.04718  0.49382  0.51965  1.0000
  H   H112      1.0  0.06857  0.52217  0.53536  1.0000
  C   C172      1.0  0.47449  0.53290  0.34630  1.0000
  C   C173      1.0  0.49127  0.53637  0.41136  1.0000
  N   N21       1.0  0.50231  0.52438  0.40498  1.0000
  C   C174      1.0  0.49872  0.50897  0.34004  1.0000
  C   C175      1.0  0.51083  0.49708  0.33828  1.0000
  C   C176      1.0  0.53796  0.48889  0.40469  1.0000
  N   N22       1.0  0.52613  0.50008  0.40310  1.0000
  H   H113      1.0  0.54929  0.49246  0.45558  1.0000
  C   C177      1.0  0.49884  0.55344  0.48408  1.0000
  H   H114      1.0  0.50306  0.56993  0.45665  1.0000
  H   H115      1.0  0.51387  0.55525  0.51794  1.0000
  H   H116      1.0  0.48557  0.54842  0.53433  1.0000
  C   C178      1.0  0.47437  0.94301  0.34652  1.0000
  C   C179      1.0  0.47099  0.95634  0.41181  1.0000
  N   N23       1.0  0.48296  0.97937  0.40534  1.0000
  C   C180      1.0  0.49827  0.99118  0.34012  1.0000
  C   C181      1.0  0.51016  0.01519  0.33828  1.0000
  C   C182      1.0  0.51841  0.05050  0.40481  1.0000
  N   N24       1.0  0.50723  0.02749  0.40328  1.0000
  H   H117      1.0  0.51491  0.05828  0.45587  1.0000
  C   C183      1.0  0.45402  0.94685  0.48490  1.0000
  H   H118      1.0  0.43749  0.93455  0.45780  1.0000
  H   H119      1.0  0.45224  0.96007  0.51887  1.0000
  H   H120      1.0  0.45913  0.93864  0.53497  1.0000
  C   C184      1.0  0.25834  0.55199  0.42592  1.0000
  C   C185      1.0  0.23799  0.55270  0.42748  1.0000
  H   H121      1.0  0.22998  0.55073  0.48770  1.0000
  C   C186      1.0  0.33222  0.55556  0.32785  1.0000
  C   C187      1.0  0.32135  0.55344  0.41158  1.0000
  C   C188      1.0  0.30014  0.55236  0.41789  1.0000
  C   C189      1.0  0.28922  0.55001  0.50097  1.0000
  C   C190      1.0  0.26832  0.54946  0.50480  1.0000
  H   H122      1.0  0.29637  0.54865  0.55929  1.0000
  H   H123      1.0  0.26083  0.54790  0.56586  1.0000
  H   H124      1.0  0.32925  0.55347  0.46988  1.0000
  C   C191      1.0  0.45549  0.70788  0.42479  1.0000
  C   C192      1.0  0.45480  0.68683  0.42631  1.0000
  H   H125      1.0  0.45690  0.68084  0.48643  1.0000
  C   C193      1.0  0.45169  0.77809  0.32712  1.0000
  C   C194      1.0  0.45402  0.76943  0.41071  1.0000
  C   C195      1.0  0.45511  0.74930  0.41692  1.0000
  C   C196      1.0  0.45765  0.74082  0.49988  1.0000
  C   C197      1.0  0.45819  0.72047  0.50362  1.0000
  H   H126      1.0  0.45916  0.74939  0.55815  1.0000
  H   H127      1.0  0.45993  0.71461  0.56458  1.0000
  H   H128      1.0  0.45411  0.77735  0.46906  1.0000
  C   C198      1.0  0.29940  0.74904  0.42587  1.0000
  C   C199      1.0  0.32045  0.76940  0.42743  1.0000
  H   H129      1.0  0.32649  0.77743  0.48763  1.0000
  C   C200      1.0  0.22917  0.67510  0.32785  1.0000
  C   C201      1.0  0.23787  0.68601  0.41154  1.0000
  C   C202      1.0  0.25799  0.70723  0.41784  1.0000
  C   C203      1.0  0.26653  0.71818  0.50090  1.0000
  C   C204      1.0  0.28687  0.73908  0.50472  1.0000
  H   H130      1.0  0.25799  0.71106  0.55918  1.0000
  H   H131      1.0  0.29277  0.74661  0.56575  1.0000
  H   H132      1.0  0.22998  0.67812  0.46985  1.0000
  C   C205      1.0  0.75175  0.45607  0.41907  1.0000
  C   C206      1.0  0.77208  0.45532  0.42047  1.0000
  H   H133      1.0  0.78042  0.45782  0.48024  1.0000
  C   C207      1.0  0.67705  0.45096  0.32283  1.0000
  C   C208      1.0  0.68847  0.45412  0.40596  1.0000
  C   C209      1.0  0.70983  0.45548  0.41176  1.0000
  C   C210      1.0  0.72128  0.45878  0.49420  1.0000
  C   C211      1.0  0.74223  0.45944  0.49761  1.0000
  H   H134      1.0  0.71447  0.46073  0.55235  1.0000
  H   H135      1.0  0.75011  0.46168  0.55824  1.0000
  H   H136      1.0  0.68087  0.45460  0.46434  1.0000
  C   C212      1.0  0.55118  0.29711  0.41881  1.0000
  C   C213      1.0  0.55193  0.31819  0.42024  1.0000
  H   H137      1.0  0.54942  0.32401  0.48002  1.0000
  C   C214      1.0  0.55634  0.22756  0.32251  1.0000
  C   C215      1.0  0.55316  0.23580  0.40564  1.0000
  C   C216      1.0  0.55179  0.25579  0.41145  1.0000
  C   C217      1.0  0.54846  0.26392  0.49389  1.0000
  C   C218      1.0  0.54780  0.28421  0.49732  1.0000
  H   H138      1.0  0.54651  0.25515  0.55203  1.0000
  H   H139      1.0  0.54555  0.28984  0.55796  1.0000
  H   H140      1.0  0.55266  0.22771  0.46401  1.0000
  C   C219      1.0  0.71014  0.25549  0.41859  1.0000
  C   C220      1.0  0.68906  0.23516  0.42001  1.0000
  H   H141      1.0  0.68323  0.22683  0.47978  1.0000
  C   C221      1.0  0.77969  0.33022  0.32239  1.0000
  C   C222      1.0  0.77146  0.31877  0.40548  1.0000
  C   C223      1.0  0.75146  0.29742  0.41128  1.0000
  C   C224      1.0  0.74333  0.28595  0.49370  1.0000
  C   C225      1.0  0.72304  0.26500  0.49710  1.0000
  H   H142      1.0  0.75210  0.29276  0.55184  1.0000
  H   H143      1.0  0.71741  0.25712  0.55772  1.0000
  H   H144      1.0  0.77954  0.32637  0.46387  1.0000
