data_image0
_chemical_formula_structural       C4HC4HO2H2N2C4HC4HO2H2N2C4HC4HO2H2N2CNC4H2CH3CHCNC4H2CH3CHCNC4H2CH3CHCNC4H2CH3CHCNC4H2CH3CHCNC4H2CH3CHC2HC2HN2C2HC2HN2C2HC2HN2C4HCNHCH3CHC4HCNHCH3CHC4HCNHCH3CHC4HCNHCH3CHC4HCNHCH3CHC4HCNHCH3CH
_chemical_formula_sum              "C120 H90 O6 N24"
_cell_length_a       38.7797
_cell_length_b       38.7797
_cell_length_c       14.9709
_cell_angle_alpha    90
_cell_angle_beta     90
_cell_angle_gamma    120

_space_group_name_H-M_alt    "P 1"
_space_group_IT_number       1

loop_
  _space_group_symop_operation_xyz
  'x, y, z'

loop_
  _atom_site_type_symbol
  _atom_site_label
  _atom_site_symmetry_multiplicity
  _atom_site_fract_x
  _atom_site_fract_y
  _atom_site_fract_z
  _atom_site_occupancy
  C   C1        1.0  0.97994  0.48643  0.33269  1.0000
  C   C2        1.0  0.89636  0.43161  0.33257  1.0000
  C   C3        1.0  0.92296  0.41857  0.30808  1.0000
  C   C4        1.0  0.96444  0.44606  0.30519  1.0000
  H   H1        1.0  0.86626  0.41221  0.32950  1.0000
  C   C5        1.0  0.02212  0.51512  0.33282  1.0000
  C   C6        1.0  0.03765  0.55555  0.30573  1.0000
  C   C7        1.0  0.07912  0.58304  0.30889  1.0000
  C   C8        1.0  0.10570  0.56993  0.33306  1.0000
  H   H2        1.0  0.13579  0.58933  0.33030  1.0000
  O   O1        1.0  0.98861  0.43395  0.26709  1.0000
  O   O2        1.0  0.01350  0.56776  0.26786  1.0000
  H   H3        1.0  0.98946  0.41445  0.30773  1.0000
  H   H4        1.0  0.01269  0.58722  0.30870  1.0000
  N   N1        1.0  0.09428  0.62103  0.28637  1.0000
  N   N2        1.0  0.90775  0.38064  0.28499  1.0000
  C   C9        1.0  0.51571  0.49432  0.33205  1.0000
  C   C10       1.0  0.57065  0.46570  0.33314  1.0000
  C   C11       1.0  0.58366  0.50528  0.30823  1.0000
  C   C12       1.0  0.55610  0.51919  0.30473  1.0000
  H   H5        1.0  0.59006  0.45501  0.33037  1.0000
  C   C13       1.0  0.48692  0.50768  0.33142  1.0000
  C   C14       1.0  0.44649  0.48257  0.30456  1.0000
  C   C15       1.0  0.41885  0.49637  0.30754  1.0000
  C   C16       1.0  0.43179  0.53609  0.33116  1.0000
  H   H6        1.0  0.41224  0.54659  0.32838  1.0000
  O   O3        1.0  0.56821  0.55539  0.26621  1.0000
  O   O4        1.0  0.43440  0.44615  0.26721  1.0000
  H   H7        1.0  0.58765  0.57583  0.30680  1.0000
  H   H8        1.0  0.41497  0.42593  0.30819  1.0000
  N   N3        1.0  0.38085  0.47330  0.28546  1.0000
  N   N4        1.0  0.62160  0.52801  0.28522  1.0000
  C   C17       1.0  0.50812  0.02225  0.33187  1.0000
  C   C18       1.0  0.53662  0.10578  0.33235  1.0000
  C   C19       1.0  0.49698  0.07910  0.30795  1.0000
  C   C20       1.0  0.48313  0.03766  0.30471  1.0000
  H   H9        1.0  0.54721  0.13586  0.32956  1.0000
  C   C21       1.0  0.49471  0.98009  0.33188  1.0000
  C   C22       1.0  0.51963  0.96465  0.30447  1.0000
  C   C23       1.0  0.50572  0.92319  0.30751  1.0000
  C   C24       1.0  0.46608  0.89654  0.33189  1.0000
  H   H10       1.0  0.45543  0.86646  0.32907  1.0000
  O   O5        1.0  0.44682  0.01343  0.26677  1.0000
  O   O6        1.0  0.55595  0.98886  0.26651  1.0000
  H   H11       1.0  0.42648  0.01253  0.30753  1.0000
  H   H12       1.0  0.57627  0.98969  0.30722  1.0000
  N   N5        1.0  0.52862  0.90814  0.28481  1.0000
  N   N6        1.0  0.47403  0.09411  0.28544  1.0000
  C   C25       1.0  0.29690  0.45280  0.26345  1.0000
  N   N7        1.0  0.26663  0.46072  0.26429  1.0000
  C   C26       1.0  0.22460  0.48302  0.32436  1.0000
  C   C27       1.0  0.22355  0.50758  0.25492  1.0000
  C   C28       1.0  0.18995  0.51272  0.25013  1.0000
  C   C29       1.0  0.15840  0.49452  0.31220  1.0000
  H   H13       1.0  0.18856  0.53035  0.20087  1.0000
  H   H14       1.0  0.30256  0.44230  0.20590  1.0000
  C   C30       1.0  0.25682  0.52903  0.19039  1.0000
  H   H15       1.0  0.28478  0.54644  0.22647  1.0000
  H   H16       1.0  0.25264  0.54949  0.14770  1.0000
  H   H17       1.0  0.25923  0.50775  0.14701  1.0000
  C   C31       1.0  0.12610  0.50012  0.30421  1.0000
  H   H18       1.0  0.11325  0.49571  0.24432  1.0000
  C   C32       1.0  0.54863  0.84415  0.26291  1.0000
  N   N8        1.0  0.54101  0.80606  0.26434  1.0000
  C   C33       1.0  0.51993  0.74224  0.32605  1.0000
  C   C34       1.0  0.49536  0.71585  0.25762  1.0000
  C   C35       1.0  0.49118  0.67747  0.25389  1.0000
  C   C36       1.0  0.51039  0.66532  0.31605  1.0000
  H   H19       1.0  0.47367  0.65790  0.20529  1.0000
  H   H20       1.0  0.55883  0.86012  0.20503  1.0000
  C   C37       1.0  0.47309  0.72661  0.19302  1.0000
  H   H21       1.0  0.45531  0.73674  0.22901  1.0000
  H   H22       1.0  0.45288  0.70154  0.15103  1.0000
  H   H23       1.0  0.49387  0.75033  0.14898  1.0000
  C   C38       1.0  0.50635  0.62805  0.30908  1.0000
  H   H24       1.0  0.51561  0.62143  0.25295  1.0000
  C   C39       1.0  0.15772  0.70504  0.26367  1.0000
  N   N9        1.0  0.19589  0.73536  0.26442  1.0000
  C   C40       1.0  0.26021  0.77755  0.32442  1.0000
  C   C41       1.0  0.28585  0.77867  0.25496  1.0000
  C   C42       1.0  0.32455  0.81233  0.25014  1.0000
  C   C43       1.0  0.33784  0.84387  0.31222  1.0000
  H   H25       1.0  0.34358  0.81378  0.20084  1.0000
  H   H26       1.0  0.14154  0.69931  0.20612  1.0000
  C   C44       1.0  0.27408  0.74542  0.19041  1.0000
  H   H27       1.0  0.26358  0.71746  0.22647  1.0000
  H   H28       1.0  0.29873  0.74966  0.14770  1.0000
  H   H29       1.0  0.25036  0.74297  0.14705  1.0000
  C   C45       1.0  0.37568  0.87626  0.30415  1.0000
  H   H30       1.0  0.38392  0.88935  0.24448  1.0000
  C   C46       1.0  0.70586  0.54936  0.26279  1.0000
  N   N10       1.0  0.73611  0.54141  0.26413  1.0000
  C   C47       1.0  0.77799  0.51911  0.32505  1.0000
  C   C48       1.0  0.77943  0.49465  0.25586  1.0000
  C   C49       1.0  0.81324  0.48983  0.25165  1.0000
  C   C50       1.0  0.84460  0.50826  0.31408  1.0000
  H   H31       1.0  0.81494  0.47233  0.20252  1.0000
  H   H32       1.0  0.70046  0.56006  0.20521  1.0000
  C   C51       1.0  0.74636  0.47306  0.19095  1.0000
  H   H33       1.0  0.71834  0.45545  0.22672  1.0000
  H   H34       1.0  0.75084  0.45276  0.14838  1.0000
  H   H35       1.0  0.74385  0.49426  0.14749  1.0000
  C   C52       1.0  0.87726  0.50324  0.30655  1.0000
  H   H36       1.0  0.89118  0.50938  0.24772  1.0000
  C   C53       1.0  0.45313  0.15733  0.26332  1.0000
  N   N11       1.0  0.46109  0.19553  0.26429  1.0000
  C   C54       1.0  0.48353  0.25984  0.32453  1.0000
  C   C55       1.0  0.50815  0.28546  0.25516  1.0000
  C   C56       1.0  0.51338  0.32424  0.25048  1.0000
  C   C57       1.0  0.49521  0.33760  0.31260  1.0000
  H   H37       1.0  0.53105  0.34327  0.20127  1.0000
  H   H38       1.0  0.44261  0.14119  0.20573  1.0000
  C   C58       1.0  0.52956  0.27361  0.19059  1.0000
  H   H39       1.0  0.54691  0.26298  0.22664  1.0000
  H   H40       1.0  0.55006  0.29824  0.14796  1.0000
  H   H41       1.0  0.50825  0.24996  0.14716  1.0000
  C   C59       1.0  0.50088  0.37554  0.30470  1.0000
  H   H42       1.0  0.49641  0.38392  0.24480  1.0000
  C   C60       1.0  0.84501  0.29631  0.26262  1.0000
  N   N12       1.0  0.80682  0.26605  0.26408  1.0000
  C   C61       1.0  0.74270  0.22416  0.32523  1.0000
  C   C62       1.0  0.71673  0.22265  0.25611  1.0000
  C   C63       1.0  0.67814  0.18877  0.25200  1.0000
  C   C64       1.0  0.66532  0.15743  0.31447  1.0000
  H   H43       1.0  0.65888  0.18698  0.20290  1.0000
  H   H44       1.0  0.86108  0.30171  0.20499  1.0000
  C   C65       1.0  0.72810  0.25568  0.19117  1.0000
  H   H45       1.0  0.73848  0.28370  0.22690  1.0000
  H   H46       1.0  0.70328  0.25113  0.14866  1.0000
  H   H47       1.0  0.75181  0.25823  0.14764  1.0000
  C   C66       1.0  0.62773  0.12464  0.30696  1.0000
  H   H48       1.0  0.62026  0.11027  0.24868  1.0000
  C   C67       1.0  0.95204  0.49790  0.36051  1.0000
  C   C68       1.0  0.91060  0.47148  0.35670  1.0000
  H   H49       1.0  0.96156  0.52624  0.38218  1.0000
  C   C69       1.0  0.09143  0.53001  0.35683  1.0000
  C   C70       1.0  0.04999  0.50360  0.36058  1.0000
  H   H50       1.0  0.04046  0.47520  0.38188  1.0000
  N   N13       1.0  0.11777  0.51788  0.36600  1.0000
  N   N14       1.0  0.88414  0.48345  0.36596  1.0000
  C   C71       1.0  0.50430  0.45504  0.36050  1.0000
  C   C72       1.0  0.53077  0.44008  0.35725  1.0000
  H   H51       1.0  0.47594  0.43620  0.38205  1.0000
  C   C73       1.0  0.47173  0.56200  0.35421  1.0000
  C   C74       1.0  0.49829  0.54713  0.35836  1.0000
  H   H52       1.0  0.52664  0.56611  0.37972  1.0000
  N   N15       1.0  0.48331  0.60034  0.36341  1.0000
  N   N16       1.0  0.51866  0.40162  0.36648  1.0000
  C   C75       1.0  0.54749  0.05021  0.35952  1.0000
  C   C76       1.0  0.56240  0.09165  0.35597  1.0000
  H   H53       1.0  0.56640  0.04076  0.38097  1.0000
  C   C77       1.0  0.44040  0.91073  0.35597  1.0000
  C   C78       1.0  0.45537  0.95217  0.35985  1.0000
  H   H54       1.0  0.43650  0.96164  0.38142  1.0000
  N   N17       1.0  0.40196  0.88433  0.36535  1.0000
  N   N18       1.0  0.60079  0.11823  0.36527  1.0000
  C   C79       1.0  0.32027  0.45964  0.34063  1.0000
  C   C80       1.0  0.25631  0.47504  0.33621  1.0000
  C   C81       1.0  0.27818  0.48185  0.41698  1.0000
  C   C82       1.0  0.31011  0.47392  0.41739  1.0000
  H   H55       1.0  0.32672  0.47924  0.47428  1.0000
  C   C83       1.0  0.16127  0.47076  0.37965  1.0000
  N   N19       1.0  0.19355  0.46592  0.38268  1.0000
  H   H56       1.0  0.13921  0.45666  0.42604  1.0000
  C   C84       1.0  0.26977  0.49847  0.49827  1.0000
  H   H57       1.0  0.27066  0.52633  0.48191  1.0000
  H   H58       1.0  0.29133  0.50466  0.55156  1.0000
  H   H59       1.0  0.24036  0.47734  0.52429  1.0000
  C   C85       1.0  0.35196  0.45261  0.34098  1.0000
  H   H60       1.0  0.35953  0.44624  0.39978  1.0000
  C   C86       1.0  0.54215  0.86093  0.34012  1.0000
  C   C87       1.0  0.52719  0.78173  0.33685  1.0000
  C   C88       1.0  0.52059  0.79699  0.41753  1.0000
  C   C89       1.0  0.52829  0.83677  0.41738  1.0000
  H   H61       1.0  0.52318  0.84823  0.47426  1.0000
  C   C90       1.0  0.53417  0.69266  0.38232  1.0000
  N   N20       1.0  0.53804  0.72938  0.38435  1.0000
  H   H62       1.0  0.54903  0.68554  0.42851  1.0000
  C   C91       1.0  0.50445  0.77226  0.49939  1.0000
  H   H63       1.0  0.47667  0.74506  0.48375  1.0000
  H   H64       1.0  0.49825  0.78770  0.55250  1.0000
  H   H65       1.0  0.52588  0.76436  0.52534  1.0000
  C   C92       1.0  0.54910  0.89962  0.34011  1.0000
  H   H66       1.0  0.55612  0.91383  0.39867  1.0000
  C   C93       1.0  0.14122  0.68175  0.34096  1.0000
  C   C94       1.0  0.22054  0.74579  0.33634  1.0000
  C   C95       1.0  0.20551  0.72398  0.41719  1.0000
  C   C96       1.0  0.16567  0.69201  0.41771  1.0000
  H   H67       1.0  0.15440  0.67547  0.47469  1.0000
  C   C97       1.0  0.31120  0.84094  0.37969  1.0000
  N   N21       1.0  0.27411  0.80861  0.38274  1.0000
  H   H68       1.0  0.31912  0.86300  0.42607  1.0000
  C   C98       1.0  0.23056  0.73250  0.49851  1.0000
  H   H69       1.0  0.25757  0.73167  0.48222  1.0000
  H   H70       1.0  0.21522  0.71096  0.55186  1.0000
  H   H71       1.0  0.23877  0.76191  0.52441  1.0000
  C   C99       1.0  0.10250  0.65007  0.34147  1.0000
  H   H72       1.0  0.08854  0.64266  0.40027  1.0000
  C   C100      1.0  0.68223  0.54240  0.33955  1.0000
  C   C101      1.0  0.74613  0.52691  0.33621  1.0000
  C   C102      1.0  0.72395  0.51991  0.41654  1.0000
  C   C103      1.0  0.69205  0.52789  0.41644  1.0000
  H   H73       1.0  0.67526  0.52250  0.47304  1.0000
  C   C104      1.0  0.84136  0.53188  0.38128  1.0000
  N   N22       1.0  0.80889  0.53643  0.38373  1.0000
  H   H74       1.0  0.86331  0.54617  0.42783  1.0000
  C   C105      1.0  0.73207  0.50312  0.49794  1.0000
  H   H75       1.0  0.73123  0.47529  0.48150  1.0000
  H   H76       1.0  0.71032  0.49682  0.55084  1.0000
  H   H77       1.0  0.76139  0.52419  0.52450  1.0000
  C   C106      1.0  0.65070  0.54972  0.33942  1.0000
  H   H78       1.0  0.64332  0.55629  0.39816  1.0000
  C   C107      1.0  0.45999  0.14075  0.34039  1.0000
  C   C108      1.0  0.47547  0.22012  0.33627  1.0000
  C   C109      1.0  0.48229  0.20502  0.41694  1.0000
  C   C110      1.0  0.47433  0.16515  0.41721  1.0000
  H   H79       1.0  0.47967  0.15382  0.47401  1.0000
  C   C111      1.0  0.47140  0.31097  0.37997  1.0000
  N   N23       1.0  0.46647  0.27381  0.38291  1.0000
  H   H80       1.0  0.45732  0.31895  0.42638  1.0000
  C   C112      1.0  0.49898  0.23002  0.49826  1.0000
  H   H81       1.0  0.52686  0.25697  0.48189  1.0000
  H   H82       1.0  0.50515  0.21460  0.55147  1.0000
  H   H83       1.0  0.47789  0.23833  0.52438  1.0000
  C   C113      1.0  0.45301  0.10206  0.34050  1.0000
  H   H84       1.0  0.44642  0.08799  0.39916  1.0000
  C   C114      1.0  0.86172  0.31998  0.33933  1.0000
  C   C115      1.0  0.78234  0.25606  0.33623  1.0000
  C   C116      1.0  0.79757  0.27827  0.41652  1.0000
  C   C117      1.0  0.83743  0.31018  0.41629  1.0000
  H   H85       1.0  0.84886  0.32700  0.47285  1.0000
  C   C118      1.0  0.69225  0.16075  0.38157  1.0000
  N   N24       1.0  0.72922  0.19328  0.38392  1.0000
  H   H86       1.0  0.68466  0.13881  0.42809  1.0000
  C   C119      1.0  0.77270  0.27017  0.49799  1.0000
  H   H87       1.0  0.74569  0.27099  0.48162  1.0000
  H   H88       1.0  0.78817  0.29194  0.55084  1.0000
  H   H89       1.0  0.76448  0.24086  0.52458  1.0000
  C   C120      1.0  0.90054  0.35154  0.33903  1.0000
  H   H90       1.0  0.91456  0.35893  0.39769  1.0000
