data_image0
_chemical_formula_structural       C4H2C3NHOC10H3C3H2C5H2C4NCOHOC8H3C2H2C9H13CNC3NOC4NC3NC4NC3NC19H19OHOH
_chemical_formula_sum              "C86 H50 N8 O6"
_cell_length_a       30.0211
_cell_length_b       30.0209
_cell_length_c       14.8708
_cell_angle_alpha    90
_cell_angle_beta     90
_cell_angle_gamma    89.9285

_space_group_name_H-M_alt    "P 1"
_space_group_IT_number       1

loop_
  _space_group_symop_operation_xyz
  'x, y, z'

loop_
  _atom_site_type_symbol
  _atom_site_label
  _atom_site_symmetry_multiplicity
  _atom_site_fract_x
  _atom_site_fract_y
  _atom_site_fract_z
  _atom_site_occupancy
  C   C1        1.0  0.23739  0.01169  0.26353  1.0000
  C   C2        1.0  0.19045  0.01144  0.26376  1.0000
  C   C3        1.0  0.38104  0.03764  0.29018  1.0000
  C   C4        1.0  0.33411  0.03734  0.29162  1.0000
  H   H1        1.0  0.17377  0.01609  0.20444  1.0000
  H   H2        1.0  0.25335  0.01593  0.20334  1.0000
  C   C5        1.0  0.47803  0.00440  0.25478  1.0000
  C   C6        1.0  0.52559  0.00536  0.25282  1.0000
  C   C7        1.0  0.54978  0.00675  0.33540  1.0000
  N   N1        1.0  0.54569  0.00578  0.16990  1.0000
  H   H3        1.0  0.57785  0.00859  0.16521  1.0000
  O   O1        1.0  0.41451  0.01642  0.01425  1.0000
  C   C8        1.0  0.11885  0.00525  0.34504  1.0000
  C   C9        1.0  0.16656  0.00494  0.34452  1.0000
  C   C10       1.0  0.26221  0.00526  0.34367  1.0000
  C   C11       1.0  0.31011  0.00575  0.34319  1.0000
  C   C12       1.0  0.40609  0.00618  0.33988  1.0000
  C   C13       1.0  0.81231  0.01415  0.42571  1.0000
  C   C14       1.0  0.76535  0.01447  0.42523  1.0000
  C   C15       1.0  0.59744  0.00567  0.33988  1.0000
  C   C16       1.0  0.62159  0.04020  0.38239  1.0000
  C   C17       1.0  0.66853  0.03948  0.38539  1.0000
  H   H4        1.0  0.74903  0.02135  0.48405  1.0000
  H   H5        1.0  0.82874  0.02124  0.48430  1.0000
  H   H6        1.0  0.97396  0.03220  0.34711  1.0000
  C   C18       1.0  0.45386  0.00591  0.33677  1.0000
  C   C19       1.0  0.52545  0.00821  0.41684  1.0000
  C   C20       1.0  0.47861  0.00788  0.41743  1.0000
  H   H7        1.0  0.46256  0.00974  0.47797  1.0000
  H   H8        1.0  0.54177  0.00909  0.47729  1.0000
  C   C21       1.0  0.00513  0.40878  0.33742  1.0000
  C   C22       1.0  0.00887  0.81595  0.26397  1.0000
  C   C23       1.0  0.00978  0.76901  0.26347  1.0000
  C   C24       1.0  0.03718  0.62550  0.28945  1.0000
  C   C25       1.0  0.03644  0.67243  0.29121  1.0000
  H   H9        1.0  0.01333  0.83276  0.20476  1.0000
  H   H10       1.0  0.01427  0.75318  0.20322  1.0000
  C   C26       1.0  0.00589  0.55236  0.33511  1.0000
  C   C27       1.0  0.00486  0.52831  0.25296  1.0000
  C   C28       1.0  0.00577  0.48075  0.25074  1.0000
  C   C29       1.0  0.00663  0.45643  0.33319  1.0000
  N   N2        1.0  0.00659  0.46075  0.16773  1.0000
  C   C30       1.0  0.00446  0.48383  0.08905  1.0000
  O   O2        1.0  0.00545  0.46151  0.00986  1.0000
  H   H11       1.0  0.00934  0.42858  0.16294  1.0000
  O   O3        1.0  0.01864  0.59180  0.01267  1.0000
  C   C31       1.0  0.04308  0.91011  0.34511  1.0000
  C   C32       1.0  0.04411  0.10033  0.34594  1.0000
  C   C33       1.0  0.01124  0.19403  0.42494  1.0000
  C   C34       1.0  0.01176  0.24098  0.42408  1.0000
  C   C35       1.0  0.03917  0.38421  0.38073  1.0000
  C   C36       1.0  0.03790  0.33729  0.38393  1.0000
  C   C37       1.0  0.00450  0.69613  0.34262  1.0000
  C   C38       1.0  0.00582  0.60014  0.33861  1.0000
  H   H12       1.0  0.02928  0.97706  0.34555  1.0000
  H   H13       1.0  0.01870  0.25735  0.48278  1.0000
  H   H14       1.0  0.01830  0.17766  0.48364  1.0000
  C   C39       1.0  0.00774  0.48064  0.41479  1.0000
  C   C40       1.0  0.00747  0.52747  0.41564  1.0000
  H   H15       1.0  0.00899  0.54342  0.47631  1.0000
  H   H16       1.0  0.00821  0.46423  0.47517  1.0000
  C   C41       1.0  0.09715  0.04741  0.34510  1.0000
  C   C42       1.0  0.99186  0.24058  0.26616  1.0000
  C   C43       1.0  0.99191  0.19363  0.26651  1.0000
  C   C44       1.0  0.96823  0.33783  0.30189  1.0000
  C   C45       1.0  0.96919  0.38476  0.29964  1.0000
  C   C46       1.0  0.81251  0.99444  0.26748  1.0000
  C   C47       1.0  0.76557  0.99416  0.26752  1.0000
  C   C48       1.0  0.66884  0.96937  0.30488  1.0000
  C   C49       1.0  0.62191  0.96976  0.30290  1.0000
  H   H17       1.0  0.60563  0.94370  0.27312  1.0000
  H   H18       1.0  0.68514  0.94278  0.27700  1.0000
  H   H19       1.0  0.74944  0.98733  0.20849  1.0000
  H   H20       1.0  0.82909  0.98729  0.20906  1.0000
  H   H21       1.0  0.09175  0.15486  0.34339  1.0000
  H   H22       1.0  0.31757  0.06118  0.25546  1.0000
  H   H23       1.0  0.39685  0.06150  0.25282  1.0000
  H   H24       1.0  0.98501  0.17698  0.20808  1.0000
  H   H25       1.0  0.98540  0.25664  0.20687  1.0000
  H   H26       1.0  0.94344  0.40136  0.26930  1.0000
  H   H27       1.0  0.94160  0.32187  0.27357  1.0000
  H   H28       1.0  0.06021  0.68920  0.25539  1.0000
  H   H29       1.0  0.06128  0.60991  0.25223  1.0000
  C   C50       1.0  0.00164  0.53067  0.09152  1.0000
  N   N3        1.0  0.00225  0.55044  0.17342  1.0000
  C   C51       1.0  0.99845  0.55649  0.01455  1.0000
  C   C52       1.0  0.52272  0.00317  0.09114  1.0000
  C   C53       1.0  0.47590  0.00028  0.09339  1.0000
  N   N4        1.0  0.45602  0.00135  0.17518  1.0000
  O   O4        1.0  0.54517  0.00385  0.01207  1.0000
  C   C54       1.0  0.45017  0.99675  0.01633  1.0000
  C   C55       1.0  0.88606  0.08738  0.34620  1.0000
  C   C56       1.0  0.91851  0.11994  0.34670  1.0000
  C   C57       1.0  0.96020  0.09916  0.34642  1.0000
  N   N5        1.0  0.95128  0.05481  0.34680  1.0000
  C   C58       1.0  0.90695  0.04575  0.34685  1.0000
  C   C59       1.0  0.88433  0.00398  0.34691  1.0000
  C   C60       1.0  0.90606  0.96182  0.34670  1.0000
  N   N6        1.0  0.95034  0.95318  0.34608  1.0000
  C   C61       1.0  0.95917  0.90894  0.34622  1.0000
  C   C62       1.0  0.91775  0.88780  0.34681  1.0000
  C   C63       1.0  0.88514  0.92027  0.34770  1.0000
  C   C64       1.0  0.00140  0.88739  0.34548  1.0000
  N   N7        1.0  0.05196  0.95445  0.34539  1.0000
  C   C65       1.0  0.09628  0.96349  0.34525  1.0000
  C   C66       1.0  0.11722  0.92189  0.34469  1.0000
  C   C67       1.0  0.08477  0.88932  0.34502  1.0000
  N   N8        1.0  0.05289  0.05609  0.34603  1.0000
  C   C68       1.0  0.08558  0.12140  0.34447  1.0000
  C   C69       1.0  0.11816  0.08889  0.34455  1.0000
  C   C70       1.0  0.00188  0.12192  0.34629  1.0000
  C   C71       1.0  0.00147  0.16968  0.34603  1.0000
  C   C72       1.0  0.00198  0.26527  0.34478  1.0000
  C   C73       1.0  0.00265  0.31306  0.34375  1.0000
  C   C74       1.0  0.19088  0.99846  0.42479  1.0000
  C   C75       1.0  0.23784  0.99847  0.42419  1.0000
  C   C76       1.0  0.33534  0.97476  0.39405  1.0000
  C   C77       1.0  0.38232  0.97501  0.39263  1.0000
  C   C78       1.0  0.00192  0.83967  0.34481  1.0000
  C   C79       1.0  0.00351  0.74401  0.34341  1.0000
  C   C80       1.0  0.99630  0.76820  0.42403  1.0000
  C   C81       1.0  0.99568  0.81516  0.42492  1.0000
  C   C82       1.0  0.97361  0.67059  0.39296  1.0000
  C   C83       1.0  0.97428  0.62363  0.39115  1.0000
  C   C84       1.0  0.83657  0.00427  0.34672  1.0000
  C   C85       1.0  0.74097  0.00426  0.34628  1.0000
  C   C86       1.0  0.69318  0.00432  0.34577  1.0000
  H   H30       1.0  0.60513  0.06680  0.40987  1.0000
  H   H31       1.0  0.68464  0.06579  0.41457  1.0000
  H   H32       1.0  0.85261  0.09375  0.34565  1.0000
  H   H33       1.0  0.91204  0.15336  0.34687  1.0000
  H   H34       1.0  0.85170  0.91400  0.34888  1.0000
  H   H35       1.0  0.91167  0.85431  0.34697  1.0000
  H   H36       1.0  0.99077  0.83140  0.48464  1.0000
  H   H37       1.0  0.99239  0.75179  0.48380  1.0000
  H   H38       1.0  0.09121  0.85589  0.34513  1.0000
  H   H39       1.0  0.15068  0.91557  0.34419  1.0000
  H   H40       1.0  0.15162  0.09509  0.34381  1.0000
  H   H41       1.0  0.17450  0.99389  0.48446  1.0000
  H   H42       1.0  0.25412  0.99446  0.48409  1.0000
  H   H43       1.0  0.39909  0.95139  0.42898  1.0000
  H   H44       1.0  0.31968  0.95077  0.43127  1.0000
  H   H45       1.0  0.06386  0.32086  0.41382  1.0000
  H   H46       1.0  0.06577  0.40034  0.40886  1.0000
  H   H47       1.0  0.94936  0.68603  0.42997  1.0000
  H   H48       1.0  0.95069  0.60665  0.42707  1.0000
  O   O5        1.0  0.96427  0.55585  0.63476  1.0000
  H   H49       1.0  0.94446  0.53399  0.63391  1.0000
  O   O6        1.0  0.45161  0.96281  0.63587  1.0000
  H   H50       1.0  0.47374  0.94324  0.63525  1.0000
