data_image0
_chemical_formula_structural       C2HC2HN2C7H3NO2CHC7H3NO2CHC4H2C4H2N2C2HC3HC2H4CHC2HC3HC2H4CHC2HC2HN2C7H3NO2CHC7H3NO2CHC4H2C4H2N2C2HC3HC2H4CHC2HC3HC2H4CHC2HC2HN2C7H3NO2CHC7H3NO2CHC4H2C4H2N2C2HC3HC2H4CHC2HC3HC2H4CHC2HC2HN2C7H3NO2CHC7H3NO2CHC4H2C4H2N2C2HC3HC2H4CHC2HC3HC2H4CH
_chemical_formula_sum              "C176 H112 N24 O16"
_cell_length_a       39.3586
_cell_length_b       39.3586
_cell_length_c       15.0939
_cell_angle_alpha    90
_cell_angle_beta     90
_cell_angle_gamma    90

_space_group_name_H-M_alt    "P 1"
_space_group_IT_number       1

loop_
  _space_group_symop_operation_xyz
  'x, y, z'

loop_
  _atom_site_type_symbol
  _atom_site_label
  _atom_site_symmetry_multiplicity
  _atom_site_fract_x
  _atom_site_fract_y
  _atom_site_fract_z
  _atom_site_occupancy
  C   C1        1.0  0.00614  0.04676  0.31672  1.0000
  C   C2        1.0  0.03177  0.07163  0.31015  1.0000
  H   H1        1.0  0.48163  0.05493  0.31372  1.0000
  C   C3        1.0  0.46853  0.42672  0.30355  1.0000
  C   C4        1.0  0.49357  0.45220  0.29753  1.0000
  H   H2        1.0  0.01621  0.44562  0.27000  1.0000
  N   N1        1.0  0.47394  0.39373  0.28424  1.0000
  N   N2        1.0  0.02582  0.10527  0.30649  1.0000
  C   C5        1.0  0.00145  0.34085  0.25512  1.0000
  C   C6        1.0  0.03229  0.32317  0.24574  1.0000
  C   C7        1.0  0.03417  0.28748  0.25544  1.0000
  C   C8        1.0  0.00387  0.26811  0.26975  1.0000
  C   C9        1.0  0.00294  0.23201  0.28092  1.0000
  C   C10       1.0  0.52862  0.21006  0.24848  1.0000
  C   C11       1.0  0.52746  0.17491  0.26212  1.0000
  H   H3        1.0  0.54767  0.21869  0.20887  1.0000
  H   H4        1.0  0.54664  0.16044  0.23610  1.0000
  H   H5        1.0  0.55443  0.33662  0.23854  1.0000
  N   N3        1.0  0.06701  0.27286  0.26192  1.0000
  O   O1        1.0  0.08440  0.27753  0.19305  1.0000
  O   O2        1.0  0.08333  0.28360  0.32786  1.0000
  C   C12       1.0  0.50163  0.37654  0.25671  1.0000
  H   H6        1.0  0.52412  0.38915  0.24838  1.0000
  C   C13       1.0  0.16212  0.99247  0.32246  1.0000
  C   C14       1.0  0.18172  0.96283  0.31256  1.0000
  C   C15       1.0  0.21729  0.96275  0.32674  1.0000
  C   C16       1.0  0.23410  0.99291  0.35672  1.0000
  C   C17       1.0  0.26962  0.99520  0.37657  1.0000
  C   C18       1.0  0.28989  0.46664  0.39851  1.0000
  C   C19       1.0  0.32520  0.46915  0.40875  1.0000
  H   H7        1.0  0.27939  0.44345  0.41036  1.0000
  H   H8        1.0  0.33859  0.44739  0.42144  1.0000
  H   H9        1.0  0.17020  0.44094  0.29137  1.0000
  N   N4        1.0  0.23563  0.93335  0.30095  1.0000
  O   O3        1.0  0.22629  0.90722  0.34234  1.0000
  O   O4        1.0  0.23355  0.92776  0.21910  1.0000
  C   C20       1.0  0.12670  0.49136  0.30986  1.0000
  H   H10       1.0  0.11484  0.46861  0.29902  1.0000
  C   C21       1.0  0.01366  0.01146  0.31821  1.0000
  C   C22       1.0  0.06590  0.06163  0.30575  1.0000
  C   C23       1.0  0.07468  0.02715  0.30941  1.0000
  C   C24       1.0  0.04872  0.00256  0.31490  1.0000
  H   H11       1.0  0.05613  0.47799  0.32346  1.0000
  H   H12       1.0  0.08463  0.07971  0.30215  1.0000
  C   C25       1.0  0.48744  0.48638  0.32311  1.0000
  C   C26       1.0  0.45391  0.49395  0.35243  1.0000
  C   C27       1.0  0.42837  0.46889  0.35796  1.0000
  C   C28       1.0  0.43608  0.43525  0.33468  1.0000
  H   H13       1.0  0.44792  0.01762  0.37464  1.0000
  H   H14       1.0  0.41761  0.41690  0.33828  1.0000
  N   N5        1.0  0.39568  0.47496  0.37936  1.0000
  N   N6        1.0  0.10820  0.02018  0.31149  1.0000
  C   C29       1.0  0.97257  0.28628  0.27799  1.0000
  C   C30       1.0  0.97165  0.32191  0.27025  1.0000
  H   H15       1.0  0.94885  0.33418  0.27687  1.0000
  C   C31       1.0  0.99954  0.15970  0.30532  1.0000
  C   C32       1.0  0.97268  0.18075  0.33351  1.0000
  C   C33       1.0  0.97424  0.21633  0.32216  1.0000
  H   H16       1.0  0.95214  0.17020  0.36491  1.0000
  C   C34       1.0  0.94608  0.23765  0.35687  1.0000
  C   C35       1.0  0.94002  0.26791  0.29399  1.0000
  H   H17       1.0  0.95309  0.24701  0.42262  1.0000
  H   H18       1.0  0.92240  0.22330  0.36317  1.0000
  H   H19       1.0  0.92063  0.28435  0.32334  1.0000
  H   H20       1.0  0.43030  0.25866  0.23054  1.0000
  C   C36       1.0  0.99783  0.12441  0.31834  1.0000
  H   H21       1.0  0.97620  0.11357  0.34315  1.0000
  C   C37       1.0  0.21430  0.02325  0.36251  1.0000
  C   C38       1.0  0.17907  0.02272  0.34598  1.0000
  H   H22       1.0  0.16547  0.04467  0.35416  1.0000
  C   C39       1.0  0.34189  0.00073  0.40020  1.0000
  C   C40       1.0  0.32171  0.03002  0.38909  1.0000
  C   C41       1.0  0.28613  0.02754  0.37808  1.0000
  H   H23       1.0  0.33321  0.05328  0.38310  1.0000
  C   C42       1.0  0.26660  0.05892  0.35816  1.0000
  C   C43       1.0  0.22988  0.05572  0.39275  1.0000
  H   H24       1.0  0.26637  0.06282  0.28642  1.0000
  H   H25       1.0  0.27825  0.08123  0.38896  1.0000
  H   H26       1.0  0.21550  0.07785  0.36989  1.0000
  H   H27       1.0  0.22997  0.55603  0.46520  1.0000
  C   C44       1.0  0.37754  0.00322  0.39700  1.0000
  H   H28       1.0  0.38876  0.02649  0.38954  1.0000
  C   C45       1.0  0.00614  0.54676  0.31672  1.0000
  C   C46       1.0  0.03177  0.57163  0.31015  1.0000
  H   H29       1.0  0.48163  0.55493  0.31372  1.0000
  C   C47       1.0  0.46853  0.92672  0.30355  1.0000
  C   C48       1.0  0.49357  0.95220  0.29753  1.0000
  H   H30       1.0  0.01621  0.94562  0.27000  1.0000
  N   N7        1.0  0.47394  0.89373  0.28424  1.0000
  N   N8        1.0  0.02582  0.60527  0.30649  1.0000
  C   C49       1.0  0.00145  0.84084  0.25512  1.0000
  C   C50       1.0  0.03229  0.82317  0.24574  1.0000
  C   C51       1.0  0.03417  0.78748  0.25544  1.0000
  C   C52       1.0  0.00387  0.76811  0.26975  1.0000
  C   C53       1.0  0.00294  0.73201  0.28092  1.0000
  C   C54       1.0  0.52862  0.71006  0.24848  1.0000
  C   C55       1.0  0.52746  0.67491  0.26212  1.0000
  H   H31       1.0  0.54767  0.71869  0.20887  1.0000
  H   H32       1.0  0.54664  0.66044  0.23610  1.0000
  H   H33       1.0  0.55443  0.83662  0.23854  1.0000
  N   N9        1.0  0.06701  0.77286  0.26192  1.0000
  O   O5        1.0  0.08440  0.77753  0.19305  1.0000
  O   O6        1.0  0.08333  0.78360  0.32786  1.0000
  C   C56       1.0  0.50163  0.87654  0.25671  1.0000
  H   H34       1.0  0.52412  0.88915  0.24838  1.0000
  C   C57       1.0  0.16212  0.49248  0.32246  1.0000
  C   C58       1.0  0.18172  0.46283  0.31256  1.0000
  C   C59       1.0  0.21729  0.46275  0.32674  1.0000
  C   C60       1.0  0.23410  0.49291  0.35672  1.0000
  C   C61       1.0  0.26962  0.49520  0.37657  1.0000
  C   C62       1.0  0.28989  0.96664  0.39851  1.0000
  C   C63       1.0  0.32520  0.96915  0.40875  1.0000
  H   H35       1.0  0.27939  0.94345  0.41036  1.0000
  H   H36       1.0  0.33859  0.94739  0.42144  1.0000
  H   H37       1.0  0.17020  0.94094  0.29137  1.0000
  N   N10       1.0  0.23563  0.43335  0.30095  1.0000
  O   O7        1.0  0.22629  0.40722  0.34234  1.0000
  O   O8        1.0  0.23355  0.42776  0.21910  1.0000
  C   C64       1.0  0.12670  0.99137  0.30986  1.0000
  H   H38       1.0  0.11484  0.96861  0.29902  1.0000
  C   C65       1.0  0.01366  0.51146  0.31821  1.0000
  C   C66       1.0  0.06590  0.56163  0.30575  1.0000
  C   C67       1.0  0.07468  0.52715  0.30941  1.0000
  C   C68       1.0  0.04872  0.50256  0.31490  1.0000
  H   H39       1.0  0.05613  0.97798  0.32346  1.0000
  H   H40       1.0  0.08463  0.57971  0.30215  1.0000
  C   C69       1.0  0.48744  0.98638  0.32311  1.0000
  C   C70       1.0  0.45391  0.99395  0.35243  1.0000
  C   C71       1.0  0.42837  0.96889  0.35796  1.0000
  C   C72       1.0  0.43608  0.93525  0.33468  1.0000
  H   H41       1.0  0.44792  0.51762  0.37464  1.0000
  H   H42       1.0  0.41761  0.91690  0.33828  1.0000
  N   N11       1.0  0.39568  0.97496  0.37936  1.0000
  N   N12       1.0  0.10820  0.52018  0.31149  1.0000
  C   C73       1.0  0.97257  0.78628  0.27799  1.0000
  C   C74       1.0  0.97165  0.82191  0.27025  1.0000
  H   H43       1.0  0.94885  0.83418  0.27687  1.0000
  C   C75       1.0  0.99954  0.65970  0.30532  1.0000
  C   C76       1.0  0.97268  0.68075  0.33351  1.0000
  C   C77       1.0  0.97424  0.71633  0.32216  1.0000
  H   H44       1.0  0.95214  0.67020  0.36491  1.0000
  C   C78       1.0  0.94608  0.73765  0.35687  1.0000
  C   C79       1.0  0.94002  0.76791  0.29399  1.0000
  H   H45       1.0  0.95309  0.74701  0.42262  1.0000
  H   H46       1.0  0.92240  0.72330  0.36317  1.0000
  H   H47       1.0  0.92063  0.78435  0.32334  1.0000
  H   H48       1.0  0.43030  0.75866  0.23054  1.0000
  C   C80       1.0  0.99783  0.62442  0.31834  1.0000
  H   H49       1.0  0.97620  0.61357  0.34315  1.0000
  C   C81       1.0  0.21430  0.52325  0.36251  1.0000
  C   C82       1.0  0.17907  0.52272  0.34598  1.0000
  H   H50       1.0  0.16547  0.54467  0.35416  1.0000
  C   C83       1.0  0.34189  0.50073  0.40020  1.0000
  C   C84       1.0  0.32171  0.53002  0.38909  1.0000
  C   C85       1.0  0.28613  0.52754  0.37808  1.0000
  H   H51       1.0  0.33321  0.55328  0.38310  1.0000
  C   C86       1.0  0.26660  0.55892  0.35816  1.0000
  C   C87       1.0  0.22988  0.55572  0.39275  1.0000
  H   H52       1.0  0.26637  0.56282  0.28642  1.0000
  H   H53       1.0  0.27825  0.58123  0.38896  1.0000
  H   H54       1.0  0.21550  0.57785  0.36989  1.0000
  H   H55       1.0  0.22997  0.05603  0.46520  1.0000
  C   C88       1.0  0.37754  0.50322  0.39700  1.0000
  H   H56       1.0  0.38876  0.52648  0.38954  1.0000
  C   C89       1.0  0.50614  0.04676  0.31672  1.0000
  C   C90       1.0  0.53177  0.07163  0.31015  1.0000
  H   H57       1.0  0.98163  0.05493  0.31372  1.0000
  C   C91       1.0  0.96853  0.42672  0.30355  1.0000
  C   C92       1.0  0.99357  0.45220  0.29753  1.0000
  H   H58       1.0  0.51621  0.44562  0.27000  1.0000
  N   N13       1.0  0.97394  0.39373  0.28424  1.0000
  N   N14       1.0  0.52582  0.10527  0.30649  1.0000
  C   C93       1.0  0.50145  0.34085  0.25512  1.0000
  C   C94       1.0  0.53229  0.32317  0.24574  1.0000
  C   C95       1.0  0.53417  0.28748  0.25544  1.0000
  C   C96       1.0  0.50387  0.26811  0.26975  1.0000
  C   C97       1.0  0.50294  0.23201  0.28092  1.0000
  C   C98       1.0  0.02862  0.21006  0.24848  1.0000
  C   C99       1.0  0.02746  0.17491  0.26212  1.0000
  H   H59       1.0  0.04767  0.21869  0.20887  1.0000
  H   H60       1.0  0.04664  0.16044  0.23610  1.0000
  H   H61       1.0  0.05443  0.33662  0.23854  1.0000
  N   N15       1.0  0.56701  0.27286  0.26192  1.0000
  O   O9        1.0  0.58441  0.27753  0.19305  1.0000
  O   O10       1.0  0.58333  0.28360  0.32786  1.0000
  C   C100      1.0  0.00163  0.37654  0.25671  1.0000
  H   H62       1.0  0.02412  0.38915  0.24838  1.0000
  C   C101      1.0  0.66212  0.99247  0.32246  1.0000
  C   C102      1.0  0.68172  0.96283  0.31256  1.0000
  C   C103      1.0  0.71729  0.96275  0.32674  1.0000
  C   C104      1.0  0.73410  0.99291  0.35672  1.0000
  C   C105      1.0  0.76962  0.99520  0.37657  1.0000
  C   C106      1.0  0.78989  0.46664  0.39851  1.0000
  C   C107      1.0  0.82519  0.46915  0.40875  1.0000
  H   H63       1.0  0.77939  0.44345  0.41036  1.0000
  H   H64       1.0  0.83859  0.44739  0.42144  1.0000
  H   H65       1.0  0.67020  0.44094  0.29137  1.0000
  N   N16       1.0  0.73563  0.93335  0.30095  1.0000
  O   O11       1.0  0.72629  0.90722  0.34234  1.0000
  O   O12       1.0  0.73355  0.92776  0.21910  1.0000
  C   C108      1.0  0.62670  0.49136  0.30986  1.0000
  H   H66       1.0  0.61484  0.46861  0.29902  1.0000
  C   C109      1.0  0.51366  0.01146  0.31821  1.0000
  C   C110      1.0  0.56590  0.06163  0.30575  1.0000
  C   C111      1.0  0.57468  0.02715  0.30941  1.0000
  C   C112      1.0  0.54872  0.00256  0.31490  1.0000
  H   H67       1.0  0.55613  0.47799  0.32346  1.0000
  H   H68       1.0  0.58463  0.07971  0.30215  1.0000
  C   C113      1.0  0.98744  0.48638  0.32311  1.0000
  C   C114      1.0  0.95391  0.49395  0.35243  1.0000
  C   C115      1.0  0.92837  0.46889  0.35796  1.0000
  C   C116      1.0  0.93608  0.43525  0.33468  1.0000
  H   H69       1.0  0.94791  0.01762  0.37464  1.0000
  H   H70       1.0  0.91762  0.41690  0.33828  1.0000
  N   N17       1.0  0.89568  0.47496  0.37936  1.0000
  N   N18       1.0  0.60820  0.02018  0.31149  1.0000
  C   C117      1.0  0.47257  0.28628  0.27799  1.0000
  C   C118      1.0  0.47165  0.32191  0.27025  1.0000
  H   H71       1.0  0.44885  0.33418  0.27687  1.0000
  C   C119      1.0  0.49954  0.15970  0.30532  1.0000
  C   C120      1.0  0.47268  0.18075  0.33351  1.0000
  C   C121      1.0  0.47424  0.21633  0.32216  1.0000
  H   H72       1.0  0.45215  0.17020  0.36491  1.0000
  C   C122      1.0  0.44608  0.23765  0.35687  1.0000
  C   C123      1.0  0.44002  0.26791  0.29399  1.0000
  H   H73       1.0  0.45309  0.24701  0.42262  1.0000
  H   H74       1.0  0.42240  0.22330  0.36317  1.0000
  H   H75       1.0  0.42063  0.28435  0.32334  1.0000
  H   H76       1.0  0.93031  0.25866  0.23054  1.0000
  C   C124      1.0  0.49783  0.12441  0.31834  1.0000
  H   H77       1.0  0.47620  0.11357  0.34315  1.0000
  C   C125      1.0  0.71430  0.02325  0.36251  1.0000
  C   C126      1.0  0.67907  0.02272  0.34598  1.0000
  H   H78       1.0  0.66547  0.04467  0.35416  1.0000
  C   C127      1.0  0.84188  0.00073  0.40020  1.0000
  C   C128      1.0  0.82171  0.03002  0.38909  1.0000
  C   C129      1.0  0.78613  0.02754  0.37808  1.0000
  H   H79       1.0  0.83321  0.05328  0.38310  1.0000
  C   C130      1.0  0.76660  0.05892  0.35816  1.0000
  C   C131      1.0  0.72988  0.05572  0.39275  1.0000
  H   H80       1.0  0.76637  0.06282  0.28642  1.0000
  H   H81       1.0  0.77825  0.08123  0.38896  1.0000
  H   H82       1.0  0.71550  0.07785  0.36989  1.0000
  H   H83       1.0  0.72997  0.55603  0.46520  1.0000
  C   C132      1.0  0.87754  0.00322  0.39700  1.0000
  H   H84       1.0  0.88876  0.02649  0.38954  1.0000
  C   C133      1.0  0.50614  0.54676  0.31672  1.0000
  C   C134      1.0  0.53177  0.57163  0.31015  1.0000
  H   H85       1.0  0.98163  0.55493  0.31372  1.0000
  C   C135      1.0  0.96853  0.92672  0.30355  1.0000
  C   C136      1.0  0.99357  0.95220  0.29753  1.0000
  H   H86       1.0  0.51621  0.94562  0.27000  1.0000
  N   N19       1.0  0.97394  0.89373  0.28424  1.0000
  N   N20       1.0  0.52582  0.60527  0.30649  1.0000
  C   C137      1.0  0.50145  0.84084  0.25512  1.0000
  C   C138      1.0  0.53229  0.82317  0.24574  1.0000
  C   C139      1.0  0.53417  0.78748  0.25544  1.0000
  C   C140      1.0  0.50387  0.76811  0.26975  1.0000
  C   C141      1.0  0.50294  0.73201  0.28092  1.0000
  C   C142      1.0  0.02862  0.71006  0.24848  1.0000
  C   C143      1.0  0.02746  0.67491  0.26212  1.0000
  H   H87       1.0  0.04767  0.71869  0.20887  1.0000
  H   H88       1.0  0.04664  0.66044  0.23610  1.0000
  H   H89       1.0  0.05443  0.83662  0.23854  1.0000
  N   N21       1.0  0.56701  0.77286  0.26192  1.0000
  O   O13       1.0  0.58441  0.77753  0.19305  1.0000
  O   O14       1.0  0.58333  0.78360  0.32786  1.0000
  C   C144      1.0  0.00163  0.87654  0.25671  1.0000
  H   H90       1.0  0.02412  0.88915  0.24838  1.0000
  C   C145      1.0  0.66212  0.49248  0.32246  1.0000
  C   C146      1.0  0.68172  0.46283  0.31256  1.0000
  C   C147      1.0  0.71729  0.46275  0.32674  1.0000
  C   C148      1.0  0.73410  0.49291  0.35672  1.0000
  C   C149      1.0  0.76962  0.49520  0.37657  1.0000
  C   C150      1.0  0.78989  0.96664  0.39851  1.0000
  C   C151      1.0  0.82519  0.96915  0.40875  1.0000
  H   H91       1.0  0.77939  0.94345  0.41036  1.0000
  H   H92       1.0  0.83859  0.94739  0.42144  1.0000
  H   H93       1.0  0.67020  0.94094  0.29137  1.0000
  N   N22       1.0  0.73563  0.43335  0.30095  1.0000
  O   O15       1.0  0.72629  0.40722  0.34234  1.0000
  O   O16       1.0  0.73355  0.42776  0.21910  1.0000
  C   C152      1.0  0.62670  0.99137  0.30986  1.0000
  H   H94       1.0  0.61484  0.96861  0.29902  1.0000
  C   C153      1.0  0.51366  0.51146  0.31821  1.0000
  C   C154      1.0  0.56590  0.56163  0.30575  1.0000
  C   C155      1.0  0.57468  0.52715  0.30941  1.0000
  C   C156      1.0  0.54872  0.50256  0.31490  1.0000
  H   H95       1.0  0.55613  0.97798  0.32346  1.0000
  H   H96       1.0  0.58463  0.57971  0.30215  1.0000
  C   C157      1.0  0.98744  0.98638  0.32311  1.0000
  C   C158      1.0  0.95391  0.99395  0.35243  1.0000
  C   C159      1.0  0.92837  0.96889  0.35796  1.0000
  C   C160      1.0  0.93608  0.93525  0.33468  1.0000
  H   H97       1.0  0.94791  0.51762  0.37464  1.0000
  H   H98       1.0  0.91762  0.91690  0.33828  1.0000
  N   N23       1.0  0.89568  0.97496  0.37936  1.0000
  N   N24       1.0  0.60820  0.52018  0.31149  1.0000
  C   C161      1.0  0.47257  0.78628  0.27799  1.0000
  C   C162      1.0  0.47165  0.82191  0.27025  1.0000
  H   H99       1.0  0.44885  0.83418  0.27687  1.0000
  C   C163      1.0  0.49954  0.65970  0.30532  1.0000
  C   C164      1.0  0.47268  0.68075  0.33351  1.0000
  C   C165      1.0  0.47424  0.71633  0.32216  1.0000
  H   H100      1.0  0.45215  0.67020  0.36491  1.0000
  C   C166      1.0  0.44608  0.73765  0.35687  1.0000
  C   C167      1.0  0.44002  0.76791  0.29399  1.0000
  H   H101      1.0  0.45309  0.74701  0.42262  1.0000
  H   H102      1.0  0.42240  0.72330  0.36317  1.0000
  H   H103      1.0  0.42063  0.78435  0.32334  1.0000
  H   H104      1.0  0.93031  0.75866  0.23054  1.0000
  C   C168      1.0  0.49783  0.62442  0.31834  1.0000
  H   H105      1.0  0.47620  0.61357  0.34315  1.0000
  C   C169      1.0  0.71430  0.52325  0.36251  1.0000
  C   C170      1.0  0.67907  0.52272  0.34598  1.0000
  H   H106      1.0  0.66547  0.54467  0.35416  1.0000
  C   C171      1.0  0.84188  0.50073  0.40020  1.0000
  C   C172      1.0  0.82171  0.53002  0.38909  1.0000
  C   C173      1.0  0.78613  0.52754  0.37808  1.0000
  H   H107      1.0  0.83321  0.55328  0.38310  1.0000
  C   C174      1.0  0.76660  0.55892  0.35816  1.0000
  C   C175      1.0  0.72988  0.55572  0.39275  1.0000
  H   H108      1.0  0.76637  0.56282  0.28642  1.0000
  H   H109      1.0  0.77825  0.58123  0.38896  1.0000
  H   H110      1.0  0.71550  0.57785  0.36989  1.0000
  H   H111      1.0  0.72997  0.05603  0.46520  1.0000
  C   C176      1.0  0.87754  0.50322  0.39700  1.0000
  H   H112      1.0  0.88876  0.52648  0.38954  1.0000
