data_image0
_chemical_formula_structural       C18H17C5H3CH3C3H3CH3C3NC3NC5NC4NC35H25C3H3CH3C5H3CH3
_chemical_formula_sum              "C88 H66 N4"
_cell_length_a       30.048
_cell_length_b       30.0479
_cell_length_c       14.8657
_cell_angle_alpha    90
_cell_angle_beta     90
_cell_angle_gamma    89.9286

_space_group_name_H-M_alt    "P 1"
_space_group_IT_number       1

loop_
  _space_group_symop_operation_xyz
  'x, y, z'

loop_
  _atom_site_type_symbol
  _atom_site_label
  _atom_site_symmetry_multiplicity
  _atom_site_fract_x
  _atom_site_fract_y
  _atom_site_fract_z
  _atom_site_occupancy
  C   C1        1.0  0.09737  0.04746  0.34344  1.0000
  C   C2        1.0  0.98913  0.24126  0.26572  1.0000
  C   C3        1.0  0.98946  0.19432  0.26583  1.0000
  C   C4        1.0  0.96536  0.33821  0.31028  1.0000
  C   C5        1.0  0.96525  0.38515  0.31095  1.0000
  C   C6        1.0  0.00270  0.40937  0.34121  1.0000
  C   C7        1.0  0.23833  0.01712  0.26634  1.0000
  C   C8        1.0  0.19139  0.01704  0.26594  1.0000
  C   C9        1.0  0.38219  0.04042  0.31176  1.0000
  C   C10       1.0  0.33525  0.04051  0.31067  1.0000
  C   C11       1.0  0.01427  0.81567  0.26566  1.0000
  C   C12       1.0  0.01515  0.76874  0.26570  1.0000
  C   C13       1.0  0.04057  0.62506  0.30992  1.0000
  C   C14       1.0  0.03998  0.67200  0.30920  1.0000
  C   C15       1.0  0.81238  0.99230  0.26620  1.0000
  C   C16       1.0  0.76545  0.99156  0.26652  1.0000
  C   C17       1.0  0.66919  0.96619  0.31221  1.0000
  C   C18       1.0  0.62226  0.96528  0.31318  1.0000
  H   H1        1.0  0.60627  0.93723  0.29130  1.0000
  H   H2        1.0  0.68587  0.93854  0.29013  1.0000
  H   H3        1.0  0.74929  0.98236  0.20884  1.0000
  H   H4        1.0  0.82891  0.98316  0.20885  1.0000
  H   H5        1.0  0.02307  0.83229  0.20823  1.0000
  H   H6        1.0  0.02411  0.75266  0.20775  1.0000
  H   H7        1.0  0.09214  0.15482  0.34208  1.0000
  H   H8        1.0  0.17500  0.02611  0.20839  1.0000
  H   H9        1.0  0.25463  0.02585  0.20853  1.0000
  H   H10       1.0  0.31919  0.06825  0.28725  1.0000
  H   H11       1.0  0.39881  0.06778  0.28827  1.0000
  H   H12       1.0  0.98039  0.17775  0.20852  1.0000
  H   H13       1.0  0.98021  0.25740  0.20781  1.0000
  H   H14       1.0  0.93744  0.40165  0.28907  1.0000
  H   H15       1.0  0.93744  0.32203  0.28838  1.0000
  H   H16       1.0  0.06748  0.68844  0.28589  1.0000
  H   H17       1.0  0.06816  0.60879  0.28630  1.0000
  C   C19       1.0  0.00399  0.55259  0.34203  1.0000
  C   C20       1.0  0.00252  0.52877  0.25881  1.0000
  C   C21       1.0  0.00575  0.48123  0.25880  1.0000
  C   C22       1.0  0.00264  0.45734  0.34173  1.0000
  C   C23       1.0  0.01217  0.45553  0.17290  1.0000
  H   H18       1.0  0.02186  0.47570  0.11541  1.0000
  H   H19       1.0  0.98145  0.43831  0.15531  1.0000
  H   H20       1.0  0.03871  0.43101  0.18103  1.0000
  C   C24       1.0  0.99580  0.55283  0.17123  1.0000
  H   H21       1.0  0.98447  0.58709  0.17823  1.0000
  H   H22       1.0  0.97026  0.53617  0.13136  1.0000
  H   H23       1.0  0.02693  0.55333  0.13345  1.0000
  C   C25       1.0  0.47799  0.00122  0.26107  1.0000
  C   C26       1.0  0.52550  0.00450  0.26101  1.0000
  C   C27       1.0  0.55117  0.01080  0.17501  1.0000
  H   H24       1.0  0.53093  0.02020  0.11737  1.0000
  H   H25       1.0  0.56863  0.98011  0.15781  1.0000
  H   H26       1.0  0.57548  0.03750  0.18282  1.0000
  C   C28       1.0  0.45391  0.99430  0.17357  1.0000
  H   H27       1.0  0.41969  0.98297  0.18075  1.0000
  H   H28       1.0  0.47064  0.96867  0.13390  1.0000
  H   H29       1.0  0.45332  0.02536  0.13551  1.0000
  C   C29       1.0  0.88648  0.08783  0.34353  1.0000
  C   C30       1.0  0.91895  0.12029  0.34441  1.0000
  C   C31       1.0  0.96059  0.09952  0.34382  1.0000
  N   N1        1.0  0.95156  0.05520  0.34409  1.0000
  C   C32       1.0  0.90723  0.04618  0.34419  1.0000
  C   C33       1.0  0.88441  0.00454  0.34412  1.0000
  C   C34       1.0  0.90624  0.96243  0.34411  1.0000
  N   N2        1.0  0.95048  0.95364  0.34406  1.0000
  C   C35       1.0  0.95926  0.90939  0.34414  1.0000
  C   C36       1.0  0.91780  0.88845  0.34379  1.0000
  C   C37       1.0  0.88530  0.92095  0.34483  1.0000
  C   C38       1.0  0.00137  0.88757  0.34381  1.0000
  C   C39       1.0  0.04301  0.91038  0.34366  1.0000
  N   N3        1.0  0.05202  0.95471  0.34376  1.0000
  C   C40       1.0  0.09635  0.96371  0.34381  1.0000
  C   C41       1.0  0.11711  0.92207  0.34325  1.0000
  C   C42       1.0  0.08464  0.88961  0.34423  1.0000
  C   C43       1.0  0.11918  0.00534  0.34359  1.0000
  N   N4        1.0  0.05312  0.05625  0.34376  1.0000
  C   C44       1.0  0.04435  0.10050  0.34378  1.0000
  C   C45       1.0  0.08583  0.12142  0.34290  1.0000
  C   C46       1.0  0.11833  0.08891  0.34380  1.0000
  C   C47       1.0  0.00225  0.12233  0.34380  1.0000
  C   C48       1.0  0.00192  0.17020  0.34358  1.0000
  C   C49       1.0  0.01450  0.19463  0.42083  1.0000
  C   C50       1.0  0.01511  0.24156  0.41995  1.0000
  C   C51       1.0  0.00225  0.26589  0.34254  1.0000
  C   C52       1.0  0.00246  0.31365  0.34199  1.0000
  C   C53       1.0  0.04000  0.38501  0.37216  1.0000
  C   C54       1.0  0.03966  0.33806  0.37342  1.0000
  C   C55       1.0  0.16703  0.00493  0.34358  1.0000
  C   C56       1.0  0.19121  0.99248  0.42126  1.0000
  C   C57       1.0  0.23814  0.99166  0.42091  1.0000
  C   C58       1.0  0.26273  0.00421  0.34365  1.0000
  C   C59       1.0  0.31051  0.00386  0.34372  1.0000
  C   C60       1.0  0.33477  0.96686  0.37685  1.0000
  C   C61       1.0  0.38171  0.96632  0.37620  1.0000
  C   C62       1.0  0.40624  0.00325  0.34429  1.0000
  C   C63       1.0  0.00178  0.83971  0.34348  1.0000
  C   C64       1.0  0.00262  0.74401  0.34280  1.0000
  C   C65       1.0  0.98966  0.76828  0.42025  1.0000
  C   C66       1.0  0.98970  0.81522  0.42096  1.0000
  C   C67       1.0  0.00299  0.69624  0.34248  1.0000
  C   C68       1.0  0.96635  0.67148  0.37544  1.0000
  C   C69       1.0  0.96649  0.62454  0.37442  1.0000
  C   C70       1.0  0.00375  0.60051  0.34224  1.0000
  C   C71       1.0  0.83654  0.00488  0.34378  1.0000
  C   C72       1.0  0.81216  0.01730  0.42122  1.0000
  C   C73       1.0  0.76521  0.01751  0.42077  1.0000
  C   C74       1.0  0.74085  0.00432  0.34366  1.0000
  C   C75       1.0  0.69309  0.00369  0.34372  1.0000
  C   C76       1.0  0.59739  0.00234  0.34356  1.0000
  C   C77       1.0  0.62108  0.04000  0.37451  1.0000
  C   C78       1.0  0.66803  0.04045  0.37549  1.0000
  H   H30       1.0  0.60420  0.06743  0.39709  1.0000
  H   H31       1.0  0.68385  0.06850  0.39785  1.0000
  H   H32       1.0  0.74888  0.02635  0.47851  1.0000
  H   H33       1.0  0.82854  0.02638  0.47876  1.0000
  H   H34       1.0  0.85310  0.09434  0.34289  1.0000
  H   H35       1.0  0.91247  0.15368  0.34499  1.0000
  H   H36       1.0  0.97419  0.03257  0.34415  1.0000
  H   H37       1.0  0.02940  0.97734  0.34370  1.0000
  H   H38       1.0  0.85190  0.91465  0.34563  1.0000
  H   H39       1.0  0.91151  0.85504  0.34321  1.0000
  H   H40       1.0  0.98062  0.83151  0.47862  1.0000
  H   H41       1.0  0.98098  0.75188  0.47799  1.0000
  H   H42       1.0  0.09115  0.85623  0.34493  1.0000
  H   H43       1.0  0.15049  0.91556  0.34253  1.0000
  H   H44       1.0  0.15174  0.09519  0.34420  1.0000
  H   H45       1.0  0.17468  0.98367  0.47880  1.0000
  H   H46       1.0  0.25431  0.98272  0.47878  1.0000
  H   H47       1.0  0.39797  0.93873  0.39976  1.0000
  H   H48       1.0  0.31835  0.93935  0.40014  1.0000
  H   H49       1.0  0.06744  0.32175  0.39591  1.0000
  H   H50       1.0  0.06769  0.40141  0.39467  1.0000
  H   H51       1.0  0.02426  0.25792  0.47744  1.0000
  H   H52       1.0  0.02366  0.17828  0.47838  1.0000
  H   H53       1.0  0.93860  0.68752  0.39886  1.0000
  H   H54       1.0  0.93913  0.60791  0.39789  1.0000
  C   C79       1.0  0.00101  0.48115  0.42488  1.0000
  C   C80       1.0  0.00537  0.52860  0.42506  1.0000
  C   C81       1.0  0.99457  0.45715  0.51274  1.0000
  H   H55       1.0  0.98546  0.42226  0.50616  1.0000
  H   H56       1.0  0.96761  0.47256  0.55082  1.0000
  H   H57       1.0  0.02508  0.45858  0.55238  1.0000
  C   C82       1.0  0.01164  0.55237  0.51325  1.0000
  H   H58       1.0  0.02092  0.58724  0.50711  1.0000
  H   H59       1.0  0.03846  0.53680  0.55148  1.0000
  H   H60       1.0  0.98102  0.55094  0.55255  1.0000
  C   C83       1.0  0.45417  0.00286  0.34425  1.0000
  C   C84       1.0  0.54942  0.00163  0.34395  1.0000
  C   C85       1.0  0.52562  0.99982  0.42709  1.0000
  C   C86       1.0  0.47814  0.00410  0.42730  1.0000
  C   C87       1.0  0.54967  0.99331  0.51489  1.0000
  H   H61       1.0  0.58460  0.98429  0.50817  1.0000
  H   H62       1.0  0.53441  0.96626  0.55282  1.0000
  H   H63       1.0  0.54812  0.02377  0.55471  1.0000
  C   C88       1.0  0.45438  0.01020  0.51556  1.0000
  H   H64       1.0  0.41946  0.01939  0.50958  1.0000
  H   H65       1.0  0.46983  0.03700  0.55391  1.0000
  H   H66       1.0  0.45598  0.97953  0.55469  1.0000
