data_image0
_chemical_formula_structural       SiC12H9C6HC2NHNO2NH2NO2C12H6CHCO4CNC3H2NO2NHC2NC8NH3NO2NHNHSiC12H9C6HC2NHNO2NH2NO2C12H6CHCO4CNC3H2NO2NHC2NC8NH3NO2NHNHSiC12H9C6HC2NHNO2NH2NO2C12H6CHCO4CNC3H2NO2NHC2NC8NH3NO2NHNHSiC12H9C6HC2NHNO2NH2NO2C12H6CHCO4CNC3H2NO2NHC2NC8NH3NO2NHNH
_chemical_formula_sum              "Si4 C192 H112 N48 O48"
_cell_length_a       37.691
_cell_length_b       37.6892
_cell_length_c       15.008
_cell_angle_alpha    90
_cell_angle_beta     90
_cell_angle_gamma    90.1857

_space_group_name_H-M_alt    "P 1"
_space_group_IT_number       1

loop_
  _space_group_symop_operation_xyz
  'x, y, z'

loop_
  _atom_site_type_symbol
  _atom_site_label
  _atom_site_symmetry_multiplicity
  _atom_site_fract_x
  _atom_site_fract_y
  _atom_site_fract_z
  _atom_site_occupancy
  Si  Si1       1.0  0.49551  0.50599  0.06706  1.0000
  C   C1        1.0  0.48757  0.47093  0.13164  1.0000
  C   C2        1.0  0.00501  0.03609  0.14482  1.0000
  C   C3        1.0  0.47725  0.04944  0.19868  1.0000
  C   C4        1.0  0.48429  0.06571  0.28117  1.0000
  C   C5        1.0  0.01930  0.06857  0.31506  1.0000
  C   C6        1.0  0.04700  0.05539  0.26063  1.0000
  C   C7        1.0  0.04009  0.03945  0.17768  1.0000
  C   C8        1.0  0.01639  0.45439  0.17553  1.0000
  C   C9        1.0  0.01081  0.42673  0.23639  1.0000
  C   C10       1.0  0.47622  0.41437  0.25575  1.0000
  C   C11       1.0  0.44724  0.43223  0.21634  1.0000
  C   C12       1.0  0.45281  0.46027  0.15585  1.0000
  H   H1        1.0  0.46303  0.07437  0.31719  1.0000
  H   H2        1.0  0.45122  0.04590  0.18097  1.0000
  H   H3        1.0  0.07277  0.05609  0.28206  1.0000
  H   H4        1.0  0.06106  0.02829  0.14483  1.0000
  H   H5        1.0  0.04208  0.46194  0.16347  1.0000
  H   H6        1.0  0.03254  0.41539  0.26568  1.0000
  H   H7        1.0  0.42176  0.42423  0.22897  1.0000
  H   H8        1.0  0.43101  0.47263  0.12990  1.0000
  H   H9        1.0  0.46479  0.07254  0.01337  1.0000
  C   C13       1.0  0.02717  0.08495  0.39924  1.0000
  C   C14       1.0  0.47117  0.38319  0.30792  1.0000
  C   C15       1.0  0.48534  0.32137  0.32415  1.0000
  C   C16       1.0  0.48285  0.24951  0.37369  1.0000
  C   C17       1.0  0.47906  0.25865  0.28236  1.0000
  C   C18       1.0  0.48077  0.29486  0.25892  1.0000
  H   H10       1.0  0.97972  0.30188  0.19306  1.0000
  C   C19       1.0  0.48794  0.21403  0.40128  1.0000
  C   C20       1.0  0.01860  0.16031  0.36698  1.0000
  N   N1        1.0  0.01138  0.19483  0.35273  1.0000
  H   H11       1.0  0.03539  0.14822  0.32326  1.0000
  N   N2        1.0  0.47413  0.23209  0.21663  1.0000
  O   O1        1.0  0.99877  0.23236  0.16018  1.0000
  O   O2        1.0  0.44514  0.23597  0.17648  1.0000
  N   N3        1.0  0.99322  0.35494  0.29757  1.0000
  H   H12       1.0  0.01173  0.35650  0.25223  1.0000
  H   H13       1.0  0.15644  0.02553  0.27080  1.0000
  N   N4        1.0  0.22297  0.52820  0.20630  1.0000
  O   O3        1.0  0.21580  0.06066  0.20097  1.0000
  O   O4        1.0  0.20915  0.51252  0.14101  1.0000
  C   C21       1.0  0.08085  0.48530  0.52735  1.0000
  C   C22       1.0  0.05979  0.45739  0.56213  1.0000
  C   C23       1.0  0.03383  0.46368  0.62731  1.0000
  C   C24       1.0  0.02813  0.49818  0.66164  1.0000
  C   C25       1.0  0.04750  0.02649  0.62305  1.0000
  C   C26       1.0  0.07389  0.02005  0.55871  1.0000
  C   C27       1.0  0.46226  0.01629  0.66581  1.0000
  C   C28       1.0  0.45306  0.05189  0.64683  1.0000
  C   C29       1.0  0.42797  0.05992  0.58030  1.0000
  C   C30       1.0  0.41248  0.03286  0.52764  1.0000
  C   C31       1.0  0.42204  0.49736  0.54588  1.0000
  C   C32       1.0  0.44669  0.48928  0.61293  1.0000
  H   H14       1.0  0.45305  0.46313  0.62210  1.0000
  H   H15       1.0  0.41058  0.47673  0.51204  1.0000
  H   H16       1.0  0.42174  0.08596  0.56907  1.0000
  H   H17       1.0  0.04346  0.05215  0.64312  1.0000
  H   H18       1.0  0.01928  0.44241  0.64914  1.0000
  H   H19       1.0  0.06336  0.43180  0.54115  1.0000
  C   C33       1.0  0.38550  0.04083  0.46433  1.0000
  H   H20       1.0  0.08875  0.04117  0.53772  1.0000
  C   C34       1.0  0.11020  0.47750  0.47030  1.0000
  O   O5        1.0  0.44048  0.37928  0.35395  1.0000
  O   O6        1.0  0.06129  0.09489  0.41382  1.0000
  O   O7        1.0  0.36099  0.06483  0.49095  1.0000
  O   O8        1.0  0.12267  0.44378  0.47046  1.0000
  C   C35       1.0  0.48723  0.31088  0.41413  1.0000
  N   N5        1.0  0.48677  0.27584  0.43504  1.0000
  C   C36       1.0  0.47028  0.19740  0.47345  1.0000
  C   C37       1.0  0.47669  0.16078  0.48813  1.0000
  C   C38       1.0  0.50065  0.14124  0.43465  1.0000
  H   H21       1.0  0.46295  0.14797  0.53747  1.0000
  H   H22       1.0  0.49208  0.32907  0.46317  1.0000
  N   N6        1.0  0.44568  0.21685  0.52496  1.0000
  O   O9        1.0  0.45461  0.21735  0.60561  1.0000
  O   O10       1.0  0.41503  0.20384  0.51918  1.0000
  N   N7        1.0  0.50276  0.10484  0.44331  1.0000
  H   H23       1.0  0.47995  0.09335  0.45381  1.0000
  C   C39       1.0  0.16275  0.49869  0.39325  1.0000
  C   C40       1.0  0.18887  0.48397  0.44956  1.0000
  N   N8        1.0  0.22335  0.48457  0.42538  1.0000
  C   C41       1.0  0.23553  0.49790  0.34707  1.0000
  C   C42       1.0  0.21089  0.51366  0.28773  1.0000
  C   C43       1.0  0.17452  0.51387  0.31229  1.0000
  C   C44       1.0  0.27291  0.49989  0.33853  1.0000
  C   C45       1.0  0.29563  0.47156  0.36315  1.0000
  C   C46       1.0  0.33225  0.47885  0.37330  1.0000
  C   C47       1.0  0.34591  0.51350  0.36212  1.0000
  C   C48       1.0  0.32235  0.03997  0.33232  1.0000
  N   N9        1.0  0.28729  0.03256  0.32430  1.0000
  H   H24       1.0  0.34859  0.45918  0.39608  1.0000
  H   H25       1.0  0.33082  0.06553  0.32385  1.0000
  H   H26       1.0  0.18269  0.47471  0.51162  1.0000
  N   N10       1.0  0.28148  0.43733  0.37955  1.0000
  O   O11       1.0  0.28695  0.42768  0.45854  1.0000
  O   O12       1.0  0.29474  0.41469  0.32801  1.0000
  N   N11       1.0  0.37979  0.52087  0.38958  1.0000
  H   H27       1.0  0.39749  0.50303  0.37464  1.0000
  N   N12       1.0  0.12825  0.00214  0.42132  1.0000
  H   H28       1.0  0.11690  0.02481  0.40931  1.0000
  Si  Si2       1.0  0.49551  0.00600  0.06706  1.0000
  C   C49       1.0  0.48757  0.97093  0.13164  1.0000
  C   C50       1.0  0.00501  0.53609  0.14482  1.0000
  C   C51       1.0  0.47725  0.54944  0.19868  1.0000
  C   C52       1.0  0.48429  0.56571  0.28117  1.0000
  C   C53       1.0  0.01930  0.56857  0.31506  1.0000
  C   C54       1.0  0.04700  0.55539  0.26063  1.0000
  C   C55       1.0  0.04009  0.53945  0.17768  1.0000
  C   C56       1.0  0.01639  0.95439  0.17553  1.0000
  C   C57       1.0  0.01081  0.92673  0.23639  1.0000
  C   C58       1.0  0.47622  0.91437  0.25575  1.0000
  C   C59       1.0  0.44724  0.93223  0.21634  1.0000
  C   C60       1.0  0.45281  0.96027  0.15585  1.0000
  H   H29       1.0  0.46303  0.57437  0.31719  1.0000
  H   H30       1.0  0.45122  0.54590  0.18097  1.0000
  H   H31       1.0  0.07277  0.55609  0.28206  1.0000
  H   H32       1.0  0.06106  0.52829  0.14483  1.0000
  H   H33       1.0  0.04208  0.96194  0.16347  1.0000
  H   H34       1.0  0.03254  0.91539  0.26567  1.0000
  H   H35       1.0  0.42176  0.92424  0.22897  1.0000
  H   H36       1.0  0.43100  0.97263  0.12990  1.0000
  H   H37       1.0  0.46479  0.57254  0.01337  1.0000
  C   C61       1.0  0.02717  0.58495  0.39924  1.0000
  C   C62       1.0  0.47117  0.88319  0.30792  1.0000
  C   C63       1.0  0.48534  0.82137  0.32415  1.0000
  C   C64       1.0  0.48286  0.74951  0.37369  1.0000
  C   C65       1.0  0.47905  0.75865  0.28236  1.0000
  C   C66       1.0  0.48077  0.79486  0.25892  1.0000
  H   H38       1.0  0.97973  0.80188  0.19306  1.0000
  C   C67       1.0  0.48794  0.71402  0.40128  1.0000
  C   C68       1.0  0.01860  0.66031  0.36698  1.0000
  N   N13       1.0  0.01138  0.69483  0.35273  1.0000
  H   H39       1.0  0.03539  0.64822  0.32327  1.0000
  N   N14       1.0  0.47413  0.73209  0.21663  1.0000
  O   O13       1.0  0.99877  0.73236  0.16018  1.0000
  O   O14       1.0  0.44514  0.73596  0.17648  1.0000
  N   N15       1.0  0.99322  0.85494  0.29757  1.0000
  H   H40       1.0  0.01173  0.85650  0.25223  1.0000
  H   H41       1.0  0.15644  0.52553  0.27080  1.0000
  N   N16       1.0  0.22297  0.02820  0.20630  1.0000
  O   O15       1.0  0.21580  0.56066  0.20097  1.0000
  O   O16       1.0  0.20915  0.01252  0.14101  1.0000
  C   C69       1.0  0.08085  0.98530  0.52735  1.0000
  C   C70       1.0  0.05979  0.95739  0.56212  1.0000
  C   C71       1.0  0.03383  0.96368  0.62731  1.0000
  C   C72       1.0  0.02813  0.99818  0.66164  1.0000
  C   C73       1.0  0.04750  0.52649  0.62305  1.0000
  C   C74       1.0  0.07389  0.52005  0.55871  1.0000
  C   C75       1.0  0.46226  0.51629  0.66581  1.0000
  C   C76       1.0  0.45306  0.55189  0.64683  1.0000
  C   C77       1.0  0.42797  0.55992  0.58030  1.0000
  C   C78       1.0  0.41248  0.53287  0.52764  1.0000
  C   C79       1.0  0.42204  0.99736  0.54588  1.0000
  C   C80       1.0  0.44669  0.98927  0.61293  1.0000
  H   H42       1.0  0.45306  0.96313  0.62211  1.0000
  H   H43       1.0  0.41058  0.97673  0.51204  1.0000
  H   H44       1.0  0.42174  0.58596  0.56907  1.0000
  H   H45       1.0  0.04346  0.55214  0.64312  1.0000
  H   H46       1.0  0.01928  0.94241  0.64914  1.0000
  H   H47       1.0  0.06336  0.93180  0.54115  1.0000
  C   C81       1.0  0.38550  0.54082  0.46433  1.0000
  H   H48       1.0  0.08875  0.54117  0.53772  1.0000
  C   C82       1.0  0.11020  0.97750  0.47030  1.0000
  O   O17       1.0  0.44047  0.87928  0.35395  1.0000
  O   O18       1.0  0.06129  0.59489  0.41382  1.0000
  O   O19       1.0  0.36099  0.56483  0.49095  1.0000
  O   O20       1.0  0.12267  0.94378  0.47046  1.0000
  C   C83       1.0  0.48723  0.81088  0.41413  1.0000
  N   N17       1.0  0.48677  0.77584  0.43504  1.0000
  C   C84       1.0  0.47028  0.69740  0.47345  1.0000
  C   C85       1.0  0.47669  0.66078  0.48813  1.0000
  C   C86       1.0  0.50065  0.64124  0.43465  1.0000
  H   H49       1.0  0.46295  0.64797  0.53747  1.0000
  H   H50       1.0  0.49208  0.82907  0.46317  1.0000
  N   N18       1.0  0.44568  0.71685  0.52496  1.0000
  O   O21       1.0  0.45461  0.71735  0.60561  1.0000
  O   O22       1.0  0.41503  0.70384  0.51918  1.0000
  N   N19       1.0  0.50276  0.60484  0.44331  1.0000
  H   H51       1.0  0.47995  0.59335  0.45381  1.0000
  C   C87       1.0  0.16275  0.99869  0.39325  1.0000
  C   C88       1.0  0.18887  0.98397  0.44956  1.0000
  N   N20       1.0  0.22335  0.98457  0.42538  1.0000
  C   C89       1.0  0.23553  0.99790  0.34707  1.0000
  C   C90       1.0  0.21089  0.01366  0.28773  1.0000
  C   C91       1.0  0.17452  0.01387  0.31229  1.0000
  C   C92       1.0  0.27291  0.99989  0.33853  1.0000
  C   C93       1.0  0.29563  0.97157  0.36315  1.0000
  C   C94       1.0  0.33225  0.97884  0.37330  1.0000
  C   C95       1.0  0.34591  0.01350  0.36212  1.0000
  C   C96       1.0  0.32235  0.53997  0.33232  1.0000
  N   N21       1.0  0.28729  0.53256  0.32430  1.0000
  H   H52       1.0  0.34859  0.95918  0.39608  1.0000
  H   H53       1.0  0.33082  0.56553  0.32385  1.0000
  H   H54       1.0  0.18268  0.97471  0.51162  1.0000
  N   N22       1.0  0.28148  0.93733  0.37955  1.0000
  O   O23       1.0  0.28695  0.92768  0.45854  1.0000
  O   O24       1.0  0.29474  0.91469  0.32801  1.0000
  N   N23       1.0  0.37979  0.02087  0.38958  1.0000
  H   H55       1.0  0.39749  0.00303  0.37464  1.0000
  N   N24       1.0  0.12825  0.50214  0.42132  1.0000
  H   H56       1.0  0.11690  0.52481  0.40932  1.0000
  Si  Si3       1.0  0.99551  0.50599  0.06706  1.0000
  C   C97       1.0  0.98757  0.47093  0.13164  1.0000
  C   C98       1.0  0.50501  0.03609  0.14482  1.0000
  C   C99       1.0  0.97725  0.04944  0.19868  1.0000
  C   C100      1.0  0.98429  0.06571  0.28117  1.0000
  C   C101      1.0  0.51931  0.06857  0.31506  1.0000
  C   C102      1.0  0.54700  0.05539  0.26063  1.0000
  C   C103      1.0  0.54009  0.03945  0.17768  1.0000
  C   C104      1.0  0.51639  0.45439  0.17553  1.0000
  C   C105      1.0  0.51082  0.42673  0.23639  1.0000
  C   C106      1.0  0.97622  0.41437  0.25575  1.0000
  C   C107      1.0  0.94724  0.43223  0.21634  1.0000
  C   C108      1.0  0.95281  0.46027  0.15585  1.0000
  H   H57       1.0  0.96303  0.07437  0.31719  1.0000
  H   H58       1.0  0.95122  0.04590  0.18097  1.0000
  H   H59       1.0  0.57277  0.05609  0.28206  1.0000
  H   H60       1.0  0.56106  0.02829  0.14483  1.0000
  H   H61       1.0  0.54207  0.46194  0.16347  1.0000
  H   H62       1.0  0.53254  0.41539  0.26568  1.0000
  H   H63       1.0  0.92175  0.42423  0.22897  1.0000
  H   H64       1.0  0.93101  0.47263  0.12990  1.0000
  H   H65       1.0  0.96479  0.07254  0.01337  1.0000
  C   C109      1.0  0.52717  0.08495  0.39924  1.0000
  C   C110      1.0  0.97117  0.38319  0.30792  1.0000
  C   C111      1.0  0.98534  0.32137  0.32415  1.0000
  C   C112      1.0  0.98286  0.24951  0.37369  1.0000
  C   C113      1.0  0.97906  0.25865  0.28236  1.0000
  C   C114      1.0  0.98077  0.29486  0.25892  1.0000
  H   H66       1.0  0.47972  0.30188  0.19306  1.0000
  C   C115      1.0  0.98794  0.21403  0.40128  1.0000
  C   C116      1.0  0.51860  0.16031  0.36698  1.0000
  N   N25       1.0  0.51138  0.19483  0.35273  1.0000
  H   H67       1.0  0.53539  0.14822  0.32326  1.0000
  N   N26       1.0  0.97413  0.23209  0.21663  1.0000
  O   O25       1.0  0.49877  0.23236  0.16018  1.0000
  O   O26       1.0  0.94514  0.23597  0.17648  1.0000
  N   N27       1.0  0.49322  0.35494  0.29757  1.0000
  H   H68       1.0  0.51173  0.35650  0.25223  1.0000
  H   H69       1.0  0.65644  0.02553  0.27080  1.0000
  N   N28       1.0  0.72297  0.52820  0.20630  1.0000
  O   O27       1.0  0.71580  0.06066  0.20097  1.0000
  O   O28       1.0  0.70915  0.51252  0.14101  1.0000
  C   C117      1.0  0.58085  0.48530  0.52735  1.0000
  C   C118      1.0  0.55979  0.45739  0.56213  1.0000
  C   C119      1.0  0.53383  0.46368  0.62731  1.0000
  C   C120      1.0  0.52813  0.49818  0.66164  1.0000
  C   C121      1.0  0.54750  0.02649  0.62305  1.0000
  C   C122      1.0  0.57389  0.02005  0.55871  1.0000
  C   C123      1.0  0.96226  0.01629  0.66581  1.0000
  C   C124      1.0  0.95306  0.05189  0.64683  1.0000
  C   C125      1.0  0.92797  0.05992  0.58030  1.0000
  C   C126      1.0  0.91248  0.03286  0.52764  1.0000
  C   C127      1.0  0.92204  0.49736  0.54588  1.0000
  C   C128      1.0  0.94669  0.48928  0.61293  1.0000
  H   H70       1.0  0.95305  0.46313  0.62210  1.0000
  H   H71       1.0  0.91058  0.47673  0.51204  1.0000
  H   H72       1.0  0.92174  0.08596  0.56907  1.0000
  H   H73       1.0  0.54346  0.05215  0.64312  1.0000
  H   H74       1.0  0.51928  0.44241  0.64914  1.0000
  H   H75       1.0  0.56336  0.43180  0.54115  1.0000
  C   C129      1.0  0.88550  0.04083  0.46433  1.0000
  H   H76       1.0  0.58875  0.04117  0.53772  1.0000
  C   C130      1.0  0.61020  0.47750  0.47030  1.0000
  O   O29       1.0  0.94047  0.37928  0.35395  1.0000
  O   O30       1.0  0.56129  0.09489  0.41382  1.0000
  O   O31       1.0  0.86099  0.06483  0.49095  1.0000
  O   O32       1.0  0.62267  0.44378  0.47046  1.0000
  C   C131      1.0  0.98723  0.31088  0.41413  1.0000
  N   N29       1.0  0.98677  0.27584  0.43504  1.0000
  C   C132      1.0  0.97028  0.19740  0.47345  1.0000
  C   C133      1.0  0.97669  0.16078  0.48813  1.0000
  C   C134      1.0  0.00065  0.14124  0.43465  1.0000
  H   H77       1.0  0.96295  0.14797  0.53747  1.0000
  H   H78       1.0  0.99208  0.32907  0.46317  1.0000
  N   N30       1.0  0.94568  0.21685  0.52496  1.0000
  O   O33       1.0  0.95461  0.21735  0.60561  1.0000
  O   O34       1.0  0.91503  0.20384  0.51918  1.0000
  N   N31       1.0  0.00276  0.10484  0.44331  1.0000
  H   H79       1.0  0.97995  0.09335  0.45381  1.0000
  C   C135      1.0  0.66275  0.49869  0.39325  1.0000
  C   C136      1.0  0.68887  0.48397  0.44956  1.0000
  N   N32       1.0  0.72335  0.48457  0.42538  1.0000
  C   C137      1.0  0.73553  0.49790  0.34707  1.0000
  C   C138      1.0  0.71089  0.51366  0.28773  1.0000
  C   C139      1.0  0.67452  0.51387  0.31229  1.0000
  C   C140      1.0  0.77291  0.49989  0.33853  1.0000
  C   C141      1.0  0.79563  0.47156  0.36315  1.0000
  C   C142      1.0  0.83225  0.47885  0.37330  1.0000
  C   C143      1.0  0.84591  0.51350  0.36212  1.0000
  C   C144      1.0  0.82235  0.03997  0.33232  1.0000
  N   N33       1.0  0.78729  0.03256  0.32430  1.0000
  H   H80       1.0  0.84859  0.45918  0.39608  1.0000
  H   H81       1.0  0.83082  0.06553  0.32385  1.0000
  H   H82       1.0  0.68268  0.47471  0.51162  1.0000
  N   N34       1.0  0.78148  0.43733  0.37955  1.0000
  O   O35       1.0  0.78695  0.42768  0.45854  1.0000
  O   O36       1.0  0.79474  0.41469  0.32801  1.0000
  N   N35       1.0  0.87979  0.52087  0.38958  1.0000
  H   H83       1.0  0.89749  0.50303  0.37464  1.0000
  N   N36       1.0  0.62825  0.00214  0.42132  1.0000
  H   H84       1.0  0.61690  0.02481  0.40931  1.0000
  Si  Si4       1.0  0.99551  0.00600  0.06706  1.0000
  C   C145      1.0  0.98757  0.97093  0.13164  1.0000
  C   C146      1.0  0.50501  0.53609  0.14482  1.0000
  C   C147      1.0  0.97725  0.54944  0.19868  1.0000
  C   C148      1.0  0.98429  0.56571  0.28117  1.0000
  C   C149      1.0  0.51931  0.56857  0.31506  1.0000
  C   C150      1.0  0.54700  0.55539  0.26063  1.0000
  C   C151      1.0  0.54009  0.53945  0.17768  1.0000
  C   C152      1.0  0.51639  0.95439  0.17553  1.0000
  C   C153      1.0  0.51081  0.92673  0.23639  1.0000
  C   C154      1.0  0.97622  0.91437  0.25575  1.0000
  C   C155      1.0  0.94724  0.93223  0.21634  1.0000
  C   C156      1.0  0.95281  0.96027  0.15585  1.0000
  H   H85       1.0  0.96303  0.57437  0.31719  1.0000
  H   H86       1.0  0.95122  0.54590  0.18097  1.0000
  H   H87       1.0  0.57277  0.55609  0.28206  1.0000
  H   H88       1.0  0.56106  0.52829  0.14483  1.0000
  H   H89       1.0  0.54208  0.96194  0.16347  1.0000
  H   H90       1.0  0.53254  0.91539  0.26567  1.0000
  H   H91       1.0  0.92176  0.92424  0.22897  1.0000
  H   H92       1.0  0.93100  0.97263  0.12990  1.0000
  H   H93       1.0  0.96479  0.57254  0.01337  1.0000
  C   C157      1.0  0.52717  0.58495  0.39924  1.0000
  C   C158      1.0  0.97117  0.88319  0.30792  1.0000
  C   C159      1.0  0.98534  0.82137  0.32415  1.0000
  C   C160      1.0  0.98286  0.74951  0.37369  1.0000
  C   C161      1.0  0.97905  0.75865  0.28236  1.0000
  C   C162      1.0  0.98077  0.79486  0.25892  1.0000
  H   H94       1.0  0.47973  0.80188  0.19306  1.0000
  C   C163      1.0  0.98794  0.71402  0.40128  1.0000
  C   C164      1.0  0.51860  0.66031  0.36698  1.0000
  N   N37       1.0  0.51138  0.69483  0.35273  1.0000
  H   H95       1.0  0.53539  0.64822  0.32327  1.0000
  N   N38       1.0  0.97413  0.73209  0.21663  1.0000
  O   O37       1.0  0.49877  0.73236  0.16018  1.0000
  O   O38       1.0  0.94514  0.73596  0.17648  1.0000
  N   N39       1.0  0.49322  0.85494  0.29757  1.0000
  H   H96       1.0  0.51173  0.85650  0.25223  1.0000
  H   H97       1.0  0.65644  0.52553  0.27080  1.0000
  N   N40       1.0  0.72297  0.02820  0.20630  1.0000
  O   O39       1.0  0.71580  0.56066  0.20097  1.0000
  O   O40       1.0  0.70915  0.01252  0.14101  1.0000
  C   C165      1.0  0.58086  0.98530  0.52735  1.0000
  C   C166      1.0  0.55979  0.95739  0.56212  1.0000
  C   C167      1.0  0.53383  0.96368  0.62731  1.0000
  C   C168      1.0  0.52814  0.99818  0.66164  1.0000
  C   C169      1.0  0.54750  0.52649  0.62305  1.0000
  C   C170      1.0  0.57389  0.52005  0.55871  1.0000
  C   C171      1.0  0.96225  0.51629  0.66581  1.0000
  C   C172      1.0  0.95306  0.55189  0.64683  1.0000
  C   C173      1.0  0.92797  0.55992  0.58030  1.0000
  C   C174      1.0  0.91248  0.53287  0.52764  1.0000
  C   C175      1.0  0.92204  0.99736  0.54588  1.0000
  C   C176      1.0  0.94669  0.98927  0.61293  1.0000
  H   H98       1.0  0.95306  0.96313  0.62211  1.0000
  H   H99       1.0  0.91058  0.97673  0.51204  1.0000
  H   H100      1.0  0.92174  0.58596  0.56907  1.0000
  H   H101      1.0  0.54346  0.55214  0.64312  1.0000
  H   H102      1.0  0.51928  0.94241  0.64914  1.0000
  H   H103      1.0  0.56336  0.93180  0.54115  1.0000
  C   C177      1.0  0.88550  0.54082  0.46433  1.0000
  H   H104      1.0  0.58875  0.54117  0.53772  1.0000
  C   C178      1.0  0.61020  0.97750  0.47030  1.0000
  O   O41       1.0  0.94047  0.87928  0.35395  1.0000
  O   O42       1.0  0.56129  0.59489  0.41382  1.0000
  O   O43       1.0  0.86098  0.56483  0.49095  1.0000
  O   O44       1.0  0.62267  0.94378  0.47046  1.0000
  C   C179      1.0  0.98723  0.81088  0.41413  1.0000
  N   N41       1.0  0.98677  0.77584  0.43504  1.0000
  C   C180      1.0  0.97028  0.69740  0.47345  1.0000
  C   C181      1.0  0.97669  0.66078  0.48813  1.0000
  C   C182      1.0  0.00065  0.64124  0.43465  1.0000
  H   H105      1.0  0.96295  0.64797  0.53747  1.0000
  H   H106      1.0  0.99208  0.82907  0.46317  1.0000
  N   N42       1.0  0.94568  0.71685  0.52496  1.0000
  O   O45       1.0  0.95461  0.71735  0.60561  1.0000
  O   O46       1.0  0.91503  0.70384  0.51918  1.0000
  N   N43       1.0  0.00276  0.60484  0.44331  1.0000
  H   H107      1.0  0.97995  0.59335  0.45381  1.0000
  C   C183      1.0  0.66275  0.99869  0.39325  1.0000
  C   C184      1.0  0.68887  0.98397  0.44956  1.0000
  N   N44       1.0  0.72335  0.98457  0.42538  1.0000
  C   C185      1.0  0.73553  0.99790  0.34707  1.0000
  C   C186      1.0  0.71089  0.01366  0.28773  1.0000
  C   C187      1.0  0.67452  0.01387  0.31229  1.0000
  C   C188      1.0  0.77291  0.99989  0.33853  1.0000
  C   C189      1.0  0.79563  0.97157  0.36315  1.0000
  C   C190      1.0  0.83225  0.97884  0.37330  1.0000
  C   C191      1.0  0.84591  0.01350  0.36212  1.0000
  C   C192      1.0  0.82235  0.53997  0.33232  1.0000
  N   N45       1.0  0.78729  0.53256  0.32430  1.0000
  H   H108      1.0  0.84859  0.95918  0.39608  1.0000
  H   H109      1.0  0.83082  0.56553  0.32385  1.0000
  H   H110      1.0  0.68268  0.97471  0.51162  1.0000
  N   N46       1.0  0.78148  0.93733  0.37955  1.0000
  O   O47       1.0  0.78695  0.92768  0.45854  1.0000
  O   O48       1.0  0.79474  0.91469  0.32801  1.0000
  N   N47       1.0  0.87979  0.02087  0.38958  1.0000
  H   H111      1.0  0.89749  0.00303  0.37464  1.0000
  N   N48       1.0  0.62825  0.50214  0.42132  1.0000
  H   H112      1.0  0.61690  0.52481  0.40932  1.0000
