data_image0
_chemical_formula_structural       C17H12C17H12C2H2C2H2C2H2C13H9C13H9C4H2C4H2C4H2
_chemical_formula_sum              "C78 H54"
_cell_length_a       37.4096
_cell_length_b       37.3842
_cell_length_c       14.8819
_cell_angle_alpha    90
_cell_angle_beta     90
_cell_angle_gamma    120.036

_space_group_name_H-M_alt    "P 1"
_space_group_IT_number       1

loop_
  _space_group_symop_operation_xyz
  'x, y, z'

loop_
  _atom_site_type_symbol
  _atom_site_label
  _atom_site_symmetry_multiplicity
  _atom_site_fract_x
  _atom_site_fract_y
  _atom_site_fract_z
  _atom_site_occupancy
  C   C1        1.0  0.47250  0.89212  0.29479  1.0000
  C   C2        1.0  0.45033  0.84864  0.29906  1.0000
  C   C3        1.0  0.38751  0.75719  0.29359  1.0000
  C   C4        1.0  0.36382  0.71461  0.30315  1.0000
  C   C5        1.0  0.32025  0.69487  0.30617  1.0000
  C   C6        1.0  0.29540  0.65126  0.30612  1.0000
  C   C7        1.0  0.31527  0.62747  0.30191  1.0000
  C   C8        1.0  0.35881  0.64646  0.29983  1.0000
  C   C9        1.0  0.38274  0.69007  0.29949  1.0000
  C   C10       1.0  0.37751  0.62265  0.28929  1.0000
  C   C11       1.0  0.42245  0.59729  0.34373  1.0000
  C   C12       1.0  0.40623  0.55981  0.29481  1.0000
  C   C13       1.0  0.42734  0.53747  0.29070  1.0000
  C   C14       1.0  0.25252  0.63325  0.30161  1.0000
  C   C15       1.0  0.18267  0.58182  0.34064  1.0000
  C   C16       1.0  0.15773  0.53942  0.32001  1.0000
  C   C17       1.0  0.11442  0.52082  0.31659  1.0000
  H   H1        1.0  0.49950  0.90633  0.25903  1.0000
  H   H2        1.0  0.46215  0.83280  0.26628  1.0000
  H   H3        1.0  0.41426  0.70411  0.29410  1.0000
  H   H4        1.0  0.30639  0.71262  0.30579  1.0000
  H   H5        1.0  0.29782  0.59590  0.29796  1.0000
  H   H6        1.0  0.41417  0.51015  0.25601  1.0000
  H   H7        1.0  0.37834  0.54782  0.26290  1.0000
  H   H8        1.0  0.09749  0.48984  0.30320  1.0000
  H   H9        1.0  0.17090  0.52159  0.30767  1.0000
  H   H10       1.0  0.37253  0.60755  0.23149  1.0000
  H   H11       1.0  0.40205  0.76759  0.23527  1.0000
  H   H12       1.0  0.24147  0.64707  0.26231  1.0000
  C   C18       1.0  0.53966  0.11612  0.29410  1.0000
  C   C19       1.0  0.56183  0.15960  0.29812  1.0000
  C   C20       1.0  0.62468  0.25105  0.29200  1.0000
  C   C21       1.0  0.64831  0.29362  0.30147  1.0000
  C   C22       1.0  0.69190  0.31345  0.30276  1.0000
  C   C23       1.0  0.71650  0.35704  0.30323  1.0000
  C   C24       1.0  0.69662  0.38080  0.30100  1.0000
  C   C25       1.0  0.65306  0.36170  0.30005  1.0000
  C   C26       1.0  0.62924  0.31807  0.29943  1.0000
  C   C27       1.0  0.63428  0.38544  0.28990  1.0000
  C   C28       1.0  0.58931  0.41072  0.34445  1.0000
  C   C29       1.0  0.60557  0.44824  0.29566  1.0000
  C   C30       1.0  0.58443  0.47055  0.29142  1.0000
  C   C31       1.0  0.75921  0.37546  0.29621  1.0000
  C   C32       1.0  0.82908  0.42416  0.34422  1.0000
  C   C33       1.0  0.85367  0.46731  0.35729  1.0000
  C   C34       1.0  0.89706  0.48712  0.35375  1.0000
  H   H13       1.0  0.51259  0.10188  0.25858  1.0000
  H   H14       1.0  0.54998  0.17541  0.26529  1.0000
  H   H15       1.0  0.59768  0.30395  0.29494  1.0000
  H   H16       1.0  0.70592  0.29586  0.30078  1.0000
  H   H17       1.0  0.71409  0.41240  0.29742  1.0000
  H   H18       1.0  0.59761  0.49787  0.25677  1.0000
  H   H19       1.0  0.63350  0.46029  0.26392  1.0000
  H   H20       1.0  0.91364  0.51846  0.36280  1.0000
  H   H21       1.0  0.84016  0.48483  0.36962  1.0000
  H   H22       1.0  0.63920  0.40059  0.23215  1.0000
  H   H23       1.0  0.61016  0.24059  0.23367  1.0000
  H   H24       1.0  0.77004  0.36543  0.24706  1.0000
  C   C35       1.0  0.49557  0.51539  0.25520  1.0000
  C   C36       1.0  0.51618  0.49252  0.25531  1.0000
  H   H25       1.0  0.48872  0.52370  0.19487  1.0000
  H   H26       1.0  0.52309  0.48421  0.19505  1.0000
  C   C37       1.0  0.49452  0.98234  0.25989  1.0000
  C   C38       1.0  0.51738  0.02585  0.25977  1.0000
  H   H27       1.0  0.48615  0.96711  0.19963  1.0000
  H   H28       1.0  0.52561  0.04101  0.19941  1.0000
  C   C39       1.0  0.02619  0.49582  0.26655  1.0000
  C   C40       1.0  0.98277  0.47629  0.26724  1.0000
  H   H29       1.0  0.04013  0.48937  0.21486  1.0000
  H   H30       1.0  0.96669  0.45631  0.21616  1.0000
  C   C41       1.0  0.45894  0.91592  0.34226  1.0000
  C   C42       1.0  0.41328  0.82731  0.34932  1.0000
  C   C43       1.0  0.39968  0.85132  0.39610  1.0000
  C   C44       1.0  0.42217  0.89478  0.39303  1.0000
  C   C45       1.0  0.39091  0.78422  0.35741  1.0000
  C   C46       1.0  0.40191  0.61981  0.35198  1.0000
  C   C47       1.0  0.46035  0.61110  0.38943  1.0000
  C   C48       1.0  0.46497  0.55124  0.33719  1.0000
  C   C49       1.0  0.48111  0.58843  0.38664  1.0000
  C   C50       1.0  0.22530  0.59929  0.34705  1.0000
  C   C51       1.0  0.16299  0.60496  0.35864  1.0000
  C   C52       1.0  0.09443  0.54373  0.33482  1.0000
  C   C53       1.0  0.11966  0.58621  0.35567  1.0000
  H   H31       1.0  0.41124  0.91092  0.42796  1.0000
  H   H32       1.0  0.37321  0.83731  0.43376  1.0000
  H   H33       1.0  0.18005  0.63561  0.37517  1.0000
  H   H34       1.0  0.47321  0.63787  0.42616  1.0000
  H   H35       1.0  0.50840  0.59952  0.42081  1.0000
  H   H36       1.0  0.10669  0.60414  0.36851  1.0000
  H   H37       1.0  0.40654  0.63584  0.40857  1.0000
  H   H38       1.0  0.37540  0.77266  0.41452  1.0000
  H   H39       1.0  0.23580  0.58504  0.38644  1.0000
  C   C54       1.0  0.55322  0.09237  0.34175  1.0000
  C   C55       1.0  0.59893  0.18100  0.34819  1.0000
  C   C56       1.0  0.61255  0.15705  0.39511  1.0000
  C   C57       1.0  0.59005  0.11358  0.39232  1.0000
  C   C58       1.0  0.62129  0.22409  0.35602  1.0000
  C   C59       1.0  0.60986  0.38821  0.35267  1.0000
  C   C60       1.0  0.55135  0.39684  0.38992  1.0000
  C   C61       1.0  0.54672  0.45669  0.33761  1.0000
  C   C62       1.0  0.53055  0.41947  0.38699  1.0000
  C   C63       1.0  0.78621  0.40519  0.35162  1.0000
  C   C64       1.0  0.84947  0.40148  0.32812  1.0000
  C   C65       1.0  0.91753  0.46458  0.33707  1.0000
  C   C66       1.0  0.89287  0.42140  0.32393  1.0000
  H   H40       1.0  0.60101  0.09748  0.42734  1.0000
  H   H41       1.0  0.63906  0.17110  0.43263  1.0000
  H   H42       1.0  0.83291  0.37005  0.32068  1.0000
  H   H43       1.0  0.53847  0.37004  0.42654  1.0000
  H   H44       1.0  0.50321  0.40833  0.42097  1.0000
  H   H45       1.0  0.90637  0.40373  0.31382  1.0000
  H   H46       1.0  0.60523  0.37213  0.40919  1.0000
  H   H47       1.0  0.63679  0.23573  0.41311  1.0000
  H   H48       1.0  0.77508  0.41520  0.40024  1.0000
  C   C67       1.0  0.51562  0.49209  0.41839  1.0000
  C   C68       1.0  0.49593  0.51579  0.41828  1.0000
  C   C69       1.0  0.48540  0.52767  0.33672  1.0000
  C   C70       1.0  0.52625  0.48022  0.33693  1.0000
  H   H49       1.0  0.48867  0.52370  0.47864  1.0000
  H   H50       1.0  0.52279  0.48415  0.47881  1.0000
  C   C71       1.0  0.51802  0.02590  0.42284  1.0000
  C   C72       1.0  0.49437  0.98248  0.42297  1.0000
  C   C73       1.0  0.48238  0.95995  0.34152  1.0000
  C   C74       1.0  0.52977  0.04833  0.34127  1.0000
  H   H51       1.0  0.48660  0.96737  0.48341  1.0000
  H   H52       1.0  0.52596  0.04107  0.48320  1.0000
  C   C75       1.0  0.98569  0.51323  0.40325  1.0000
  C   C76       1.0  0.02907  0.53264  0.40269  1.0000
  C   C77       1.0  0.05028  0.52438  0.33433  1.0000
  C   C78       1.0  0.96165  0.48462  0.33560  1.0000
  H   H53       1.0  0.04501  0.55222  0.45444  1.0000
  H   H54       1.0  0.97172  0.51950  0.45520  1.0000
