data_image0
_chemical_formula_structural       C11H6C6H3C6N2C7H6NC7H6NC7H6NC5NH3CHC5NH3CHC5NH3CHC2NC3H3CHC2NC3H3CHC2NC3H3CHC7H6NC11H6C6H3C6N2C11H6C6H3C6N2C11H6C6H3C6N2C2NC3H3CHC2NC3H3CHC2NC3H3CHC5NH3CHC5NH3CHC5NH3CH
_chemical_formula_sum              "C192 H108 N24"
_cell_length_a       80.569
_cell_length_b       80.5748
_cell_length_c       15.0003
_cell_angle_alpha    90
_cell_angle_beta     90
_cell_angle_gamma    119.995

_space_group_name_H-M_alt    "P 1"
_space_group_IT_number       1

loop_
  _space_group_symop_operation_xyz
  'x, y, z'

loop_
  _atom_site_type_symbol
  _atom_site_label
  _atom_site_symmetry_multiplicity
  _atom_site_fract_x
  _atom_site_fract_y
  _atom_site_fract_z
  _atom_site_occupancy
  C   C1        1.0  0.06783  0.03191  0.33410  1.0000
  C   C2        1.0  0.95702  0.03486  0.33463  1.0000
  C   C3        1.0  0.95444  0.92145  0.33507  1.0000
  C   C4        1.0  0.93727  0.05582  0.33145  1.0000
  C   C5        1.0  0.95497  0.06276  0.28649  1.0000
  C   C6        1.0  0.96475  0.05237  0.28785  1.0000
  C   C7        1.0  0.09784  0.03158  0.35111  1.0000
  C   C8        1.0  0.07767  0.02182  0.35059  1.0000
  C   C9        1.0  0.93350  0.88077  0.33174  1.0000
  C   C10       1.0  0.92633  0.89152  0.28862  1.0000
  C   C11       1.0  0.93671  0.91168  0.29001  1.0000
  H   H1        1.0  0.96101  0.07553  0.25314  1.0000
  H   H2        1.0  0.97754  0.05778  0.25460  1.0000
  H   H3        1.0  0.07032  0.00738  0.36295  1.0000
  H   H4        1.0  0.10472  0.02404  0.36369  1.0000
  H   H5        1.0  0.91340  0.88479  0.25658  1.0000
  H   H6        1.0  0.93115  0.91906  0.25810  1.0000
  C   C12       1.0  0.98259  0.97591  0.33637  1.0000
  C   C13       1.0  0.00282  0.98568  0.33578  1.0000
  C   C14       1.0  0.01336  0.00591  0.33536  1.0000
  C   C15       1.0  0.00358  0.01638  0.33553  1.0000
  C   C16       1.0  0.98335  0.00669  0.33613  1.0000
  C   C17       1.0  0.97289  0.98645  0.33652  1.0000
  H   H7        1.0  0.01123  0.03111  0.33518  1.0000
  H   H8        1.0  0.00990  0.97803  0.33561  1.0000
  H   H9        1.0  0.95816  0.97936  0.33684  1.0000
  C   C18       1.0  0.96409  0.94012  0.33610  1.0000
  C   C19       1.0  0.97291  0.95724  0.33645  1.0000
  C   C20       1.0  0.96604  0.02521  0.33565  1.0000
  C   C21       1.0  0.97434  0.01637  0.33605  1.0000
  C   C22       1.0  0.03204  0.01486  0.33483  1.0000
  C   C23       1.0  0.04916  0.02298  0.33443  1.0000
  N   N1        1.0  0.92743  0.06503  0.33407  1.0000
  N   N2        1.0  0.92429  0.86173  0.33433  1.0000
  C   C24       1.0  0.48257  0.29578  0.28010  1.0000
  C   C25       1.0  0.49489  0.31575  0.28079  1.0000
  C   C26       1.0  0.34156  0.18287  0.34827  1.0000
  C   C27       1.0  0.32140  0.17244  0.34773  1.0000
  C   C28       1.0  0.31143  0.15244  0.33236  1.0000
  C   C29       1.0  0.46325  0.16262  0.29809  1.0000
  C   C30       1.0  0.47576  0.15516  0.29761  1.0000
  H   H10       1.0  0.50746  0.32143  0.24565  1.0000
  H   H11       1.0  0.34838  0.19735  0.35958  1.0000
  H   H12       1.0  0.31404  0.17959  0.35769  1.0000
  H   H13       1.0  0.45033  0.15520  0.26593  1.0000
  H   H14       1.0  0.47155  0.14246  0.26574  1.0000
  H   H15       1.0  0.48649  0.28744  0.24435  1.0000
  N   N3        1.0  0.29244  0.14215  0.32839  1.0000
  C   C31       1.0  0.69383  0.18683  0.28009  1.0000
  C   C32       1.0  0.67385  0.17920  0.28077  1.0000
  C   C33       1.0  0.80576  0.15776  0.35037  1.0000
  C   C34       1.0  0.81589  0.14773  0.34985  1.0000
  C   C35       1.0  0.83591  0.15747  0.33507  1.0000
  C   C36       1.0  0.82705  0.30045  0.29807  1.0000
  C   C37       1.0  0.83445  0.32041  0.29751  1.0000
  H   H16       1.0  0.66819  0.18609  0.24562  1.0000
  H   H17       1.0  0.79125  0.15029  0.36109  1.0000
  H   H18       1.0  0.80849  0.13321  0.35917  1.0000
  H   H19       1.0  0.83451  0.29499  0.26594  1.0000
  H   H20       1.0  0.84714  0.32893  0.26559  1.0000
  H   H21       1.0  0.70218  0.19908  0.24433  1.0000
  N   N4        1.0  0.84605  0.14861  0.33093  1.0000
  C   C38       1.0  0.80271  0.50668  0.28007  1.0000
  C   C39       1.0  0.81041  0.49439  0.28070  1.0000
  C   C40       1.0  0.83156  0.64747  0.34998  1.0000
  C   C41       1.0  0.84162  0.66763  0.34950  1.0000
  C   C42       1.0  0.83187  0.67792  0.33499  1.0000
  C   C43       1.0  0.68892  0.52625  0.29805  1.0000
  C   C44       1.0  0.66895  0.51373  0.29749  1.0000
  H   H22       1.0  0.80355  0.48183  0.24552  1.0000
  H   H23       1.0  0.83903  0.64042  0.36051  1.0000
  H   H24       1.0  0.85614  0.67474  0.35865  1.0000
  H   H25       1.0  0.69442  0.53916  0.26587  1.0000
  H   H26       1.0  0.66046  0.51793  0.26554  1.0000
  H   H27       1.0  0.79045  0.50274  0.24431  1.0000
  N   N5        1.0  0.84076  0.69693  0.33093  1.0000
  C   C45       1.0  0.25261  0.12552  0.27638  1.0000
  C   C46       1.0  0.23267  0.11465  0.26334  1.0000
  C   C47       1.0  0.19980  0.09923  0.32846  1.0000
  C   C48       1.0  0.15957  0.08115  0.30289  1.0000
  C   C49       1.0  0.17262  0.08840  0.23101  1.0000
  N   N6        1.0  0.19174  0.09699  0.24631  1.0000
  H   H28       1.0  0.16799  0.08760  0.16683  1.0000
  H   H29       1.0  0.26139  0.12956  0.22172  1.0000
  H   H30       1.0  0.22752  0.11093  0.19980  1.0000
  C   C50       1.0  0.14011  0.07348  0.28807  1.0000
  H   H31       1.0  0.13591  0.07842  0.23710  1.0000
  C   C51       1.0  0.86394  0.12687  0.27428  1.0000
  C   C52       1.0  0.87571  0.11880  0.26104  1.0000
  C   C53       1.0  0.89194  0.10197  0.32456  1.0000
  C   C54       1.0  0.91526  0.08515  0.29762  1.0000
  C   C55       1.0  0.90975  0.09293  0.22681  1.0000
  N   N7        1.0  0.89858  0.10079  0.24268  1.0000
  H   H32       1.0  0.91399  0.09277  0.16269  1.0000
  H   H33       1.0  0.86065  0.13253  0.22056  1.0000
  H   H34       1.0  0.88078  0.11897  0.19833  1.0000
  C   C56       1.0  0.92697  0.07738  0.28137  1.0000
  H   H35       1.0  0.93479  0.08112  0.22593  1.0000
  C   C57       1.0  0.86257  0.73651  0.27430  1.0000
  C   C58       1.0  0.87063  0.75636  0.26109  1.0000
  C   C59       1.0  0.88733  0.78938  0.32481  1.0000
  C   C60       1.0  0.90408  0.82950  0.29804  1.0000
  C   C61       1.0  0.89639  0.81624  0.22710  1.0000
  N   N8        1.0  0.88856  0.79721  0.24290  1.0000
  H   H36       1.0  0.89661  0.82066  0.16296  1.0000
  H   H37       1.0  0.85698  0.72758  0.22051  1.0000
  H   H38       1.0  0.87050  0.76126  0.19834  1.0000
  C   C62       1.0  0.91180  0.84896  0.28195  1.0000
  H   H39       1.0  0.90797  0.85306  0.22685  1.0000
  C   C63       1.0  0.52426  0.14446  0.31126  1.0000
  C   C64       1.0  0.55777  0.14171  0.33346  1.0000
  N   N9        1.0  0.55005  0.14110  0.25185  1.0000
  C   C65       1.0  0.53396  0.14213  0.23818  1.0000
  C   C66       1.0  0.58614  0.14210  0.26451  1.0000
  C   C67       1.0  0.60387  0.14291  0.27572  1.0000
  H   H40       1.0  0.58164  0.14259  0.20131  1.0000
  H   H41       1.0  0.61171  0.14385  0.22031  1.0000
  H   H42       1.0  0.52947  0.14184  0.17412  1.0000
  C   C68       1.0  0.50848  0.14664  0.29744  1.0000
  H   H43       1.0  0.49950  0.13951  0.24799  1.0000
  C   C69       1.0  0.84503  0.37957  0.31110  1.0000
  C   C70       1.0  0.84783  0.41585  0.33338  1.0000
  N   N10       1.0  0.84849  0.40877  0.25178  1.0000
  C   C71       1.0  0.84742  0.39163  0.23808  1.0000
  C   C72       1.0  0.84760  0.44390  0.26443  1.0000
  C   C73       1.0  0.84683  0.46084  0.27563  1.0000
  H   H44       1.0  0.84717  0.43895  0.20122  1.0000
  H   H45       1.0  0.84598  0.46780  0.22020  1.0000
  H   H46       1.0  0.84776  0.38745  0.17401  1.0000
  C   C74       1.0  0.84283  0.36160  0.29720  1.0000
  H   H47       1.0  0.85002  0.35978  0.24793  1.0000
  C   C75       1.0  0.60974  0.46524  0.31116  1.0000
  C   C76       1.0  0.57347  0.43176  0.33343  1.0000
  N   N11       1.0  0.58055  0.43949  0.25182  1.0000
  C   C77       1.0  0.59770  0.45557  0.23812  1.0000
  C   C78       1.0  0.54544  0.40344  0.26450  1.0000
  C   C79       1.0  0.52852  0.38573  0.27572  1.0000
  H   H48       1.0  0.55042  0.40795  0.20129  1.0000
  H   H49       1.0  0.52158  0.37790  0.22030  1.0000
  H   H50       1.0  0.60187  0.46008  0.17406  1.0000
  C   C80       1.0  0.62772  0.48100  0.29728  1.0000
  H   H51       1.0  0.62954  0.49003  0.24806  1.0000
  C   C81       1.0  0.93948  0.02796  0.38046  1.0000
  C   C82       1.0  0.92979  0.03844  0.37915  1.0000
  C   C83       1.0  0.07840  0.05184  0.31825  1.0000
  C   C84       1.0  0.09856  0.06150  0.31827  1.0000
  C   C85       1.0  0.10848  0.05142  0.33363  1.0000
  C   C86       1.0  0.96157  0.91081  0.37914  1.0000
  C   C87       1.0  0.95109  0.89065  0.37781  1.0000
  H   H52       1.0  0.91710  0.03319  0.41291  1.0000
  H   H53       1.0  0.07162  0.05954  0.30705  1.0000
  H   H54       1.0  0.10595  0.07599  0.30806  1.0000
  H   H55       1.0  0.97436  0.91756  0.41269  1.0000
  H   H56       1.0  0.95650  0.88321  0.41029  1.0000
  H   H57       1.0  0.93359  0.01533  0.41526  1.0000
  N   N12       1.0  0.12747  0.06006  0.33742  1.0000
  C   C88       1.0  0.35209  0.17344  0.33293  1.0000
  C   C89       1.0  0.46530  0.28747  0.32909  1.0000
  C   C90       1.0  0.46858  0.18012  0.34161  1.0000
  C   C91       1.0  0.49033  0.32778  0.33070  1.0000
  C   C92       1.0  0.47288  0.31940  0.37883  1.0000
  C   C93       1.0  0.46047  0.29942  0.37817  1.0000
  C   C94       1.0  0.32203  0.14317  0.31529  1.0000
  C   C95       1.0  0.34221  0.15352  0.31634  1.0000
  C   C96       1.0  0.49381  0.16507  0.34040  1.0000
  C   C97       1.0  0.49891  0.18242  0.38474  1.0000
  C   C98       1.0  0.48648  0.18996  0.38517  1.0000
  H   H58       1.0  0.46912  0.32772  0.41531  1.0000
  H   H59       1.0  0.44807  0.29373  0.41464  1.0000
  H   H60       1.0  0.34952  0.14637  0.30438  1.0000
  H   H61       1.0  0.31511  0.12876  0.30277  1.0000
  H   H62       1.0  0.51188  0.18987  0.41625  1.0000
  H   H63       1.0  0.49073  0.20272  0.41710  1.0000
  C   C99       1.0  0.43753  0.20333  0.33739  1.0000
  C   C100      1.0  0.41731  0.19264  0.33668  1.0000
  C   C101      1.0  0.40655  0.20210  0.33467  1.0000
  C   C102      1.0  0.41607  0.22234  0.33337  1.0000
  C   C103      1.0  0.43630  0.23310  0.33407  1.0000
  C   C104      1.0  0.44697  0.22355  0.33607  1.0000
  H   H64       1.0  0.40828  0.22926  0.33185  1.0000
  H   H65       1.0  0.41041  0.17792  0.33757  1.0000
  H   H66       1.0  0.46170  0.23136  0.33647  1.0000
  C   C105      1.0  0.45732  0.18738  0.34039  1.0000
  C   C106      1.0  0.44755  0.19469  0.33903  1.0000
  C   C107      1.0  0.45435  0.26889  0.33095  1.0000
  C   C108      1.0  0.44524  0.25178  0.33256  1.0000
  C   C109      1.0  0.38787  0.19218  0.33395  1.0000
  C   C110      1.0  0.37076  0.18313  0.33337  1.0000
  N   N13       1.0  0.50315  0.34637  0.32989  1.0000
  N   N14       1.0  0.50655  0.15920  0.34203  1.0000
  C   C111      1.0  0.81550  0.17774  0.33566  1.0000
  C   C112      1.0  0.70211  0.17785  0.32911  1.0000
  C   C113      1.0  0.80957  0.28825  0.34166  1.0000
  C   C114      1.0  0.66181  0.16262  0.33070  1.0000
  C   C115      1.0  0.67017  0.15354  0.37886  1.0000
  C   C116      1.0  0.69015  0.16109  0.37821  1.0000
  C   C117      1.0  0.84549  0.17738  0.31883  1.0000
  C   C118      1.0  0.83544  0.18751  0.31981  1.0000
  C   C119      1.0  0.82449  0.32850  0.34026  1.0000
  C   C120      1.0  0.80716  0.31622  0.38465  1.0000
  C   C121      1.0  0.79968  0.29626  0.38517  1.0000
  H   H67       1.0  0.66184  0.14146  0.41537  1.0000
  H   H68       1.0  0.69583  0.15436  0.41471  1.0000
  H   H69       1.0  0.84283  0.20199  0.30829  1.0000
  H   H70       1.0  0.85994  0.18470  0.30676  1.0000
  H   H71       1.0  0.79967  0.32170  0.41614  1.0000
  H   H72       1.0  0.78693  0.28773  0.41714  1.0000
  C   C122      1.0  0.78635  0.23399  0.33784  1.0000
  C   C123      1.0  0.79696  0.22437  0.33777  1.0000
  C   C124      1.0  0.78740  0.20413  0.33605  1.0000
  C   C125      1.0  0.76716  0.19352  0.33441  1.0000
  C   C126      1.0  0.75648  0.20307  0.33447  1.0000
  C   C127      1.0  0.76612  0.22330  0.33619  1.0000
  H   H73       1.0  0.76017  0.17880  0.33311  1.0000
  H   H74       1.0  0.81168  0.23212  0.33892  1.0000
  H   H75       1.0  0.75838  0.23028  0.33617  1.0000
  C   C128      1.0  0.80236  0.26973  0.34053  1.0000
  C   C129      1.0  0.79506  0.25266  0.33930  1.0000
  C   C130      1.0  0.72069  0.18546  0.33102  1.0000
  C   C131      1.0  0.73780  0.19341  0.33275  1.0000
  C   C132      1.0  0.79722  0.19527  0.33593  1.0000
  C   C133      1.0  0.80607  0.18700  0.33579  1.0000
  N   N15       1.0  0.64322  0.15687  0.32992  1.0000
  N   N16       1.0  0.83031  0.34711  0.34183  1.0000
  C   C134      1.0  0.81158  0.63726  0.33550  1.0000
  C   C135      1.0  0.81164  0.52394  0.32914  1.0000
  C   C136      1.0  0.70108  0.52092  0.34166  1.0000
  C   C137      1.0  0.82700  0.49898  0.33063  1.0000
  C   C138      1.0  0.83604  0.51641  0.37883  1.0000
  C   C139      1.0  0.82842  0.52879  0.37821  1.0000
  C   C140      1.0  0.81195  0.66762  0.31897  1.0000
  C   C141      1.0  0.80181  0.64745  0.31991  1.0000
  C   C142      1.0  0.66081  0.49568  0.34028  1.0000
  C   C143      1.0  0.67307  0.49059  0.38471  1.0000
  C   C144      1.0  0.69303  0.50302  0.38522  1.0000
  H   H76       1.0  0.84812  0.52019  0.41534  1.0000
  H   H77       1.0  0.83511  0.54119  0.41475  1.0000
  H   H78       1.0  0.78733  0.64037  0.30857  1.0000
  H   H79       1.0  0.80464  0.67476  0.30710  1.0000
  H   H80       1.0  0.66755  0.47762  0.41622  1.0000
  H   H81       1.0  0.70153  0.49877  0.41720  1.0000
  C   C145      1.0  0.75535  0.55188  0.33781  1.0000
  C   C146      1.0  0.76496  0.57211  0.33767  1.0000
  C   C147      1.0  0.78519  0.58279  0.33595  1.0000
  C   C148      1.0  0.79582  0.57318  0.33437  1.0000
  C   C149      1.0  0.78629  0.55296  0.33449  1.0000
  C   C150      1.0  0.76606  0.54236  0.33621  1.0000
  H   H82       1.0  0.81054  0.58092  0.33307  1.0000
  H   H83       1.0  0.75720  0.57907  0.33879  1.0000
  H   H84       1.0  0.75908  0.52763  0.33624  1.0000
  C   C151      1.0  0.71961  0.53219  0.34051  1.0000
  C   C152      1.0  0.73668  0.54192  0.33927  1.0000
  C   C153      1.0  0.80397  0.53485  0.33108  1.0000
  C   C154      1.0  0.79597  0.54396  0.33281  1.0000
  C   C155      1.0  0.79404  0.60147  0.33577  1.0000
  C   C156      1.0  0.80231  0.61859  0.33562  1.0000
  N   N17       1.0  0.83280  0.48618  0.32983  1.0000
  N   N18       1.0  0.64220  0.48293  0.34183  1.0000
  C   C157      1.0  0.26036  0.13127  0.36295  1.0000
  C   C158      1.0  0.22013  0.10934  0.33733  1.0000
  N   N19       1.0  0.22819  0.11509  0.41950  1.0000
  C   C159      1.0  0.24731  0.12552  0.43482  1.0000
  C   C160      1.0  0.18725  0.09204  0.40245  1.0000
  C   C161      1.0  0.16731  0.08307  0.38943  1.0000
  H   H85       1.0  0.19239  0.09342  0.46597  1.0000
  H   H86       1.0  0.15854  0.07836  0.44409  1.0000
  H   H87       1.0  0.25195  0.12933  0.49902  1.0000
  C   C162      1.0  0.27983  0.14298  0.37781  1.0000
  H   H88       1.0  0.28406  0.15209  0.42888  1.0000
  C   C163      1.0  0.85650  0.12686  0.35971  1.0000
  C   C164      1.0  0.88025  0.11054  0.33364  1.0000
  N   N20       1.0  0.87276  0.11082  0.41467  1.0000
  C   C165      1.0  0.86134  0.11842  0.43012  1.0000
  C   C166      1.0  0.89713  0.09440  0.39765  1.0000
  C   C167      1.0  0.90871  0.08611  0.38398  1.0000
  H   H89       1.0  0.89271  0.09490  0.46099  1.0000
  H   H90       1.0  0.91242  0.08092  0.43806  1.0000
  H   H91       1.0  0.85637  0.11786  0.49344  1.0000
  C   C168      1.0  0.84433  0.13409  0.37456  1.0000
  H   H92       1.0  0.83436  0.12812  0.42175  1.0000
  C   C169      1.0  0.86252  0.72908  0.35979  1.0000
  C   C170      1.0  0.87879  0.76913  0.33381  1.0000
  N   N21       1.0  0.87845  0.76135  0.41491  1.0000
  C   C171      1.0  0.87087  0.74233  0.43032  1.0000
  C   C172      1.0  0.89479  0.80212  0.39802  1.0000
  C   C173      1.0  0.90305  0.82198  0.38443  1.0000
  H   H93       1.0  0.89423  0.79718  0.46138  1.0000
  H   H94       1.0  0.90816  0.83087  0.43859  1.0000
  H   H95       1.0  0.87137  0.73792  0.49369  1.0000
  C   C174      1.0  0.85528  0.70969  0.37461  1.0000
  H   H96       1.0  0.86124  0.70567  0.42179  1.0000
  C   C175      1.0  0.53160  0.14492  0.39743  1.0000
  C   C176      1.0  0.54817  0.14348  0.40879  1.0000
  C   C177      1.0  0.57524  0.14135  0.34003  1.0000
  C   C178      1.0  0.61091  0.14281  0.36195  1.0000
  C   C179      1.0  0.59932  0.14147  0.43530  1.0000
  N   N22       1.0  0.58246  0.14102  0.42173  1.0000
  H   H97       1.0  0.60367  0.14149  0.49940  1.0000
  H   H98       1.0  0.52506  0.14651  0.45268  1.0000
  H   H99       1.0  0.55331  0.14422  0.47189  1.0000
  C   C180      1.0  0.62874  0.14465  0.37557  1.0000
  H   H100      1.0  0.63051  0.13759  0.42560  1.0000
  C   C181      1.0  0.84452  0.38642  0.39726  1.0000
  C   C182      1.0  0.84598  0.40444  0.40867  1.0000
  C   C183      1.0  0.84825  0.43371  0.33997  1.0000
  C   C184      1.0  0.84688  0.46796  0.36187  1.0000
  C   C185      1.0  0.84812  0.45766  0.43524  1.0000
  N   N23       1.0  0.84853  0.44123  0.42167  1.0000
  H   H101      1.0  0.84805  0.46196  0.49934  1.0000
  H   H102      1.0  0.84289  0.37828  0.45248  1.0000
  H   H103      1.0  0.84523  0.40883  0.47176  1.0000
  C   C186      1.0  0.84505  0.48396  0.37544  1.0000
  H   H104      1.0  0.85207  0.49276  0.42558  1.0000
  C   C187      1.0  0.60288  0.45789  0.39733  1.0000
  C   C188      1.0  0.58487  0.44133  0.40873  1.0000
  C   C189      1.0  0.55562  0.41432  0.34002  1.0000
  C   C190      1.0  0.52139  0.37867  0.36195  1.0000
  C   C191      1.0  0.53167  0.39023  0.43531  1.0000
  N   N24       1.0  0.54809  0.40708  0.42173  1.0000
  H   H105      1.0  0.52737  0.38587  0.49941  1.0000
  H   H106      1.0  0.61102  0.46441  0.45256  1.0000
  H   H107      1.0  0.58048  0.43619  0.47182  1.0000
  C   C192      1.0  0.50540  0.36085  0.37555  1.0000
  H   H108      1.0  0.49660  0.35906  0.42572  1.0000
