data_image0
_chemical_formula_structural       C7H2C2O2C3HCH3NHC3HCH3NHC5HC4H3C2O2C3HCH3NHC3HCH3NHC7H2C2O2C3HCH3NHC3HCH3NHC5HC4H3C2O2C3HCH3NHC3HCH3NHC7H2C2O2C3HCH3NHC3HCH3NHC5HC4H3C2O2C3HCH3NHC3HCH3NHC7H2C2O2C3HCH3NHC3HCH3NHC5HC4H3C2O2C3HCH3NHC3HCH3NH
_chemical_formula_sum              "C144 H104 O16 N16"
_cell_length_a       30.8738
_cell_length_b       30.8738
_cell_length_c       15.0281
_cell_angle_alpha    90
_cell_angle_beta     90
_cell_angle_gamma    90

_space_group_name_H-M_alt    "P 1"
_space_group_IT_number       1

loop_
  _space_group_symop_operation_xyz
  'x, y, z'

loop_
  _atom_site_type_symbol
  _atom_site_label
  _atom_site_symmetry_multiplicity
  _atom_site_fract_x
  _atom_site_fract_y
  _atom_site_fract_z
  _atom_site_occupancy
  C   C1        1.0  0.05914  0.00801  0.31262  1.0000
  C   C2        1.0  0.09067  0.04158  0.32083  1.0000
  C   C3        1.0  0.07662  0.08270  0.34981  1.0000
  C   C4        1.0  0.48325  0.48207  0.32783  1.0000
  C   C5        1.0  0.40744  0.45656  0.34201  1.0000
  C   C6        1.0  0.43897  0.49012  0.35029  1.0000
  C   C7        1.0  0.42855  0.03099  0.38707  1.0000
  H   H1        1.0  0.09954  0.46088  0.25042  1.0000
  H   H2        1.0  0.39856  0.03724  0.41247  1.0000
  C   C8        1.0  0.13570  0.03676  0.30371  1.0000
  C   C9        1.0  0.36241  0.46130  0.35913  1.0000
  O   O1        1.0  0.15862  0.07272  0.28082  1.0000
  O   O2        1.0  0.33948  0.42541  0.38237  1.0000
  C   C10       1.0  0.99340  0.20322  0.34309  1.0000
  C   C11       1.0  0.00233  0.26703  0.24448  1.0000
  C   C12       1.0  0.99538  0.22221  0.25740  1.0000
  H   H3        1.0  0.99540  0.20232  0.20278  1.0000
  C   C13       1.0  0.01158  0.28172  0.15198  1.0000
  H   H4        1.0  0.02179  0.31547  0.14864  1.0000
  H   H5        1.0  0.98274  0.27770  0.11080  1.0000
  H   H6        1.0  0.03774  0.26234  0.12358  1.0000
  N   N1        1.0  0.99316  0.15886  0.34749  1.0000
  H   H7        1.0  0.98056  0.14353  0.29686  1.0000
  C   C14       1.0  0.29534  0.99967  0.33573  1.0000
  C   C15       1.0  0.22752  0.00964  0.25050  1.0000
  C   C16       1.0  0.27308  0.01164  0.25721  1.0000
  H   H8        1.0  0.29066  0.01806  0.20088  1.0000
  C   C17       1.0  0.20859  0.01457  0.15982  1.0000
  H   H9        1.0  0.17436  0.00615  0.15706  1.0000
  H   H10       1.0  0.22521  0.99315  0.11312  1.0000
  H   H11       1.0  0.21253  0.04792  0.13717  1.0000
  N   N2        1.0  0.33944  0.99643  0.33063  1.0000
  H   H12       1.0  0.35392  0.01436  0.28603  1.0000
  C   C18       1.0  0.01486  0.01605  0.33511  1.0000
  C   C19       1.0  0.03325  0.09226  0.37142  1.0000
  C   C20       1.0  0.00221  0.05829  0.36430  1.0000
  C   C21       1.0  0.06955  0.46714  0.27585  1.0000
  C   C22       1.0  0.45909  0.06429  0.39290  1.0000
  H   H13       1.0  0.09900  0.10705  0.35492  1.0000
  C   C23       1.0  0.49590  0.43983  0.29866  1.0000
  C   C24       1.0  0.46486  0.40588  0.29144  1.0000
  C   C25       1.0  0.42148  0.41544  0.31300  1.0000
  C   C26       1.0  0.03903  0.43381  0.27012  1.0000
  H   H14       1.0  0.39909  0.39111  0.30781  1.0000
  H   H15       1.0  0.04878  0.40531  0.24190  1.0000
  H   H16       1.0  0.44932  0.09280  0.42103  1.0000
  C   C27       1.0  0.02370  0.13598  0.39399  1.0000
  C   C28       1.0  0.47433  0.36216  0.26892  1.0000
  O   O3        1.0  0.05525  0.15847  0.43714  1.0000
  O   O4        1.0  0.44285  0.33946  0.22600  1.0000
  C   C29       1.0  0.49581  0.23108  0.41847  1.0000
  C   C30       1.0  0.50277  0.27590  0.40554  1.0000
  C   C31       1.0  0.50471  0.29490  0.31984  1.0000
  H   H17       1.0  0.50281  0.29578  0.46016  1.0000
  C   C32       1.0  0.48663  0.21638  0.51098  1.0000
  H   H18       1.0  0.47637  0.18265  0.51433  1.0000
  H   H19       1.0  0.46052  0.23578  0.53950  1.0000
  H   H20       1.0  0.01551  0.22036  0.55205  1.0000
  N   N3        1.0  0.50490  0.33927  0.31533  1.0000
  H   H21       1.0  0.51769  0.35447  0.36592  1.0000
  C   C33       1.0  0.27062  0.48855  0.41243  1.0000
  C   C34       1.0  0.22506  0.48661  0.40576  1.0000
  C   C35       1.0  0.20279  0.49852  0.32721  1.0000
  H   H22       1.0  0.20747  0.48020  0.46208  1.0000
  C   C36       1.0  0.28954  0.48368  0.50313  1.0000
  H   H23       1.0  0.32379  0.49205  0.50583  1.0000
  H   H24       1.0  0.28557  0.45035  0.52590  1.0000
  H   H25       1.0  0.27295  0.00516  0.54975  1.0000
  N   N4        1.0  0.15868  0.50165  0.33225  1.0000
  H   H26       1.0  0.14425  0.48372  0.37688  1.0000
  C   C37       1.0  0.05914  0.50801  0.31262  1.0000
  C   C38       1.0  0.09067  0.54158  0.32083  1.0000
  C   C39       1.0  0.07662  0.58270  0.34981  1.0000
  C   C40       1.0  0.48325  0.98207  0.32783  1.0000
  C   C41       1.0  0.40744  0.95656  0.34201  1.0000
  C   C42       1.0  0.43897  0.99012  0.35029  1.0000
  C   C43       1.0  0.42855  0.53099  0.38707  1.0000
  H   H27       1.0  0.09954  0.96088  0.25042  1.0000
  H   H28       1.0  0.39856  0.53724  0.41247  1.0000
  C   C44       1.0  0.13570  0.53676  0.30371  1.0000
  C   C45       1.0  0.36241  0.96130  0.35913  1.0000
  O   O5        1.0  0.15862  0.57272  0.28082  1.0000
  O   O6        1.0  0.33948  0.92541  0.38237  1.0000
  C   C46       1.0  0.99340  0.70322  0.34309  1.0000
  C   C47       1.0  0.00233  0.76703  0.24448  1.0000
  C   C48       1.0  0.99538  0.72221  0.25740  1.0000
  H   H29       1.0  0.99540  0.70232  0.20278  1.0000
  C   C49       1.0  0.01158  0.78172  0.15198  1.0000
  H   H30       1.0  0.02179  0.81546  0.14864  1.0000
  H   H31       1.0  0.98274  0.77770  0.11080  1.0000
  H   H32       1.0  0.03774  0.76234  0.12358  1.0000
  N   N5        1.0  0.99316  0.65886  0.34749  1.0000
  H   H33       1.0  0.98056  0.64353  0.29686  1.0000
  C   C50       1.0  0.29534  0.49967  0.33573  1.0000
  C   C51       1.0  0.22752  0.50964  0.25050  1.0000
  C   C52       1.0  0.27308  0.51163  0.25721  1.0000
  H   H34       1.0  0.29066  0.51806  0.20088  1.0000
  C   C53       1.0  0.20859  0.51457  0.15982  1.0000
  H   H35       1.0  0.17436  0.50616  0.15706  1.0000
  H   H36       1.0  0.22521  0.49315  0.11312  1.0000
  H   H37       1.0  0.21253  0.54792  0.13717  1.0000
  N   N6        1.0  0.33944  0.49643  0.33063  1.0000
  H   H38       1.0  0.35392  0.51436  0.28603  1.0000
  C   C54       1.0  0.01486  0.51605  0.33511  1.0000
  C   C55       1.0  0.03325  0.59226  0.37142  1.0000
  C   C56       1.0  0.00221  0.55830  0.36430  1.0000
  C   C57       1.0  0.06955  0.96714  0.27585  1.0000
  C   C58       1.0  0.45909  0.56429  0.39290  1.0000
  H   H39       1.0  0.09900  0.60705  0.35492  1.0000
  C   C59       1.0  0.49590  0.93983  0.29866  1.0000
  C   C60       1.0  0.46486  0.90588  0.29144  1.0000
  C   C61       1.0  0.42148  0.91544  0.31300  1.0000
  C   C62       1.0  0.03903  0.93381  0.27012  1.0000
  H   H40       1.0  0.39909  0.89111  0.30781  1.0000
  H   H41       1.0  0.04878  0.90532  0.24190  1.0000
  H   H42       1.0  0.44932  0.59280  0.42103  1.0000
  C   C63       1.0  0.02370  0.63598  0.39399  1.0000
  C   C64       1.0  0.47433  0.86215  0.26892  1.0000
  O   O7        1.0  0.05525  0.65847  0.43714  1.0000
  O   O8        1.0  0.44285  0.83946  0.22600  1.0000
  C   C65       1.0  0.49581  0.73108  0.41847  1.0000
  C   C66       1.0  0.50277  0.77590  0.40554  1.0000
  C   C67       1.0  0.50471  0.79490  0.31984  1.0000
  H   H43       1.0  0.50281  0.79578  0.46016  1.0000
  C   C68       1.0  0.48663  0.71638  0.51098  1.0000
  H   H44       1.0  0.47637  0.68265  0.51433  1.0000
  H   H45       1.0  0.46052  0.73578  0.53950  1.0000
  H   H46       1.0  0.01551  0.72036  0.55205  1.0000
  N   N7        1.0  0.50490  0.83927  0.31533  1.0000
  H   H47       1.0  0.51769  0.85447  0.36592  1.0000
  C   C69       1.0  0.27062  0.98855  0.41243  1.0000
  C   C70       1.0  0.22506  0.98662  0.40576  1.0000
  C   C71       1.0  0.20279  0.99852  0.32721  1.0000
  H   H48       1.0  0.20747  0.98020  0.46208  1.0000
  C   C72       1.0  0.28954  0.98368  0.50313  1.0000
  H   H49       1.0  0.32379  0.99205  0.50583  1.0000
  H   H50       1.0  0.28557  0.95035  0.52590  1.0000
  H   H51       1.0  0.27295  0.50516  0.54975  1.0000
  N   N8        1.0  0.15868  0.00165  0.33225  1.0000
  H   H52       1.0  0.14425  0.98372  0.37688  1.0000
  C   C73       1.0  0.55914  0.00801  0.31262  1.0000
  C   C74       1.0  0.59067  0.04158  0.32083  1.0000
  C   C75       1.0  0.57662  0.08270  0.34981  1.0000
  C   C76       1.0  0.98326  0.48207  0.32783  1.0000
  C   C77       1.0  0.90744  0.45656  0.34201  1.0000
  C   C78       1.0  0.93898  0.49012  0.35029  1.0000
  C   C79       1.0  0.92855  0.03099  0.38707  1.0000
  H   H53       1.0  0.59954  0.46088  0.25042  1.0000
  H   H54       1.0  0.89856  0.03724  0.41247  1.0000
  C   C80       1.0  0.63570  0.03676  0.30371  1.0000
  C   C81       1.0  0.86241  0.46130  0.35913  1.0000
  O   O9        1.0  0.65862  0.07272  0.28082  1.0000
  O   O10       1.0  0.83948  0.42541  0.38237  1.0000
  C   C82       1.0  0.49340  0.20322  0.34309  1.0000
  C   C83       1.0  0.50233  0.26703  0.24448  1.0000
  C   C84       1.0  0.49538  0.22221  0.25740  1.0000
  H   H55       1.0  0.49539  0.20232  0.20278  1.0000
  C   C85       1.0  0.51158  0.28172  0.15198  1.0000
  H   H56       1.0  0.52180  0.31547  0.14864  1.0000
  H   H57       1.0  0.48274  0.27770  0.11080  1.0000
  H   H58       1.0  0.53774  0.26234  0.12358  1.0000
  N   N9        1.0  0.49316  0.15886  0.34749  1.0000
  H   H59       1.0  0.48056  0.14353  0.29686  1.0000
  C   C86       1.0  0.79534  0.99967  0.33573  1.0000
  C   C87       1.0  0.72752  0.00964  0.25050  1.0000
  C   C88       1.0  0.77308  0.01164  0.25721  1.0000
  H   H60       1.0  0.79066  0.01806  0.20088  1.0000
  C   C89       1.0  0.70859  0.01457  0.15982  1.0000
  H   H61       1.0  0.67436  0.00615  0.15706  1.0000
  H   H62       1.0  0.72521  0.99315  0.11312  1.0000
  H   H63       1.0  0.71253  0.04792  0.13717  1.0000
  N   N10       1.0  0.83944  0.99643  0.33063  1.0000
  H   H64       1.0  0.85392  0.01436  0.28603  1.0000
  C   C90       1.0  0.51486  0.01605  0.33511  1.0000
  C   C91       1.0  0.53325  0.09226  0.37142  1.0000
  C   C92       1.0  0.50221  0.05829  0.36430  1.0000
  C   C93       1.0  0.56955  0.46714  0.27585  1.0000
  C   C94       1.0  0.95909  0.06429  0.39290  1.0000
  H   H65       1.0  0.59900  0.10705  0.35492  1.0000
  C   C95       1.0  0.99590  0.43983  0.29866  1.0000
  C   C96       1.0  0.96486  0.40588  0.29144  1.0000
  C   C97       1.0  0.92149  0.41544  0.31300  1.0000
  C   C98       1.0  0.53903  0.43381  0.27012  1.0000
  H   H66       1.0  0.89909  0.39111  0.30781  1.0000
  H   H67       1.0  0.54878  0.40531  0.24190  1.0000
  H   H68       1.0  0.94932  0.09280  0.42103  1.0000
  C   C99       1.0  0.52370  0.13598  0.39399  1.0000
  C   C100      1.0  0.97433  0.36216  0.26892  1.0000
  O   O11       1.0  0.55525  0.15847  0.43714  1.0000
  O   O12       1.0  0.94285  0.33946  0.22600  1.0000
  C   C101      1.0  0.99581  0.23108  0.41847  1.0000
  C   C102      1.0  0.00276  0.27590  0.40554  1.0000
  C   C103      1.0  0.00471  0.29490  0.31984  1.0000
  H   H69       1.0  0.00281  0.29578  0.46016  1.0000
  C   C104      1.0  0.98663  0.21638  0.51098  1.0000
  H   H70       1.0  0.97637  0.18265  0.51433  1.0000
  H   H71       1.0  0.96052  0.23578  0.53950  1.0000
  H   H72       1.0  0.51551  0.22036  0.55205  1.0000
  N   N11       1.0  0.00490  0.33927  0.31533  1.0000
  H   H73       1.0  0.01769  0.35447  0.36592  1.0000
  C   C105      1.0  0.77062  0.48855  0.41243  1.0000
  C   C106      1.0  0.72506  0.48661  0.40576  1.0000
  C   C107      1.0  0.70279  0.49852  0.32721  1.0000
  H   H74       1.0  0.70747  0.48020  0.46208  1.0000
  C   C108      1.0  0.78954  0.48368  0.50313  1.0000
  H   H75       1.0  0.82379  0.49205  0.50583  1.0000
  H   H76       1.0  0.78556  0.45035  0.52590  1.0000
  H   H77       1.0  0.77295  0.00516  0.54975  1.0000
  N   N12       1.0  0.65868  0.50165  0.33225  1.0000
  H   H78       1.0  0.64425  0.48372  0.37688  1.0000
  C   C109      1.0  0.55914  0.50801  0.31262  1.0000
  C   C110      1.0  0.59067  0.54158  0.32083  1.0000
  C   C111      1.0  0.57662  0.58270  0.34981  1.0000
  C   C112      1.0  0.98326  0.98207  0.32783  1.0000
  C   C113      1.0  0.90744  0.95656  0.34201  1.0000
  C   C114      1.0  0.93898  0.99012  0.35029  1.0000
  C   C115      1.0  0.92855  0.53099  0.38707  1.0000
  H   H79       1.0  0.59954  0.96088  0.25042  1.0000
  H   H80       1.0  0.89856  0.53724  0.41247  1.0000
  C   C116      1.0  0.63570  0.53676  0.30371  1.0000
  C   C117      1.0  0.86241  0.96130  0.35913  1.0000
  O   O13       1.0  0.65862  0.57272  0.28082  1.0000
  O   O14       1.0  0.83948  0.92541  0.38237  1.0000
  C   C118      1.0  0.49340  0.70322  0.34309  1.0000
  C   C119      1.0  0.50233  0.76703  0.24448  1.0000
  C   C120      1.0  0.49538  0.72221  0.25740  1.0000
  H   H81       1.0  0.49539  0.70232  0.20278  1.0000
  C   C121      1.0  0.51158  0.78172  0.15198  1.0000
  H   H82       1.0  0.52180  0.81546  0.14864  1.0000
  H   H83       1.0  0.48274  0.77770  0.11080  1.0000
  H   H84       1.0  0.53774  0.76234  0.12358  1.0000
  N   N13       1.0  0.49316  0.65886  0.34749  1.0000
  H   H85       1.0  0.48056  0.64353  0.29686  1.0000
  C   C122      1.0  0.79534  0.49967  0.33573  1.0000
  C   C123      1.0  0.72752  0.50964  0.25050  1.0000
  C   C124      1.0  0.77308  0.51163  0.25721  1.0000
  H   H86       1.0  0.79066  0.51806  0.20088  1.0000
  C   C125      1.0  0.70859  0.51457  0.15982  1.0000
  H   H87       1.0  0.67436  0.50616  0.15706  1.0000
  H   H88       1.0  0.72521  0.49315  0.11312  1.0000
  H   H89       1.0  0.71253  0.54792  0.13717  1.0000
  N   N14       1.0  0.83944  0.49643  0.33063  1.0000
  H   H90       1.0  0.85392  0.51436  0.28603  1.0000
  C   C126      1.0  0.51486  0.51605  0.33511  1.0000
  C   C127      1.0  0.53325  0.59226  0.37142  1.0000
  C   C128      1.0  0.50221  0.55830  0.36430  1.0000
  C   C129      1.0  0.56955  0.96714  0.27585  1.0000
  C   C130      1.0  0.95909  0.56429  0.39290  1.0000
  H   H91       1.0  0.59900  0.60705  0.35492  1.0000
  C   C131      1.0  0.99590  0.93983  0.29866  1.0000
  C   C132      1.0  0.96486  0.90588  0.29144  1.0000
  C   C133      1.0  0.92149  0.91544  0.31300  1.0000
  C   C134      1.0  0.53903  0.93381  0.27012  1.0000
  H   H92       1.0  0.89909  0.89111  0.30781  1.0000
  H   H93       1.0  0.54878  0.90532  0.24190  1.0000
  H   H94       1.0  0.94932  0.59280  0.42103  1.0000
  C   C135      1.0  0.52370  0.63598  0.39399  1.0000
  C   C136      1.0  0.97433  0.86215  0.26892  1.0000
  O   O15       1.0  0.55525  0.65847  0.43714  1.0000
  O   O16       1.0  0.94285  0.83946  0.22600  1.0000
  C   C137      1.0  0.99581  0.73108  0.41847  1.0000
  C   C138      1.0  0.00276  0.77590  0.40554  1.0000
  C   C139      1.0  0.00471  0.79490  0.31984  1.0000
  H   H95       1.0  0.00281  0.79578  0.46016  1.0000
  C   C140      1.0  0.98663  0.71638  0.51098  1.0000
  H   H96       1.0  0.97637  0.68265  0.51433  1.0000
  H   H97       1.0  0.96052  0.73578  0.53950  1.0000
  H   H98       1.0  0.51551  0.72036  0.55205  1.0000
  N   N15       1.0  0.00490  0.83927  0.31533  1.0000
  H   H99       1.0  0.01769  0.85447  0.36592  1.0000
  C   C141      1.0  0.77062  0.98855  0.41243  1.0000
  C   C142      1.0  0.72506  0.98662  0.40576  1.0000
  C   C143      1.0  0.70279  0.99852  0.32721  1.0000
  H   H100      1.0  0.70747  0.98020  0.46208  1.0000
  C   C144      1.0  0.78954  0.98368  0.50313  1.0000
  H   H101      1.0  0.82379  0.99205  0.50583  1.0000
  H   H102      1.0  0.78556  0.95035  0.52590  1.0000
  H   H103      1.0  0.77295  0.50516  0.54975  1.0000
  N   N16       1.0  0.65868  0.00165  0.33225  1.0000
  H   H104      1.0  0.64425  0.98372  0.37688  1.0000
