data_image0
_chemical_formula_structural       C15H12C4HC4H2NO2C4HC4H2NO2C2NC2NC5NC3NC17H14C4H4C4H4
_chemical_formula_sum              "C68 H40 N6 O4"
_cell_length_a       25.6588
_cell_length_b       25.6588
_cell_length_c       14.9109
_cell_angle_alpha    90
_cell_angle_beta     90
_cell_angle_gamma    90

_space_group_name_H-M_alt    "P 1"
_space_group_IT_number       1

loop_
  _space_group_symop_operation_xyz
  'x, y, z'

loop_
  _atom_site_type_symbol
  _atom_site_label
  _atom_site_symmetry_multiplicity
  _atom_site_fract_x
  _atom_site_fract_y
  _atom_site_fract_z
  _atom_site_occupancy
  C   C1        1.0  0.89191  0.95441  0.34132  1.0000
  C   C2        1.0  0.05243  0.89080  0.33960  1.0000
  C   C3        1.0  0.00188  0.13967  0.33849  1.0000
  C   C4        1.0  0.95251  0.11444  0.33940  1.0000
  C   C5        1.0  0.86595  0.10111  0.33866  1.0000
  C   C6        1.0  0.90398  0.13911  0.33989  1.0000
  C   C7        1.0  0.72725  0.98678  0.26081  1.0000
  C   C8        1.0  0.78209  0.98744  0.26173  1.0000
  C   C9        1.0  0.00239  0.19545  0.33715  1.0000
  C   C10       1.0  0.98739  0.27804  0.25873  1.0000
  C   C11       1.0  0.98760  0.22318  0.25939  1.0000
  C   C12       1.0  0.22247  0.00648  0.25643  1.0000
  C   C13       1.0  0.27734  0.00645  0.25569  1.0000
  C   C14       1.0  0.00667  0.78258  0.25786  1.0000
  C   C15       1.0  0.00642  0.72772  0.25705  1.0000
  H   H1        1.0  0.01034  0.70912  0.19671  1.0000
  H   H2        1.0  0.01006  0.80229  0.19844  1.0000
  H   H3        1.0  0.89833  0.82859  0.34829  1.0000
  H   H4        1.0  0.20276  0.00973  0.19700  1.0000
  H   H5        1.0  0.29596  0.01041  0.19539  1.0000
  H   H6        1.0  0.10689  0.17637  0.32779  1.0000
  H   H7        1.0  0.82682  0.10848  0.33797  1.0000
  H   H8        1.0  0.89663  0.17825  0.34008  1.0000
  H   H9        1.0  0.97616  0.20355  0.20295  1.0000
  H   H10       1.0  0.97488  0.29641  0.20179  1.0000
  H   H11       1.0  0.80190  0.97629  0.20530  1.0000
  H   H12       1.0  0.70906  0.97419  0.20374  1.0000
  C   C16       1.0  0.00301  0.36332  0.33379  1.0000
  C   C17       1.0  0.00301  0.47540  0.33108  1.0000
  C   C18       1.0  0.01792  0.44681  0.25359  1.0000
  C   C19       1.0  0.01798  0.39157  0.25631  1.0000
  H   H13       1.0  0.03032  0.37189  0.20055  1.0000
  C   C20       1.0  0.00253  0.53106  0.33290  1.0000
  C   C21       1.0  0.00204  0.64287  0.33646  1.0000
  C   C22       1.0  0.97246  0.61482  0.27240  1.0000
  C   C23       1.0  0.97255  0.55996  0.27080  1.0000
  H   H14       1.0  0.94961  0.63413  0.22702  1.0000
  H   H15       1.0  0.94996  0.54122  0.22432  1.0000
  N   N1        1.0  0.03385  0.47373  0.17527  1.0000
  O   O1        1.0  0.00498  0.46298  0.10970  1.0000
  O   O2        1.0  0.08016  0.46324  0.15467  1.0000
  C   C24       1.0  0.64173  0.00221  0.33511  1.0000
  C   C25       1.0  0.52966  0.00249  0.33132  1.0000
  C   C26       1.0  0.55852  0.01740  0.25415  1.0000
  C   C27       1.0  0.61376  0.01735  0.25741  1.0000
  H   H16       1.0  0.63364  0.02972  0.20187  1.0000
  C   C28       1.0  0.47400  0.00221  0.33263  1.0000
  C   C29       1.0  0.36217  0.00208  0.33530  1.0000
  C   C30       1.0  0.39030  0.97251  0.27131  1.0000
  C   C31       1.0  0.44517  0.97243  0.27016  1.0000
  H   H17       1.0  0.37103  0.94975  0.22575  1.0000
  H   H18       1.0  0.46396  0.94981  0.22377  1.0000
  N   N2        1.0  0.53190  0.03349  0.17562  1.0000
  O   O3        1.0  0.54279  0.00468  0.11006  1.0000
  O   O4        1.0  0.54255  0.07981  0.15531  1.0000
  C   C32       1.0  0.90568  0.86770  0.34536  1.0000
  C   C33       1.0  0.86762  0.90571  0.34601  1.0000
  N   N3        1.0  0.94375  0.94400  0.33903  1.0000
  C   C34       1.0  0.95426  0.89219  0.34139  1.0000
  C   C35       1.0  0.00306  0.86577  0.34018  1.0000
  N   N4        1.0  0.06249  0.94252  0.33986  1.0000
  C   C36       1.0  0.11421  0.95255  0.33987  1.0000
  C   C37       1.0  0.13896  0.90405  0.33961  1.0000
  C   C38       1.0  0.10091  0.86603  0.33952  1.0000
  C   C39       1.0  0.13927  0.00191  0.33902  1.0000
  C   C40       1.0  0.11287  0.05072  0.33783  1.0000
  N   N5        1.0  0.06106  0.06128  0.34069  1.0000
  C   C41       1.0  0.05067  0.11311  0.33770  1.0000
  C   C42       1.0  0.09937  0.13736  0.33235  1.0000
  C   C43       1.0  0.13736  0.09928  0.33306  1.0000
  N   N6        1.0  0.94236  0.06269  0.33970  1.0000
  C   C44       1.0  0.89060  0.05257  0.33965  1.0000
  C   C45       1.0  0.86537  0.00321  0.34027  1.0000
  C   C46       1.0  0.80958  0.00267  0.33951  1.0000
  C   C47       1.0  0.78071  0.01738  0.41608  1.0000
  C   C48       1.0  0.72583  0.01750  0.41437  1.0000
  C   C49       1.0  0.69775  0.00211  0.33682  1.0000
  C   C50       1.0  0.01759  0.22408  0.41372  1.0000
  C   C51       1.0  0.01821  0.27895  0.41225  1.0000
  C   C52       1.0  0.00288  0.30729  0.33494  1.0000
  C   C53       1.0  0.19490  0.00229  0.33805  1.0000
  C   C54       1.0  0.30636  0.00221  0.33626  1.0000
  C   C55       1.0  0.27823  0.99805  0.41775  1.0000
  C   C56       1.0  0.22335  0.99804  0.41877  1.0000
  C   C57       1.0  0.00262  0.81014  0.33952  1.0000
  C   C58       1.0  0.99841  0.78168  0.42023  1.0000
  C   C59       1.0  0.99824  0.72680  0.41914  1.0000
  C   C60       1.0  0.00219  0.69869  0.33758  1.0000
  H   H19       1.0  0.99425  0.70751  0.47880  1.0000
  H   H20       1.0  0.99529  0.80074  0.48031  1.0000
  H   H21       1.0  0.82857  0.89819  0.34979  1.0000
  H   H22       1.0  0.97014  0.97042  0.33439  1.0000
  H   H23       1.0  0.03466  0.03492  0.34618  1.0000
  H   H24       1.0  0.10807  0.82684  0.33957  1.0000
  H   H25       1.0  0.17813  0.89686  0.33918  1.0000
  H   H26       1.0  0.20430  0.99465  0.47881  1.0000
  H   H27       1.0  0.29750  0.99400  0.47743  1.0000
  H   H28       1.0  0.17646  0.10659  0.32953  1.0000
  H   H29       1.0  0.02879  0.20510  0.47096  1.0000
  H   H30       1.0  0.03078  0.29800  0.46849  1.0000
  H   H31       1.0  0.70659  0.02998  0.47047  1.0000
  H   H32       1.0  0.79951  0.02883  0.47334  1.0000
  C   C61       1.0  0.98810  0.39269  0.40997  1.0000
  C   C62       1.0  0.98841  0.44749  0.40889  1.0000
  C   C63       1.0  0.03175  0.55886  0.39755  1.0000
  C   C64       1.0  0.03154  0.61373  0.39920  1.0000
  H   H33       1.0  0.05430  0.53930  0.44311  1.0000
  H   H34       1.0  0.05425  0.63226  0.44574  1.0000
  H   H35       1.0  0.97573  0.37443  0.46712  1.0000
  H   H36       1.0  0.97674  0.46694  0.46540  1.0000
  C   C65       1.0  0.61209  0.98728  0.41095  1.0000
  C   C66       1.0  0.55729  0.98774  0.40935  1.0000
  C   C67       1.0  0.44612  0.03147  0.39712  1.0000
  C   C68       1.0  0.39124  0.03144  0.39832  1.0000
  H   H37       1.0  0.46562  0.05386  0.44299  1.0000
  H   H38       1.0  0.37266  0.05408  0.44491  1.0000
  H   H39       1.0  0.63015  0.97488  0.46827  1.0000
  H   H40       1.0  0.53763  0.97608  0.46566  1.0000
