data_image0
_chemical_formula_structural       C4HC4H2NO2C4HC4H2NO2C4HC4H2NO2C4H4C4H4C4H4C4H4C4H4C4H4C24H15C24H15C24H15C24H15C24H15C24H15C4H4C4H4C4H4C4HC4H2NO2C4HC4H2NO2C4HC4H2NO2C4HC4H2NO2C4HC4H2NO2C4HC4H2NO2
_chemical_formula_sum              "C252 H153 N9 O18"
_cell_length_a       77.6503
_cell_length_b       77.6502
_cell_length_c       14.9792
_cell_angle_alpha    90
_cell_angle_beta     90
_cell_angle_gamma    120

_space_group_name_H-M_alt    "P 1"
_space_group_IT_number       1

loop_
  _space_group_symop_operation_xyz
  'x, y, z'

loop_
  _atom_site_type_symbol
  _atom_site_label
  _atom_site_symmetry_multiplicity
  _atom_site_fract_x
  _atom_site_fract_y
  _atom_site_fract_z
  _atom_site_occupancy
  C   C1        1.0  0.05474  0.52768  0.32860  1.0000
  C   C2        1.0  0.01184  0.50642  0.32554  1.0000
  C   C3        1.0  0.02291  0.51722  0.24931  1.0000
  C   C4        1.0  0.04398  0.52738  0.25167  1.0000
  H   H1        1.0  0.05150  0.53460  0.19508  1.0000
  C   C5        1.0  0.99052  0.49557  0.32721  1.0000
  C   C6        1.0  0.94758  0.47378  0.33064  1.0000
  C   C7        1.0  0.95844  0.47213  0.25824  1.0000
  C   C8        1.0  0.97937  0.48250  0.25719  1.0000
  H   H2        1.0  0.95126  0.46350  0.20406  1.0000
  H   H3        1.0  0.98639  0.48029  0.20440  1.0000
  N   N1        1.0  0.01293  0.51853  0.17267  1.0000
  O   O1        1.0  0.01697  0.51180  0.10441  1.0000
  O   O2        1.0  0.01723  0.53616  0.15758  1.0000
  C   C9        1.0  0.47405  0.52741  0.32857  1.0000
  C   C10       1.0  0.49531  0.50578  0.32552  1.0000
  C   C11       1.0  0.48451  0.50604  0.24930  1.0000
  C   C12       1.0  0.47435  0.51696  0.25165  1.0000
  H   H4        1.0  0.46713  0.51724  0.19507  1.0000
  C   C13       1.0  0.50616  0.49530  0.32719  1.0000
  C   C14       1.0  0.52795  0.47415  0.33063  1.0000
  C   C15       1.0  0.52960  0.48666  0.25821  1.0000
  C   C16       1.0  0.51922  0.49721  0.25716  1.0000
  H   H5        1.0  0.53822  0.48810  0.20402  1.0000
  H   H6        1.0  0.52143  0.50645  0.20436  1.0000
  N   N2        1.0  0.48319  0.49474  0.17266  1.0000
  O   O3        1.0  0.48992  0.50551  0.10439  1.0000
  O   O4        1.0  0.46556  0.48141  0.15759  1.0000
  C   C17       1.0  0.47433  0.94700  0.32858  1.0000
  C   C18       1.0  0.49596  0.98990  0.32554  1.0000
  C   C19       1.0  0.49570  0.97883  0.24931  1.0000
  C   C20       1.0  0.48478  0.95776  0.25166  1.0000
  H   H7        1.0  0.48450  0.95024  0.19508  1.0000
  C   C21       1.0  0.50644  0.01123  0.32721  1.0000
  C   C22       1.0  0.52758  0.05416  0.33068  1.0000
  C   C23       1.0  0.51508  0.04330  0.25824  1.0000
  C   C24       1.0  0.50453  0.02237  0.25718  1.0000
  H   H8        1.0  0.51363  0.05048  0.20408  1.0000
  H   H9        1.0  0.49529  0.01535  0.20439  1.0000
  N   N3        1.0  0.50699  0.98881  0.17267  1.0000
  O   O5        1.0  0.49623  0.98477  0.10441  1.0000
  O   O6        1.0  0.52033  0.98452  0.15760  1.0000
  C   C25       1.0  0.23235  0.53790  0.25927  1.0000
  C   C26       1.0  0.24886  0.53510  0.25355  1.0000
  C   C27       1.0  0.29281  0.54974  0.27379  1.0000
  C   C28       1.0  0.31195  0.55204  0.27360  1.0000
  H   H10       1.0  0.29078  0.56027  0.24200  1.0000
  H   H11       1.0  0.32321  0.56407  0.24162  1.0000
  H   H12       1.0  0.22681  0.54020  0.20133  1.0000
  H   H13       1.0  0.25434  0.53495  0.19153  1.0000
  C   C29       1.0  0.46384  0.69480  0.25931  1.0000
  C   C30       1.0  0.46665  0.71412  0.25358  1.0000
  C   C31       1.0  0.45202  0.74344  0.27363  1.0000
  C   C32       1.0  0.44974  0.76030  0.27341  1.0000
  H   H14       1.0  0.44151  0.73090  0.24174  1.0000
  H   H15       1.0  0.43773  0.75954  0.24130  1.0000
  H   H16       1.0  0.46155  0.68697  0.20135  1.0000
  H   H17       1.0  0.46681  0.71975  0.19158  1.0000
  C   C33       1.0  0.30697  0.76936  0.25931  1.0000
  C   C34       1.0  0.28764  0.75287  0.25357  1.0000
  C   C35       1.0  0.25834  0.70891  0.27384  1.0000
  C   C36       1.0  0.24149  0.68977  0.27364  1.0000
  H   H18       1.0  0.27088  0.71096  0.24180  1.0000
  H   H19       1.0  0.24224  0.67853  0.24137  1.0000
  H   H20       1.0  0.31478  0.77494  0.20135  1.0000
  H   H21       1.0  0.28201  0.74739  0.19157  1.0000
  C   C37       1.0  0.76952  0.46326  0.25709  1.0000
  C   C38       1.0  0.75301  0.46606  0.25201  1.0000
  C   C39       1.0  0.70907  0.45120  0.27673  1.0000
  C   C40       1.0  0.68990  0.44882  0.27783  1.0000
  H   H22       1.0  0.71100  0.44049  0.24607  1.0000
  H   H23       1.0  0.67851  0.43656  0.24776  1.0000
  H   H24       1.0  0.77485  0.46073  0.19904  1.0000
  H   H25       1.0  0.74724  0.46591  0.19032  1.0000
  C   C41       1.0  0.53843  0.30661  0.25717  1.0000
  C   C42       1.0  0.53567  0.28730  0.25207  1.0000
  C   C43       1.0  0.55052  0.25824  0.27667  1.0000
  C   C44       1.0  0.55292  0.24145  0.27777  1.0000
  H   H26       1.0  0.56125  0.27088  0.24622  1.0000
  H   H27       1.0  0.56520  0.24234  0.24784  1.0000
  H   H28       1.0  0.54101  0.31448  0.19913  1.0000
  H   H29       1.0  0.53583  0.28170  0.19036  1.0000
  C   C45       1.0  0.69513  0.23219  0.25714  1.0000
  C   C46       1.0  0.71443  0.24873  0.25204  1.0000
  C   C47       1.0  0.74350  0.29266  0.27675  1.0000
  C   C48       1.0  0.76028  0.31184  0.27790  1.0000
  H   H30       1.0  0.73085  0.29075  0.24634  1.0000
  H   H31       1.0  0.75940  0.32324  0.24804  1.0000
  H   H32       1.0  0.68725  0.22691  0.19910  1.0000
  H   H33       1.0  0.72002  0.25451  0.19035  1.0000
  C   C49       1.0  0.17200  0.60299  0.34407  1.0000
  C   C50       1.0  0.15106  0.59200  0.33874  1.0000
  C   C51       1.0  0.14047  0.57089  0.33645  1.0000
  C   C52       1.0  0.15172  0.56103  0.33887  1.0000
  C   C53       1.0  0.17272  0.57158  0.34545  1.0000
  C   C54       1.0  0.18254  0.59257  0.34696  1.0000
  C   C55       1.0  0.11911  0.55995  0.33343  1.0000
  C   C56       1.0  0.10825  0.56694  0.28417  1.0000
  C   C57       1.0  0.08732  0.55652  0.28319  1.0000
  C   C58       1.0  0.07613  0.53838  0.33008  1.0000
  C   C59       1.0  0.08701  0.53129  0.37857  1.0000
  C   C60       1.0  0.10794  0.54187  0.38075  1.0000
  C   C61       1.0  0.18271  0.62412  0.34513  1.0000
  C   C62       1.0  0.18182  0.63509  0.27164  1.0000
  C   C63       1.0  0.19504  0.65573  0.26550  1.0000
  C   C64       1.0  0.20902  0.66588  0.33394  1.0000
  C   C65       1.0  0.20943  0.65509  0.40900  1.0000
  C   C66       1.0  0.19649  0.63444  0.41426  1.0000
  C   C67       1.0  0.18410  0.56176  0.35031  1.0000
  C   C68       1.0  0.19985  0.56817  0.41244  1.0000
  C   C69       1.0  0.21270  0.56034  0.41150  1.0000
  C   C70       1.0  0.21023  0.54558  0.34907  1.0000
  C   C71       1.0  0.19398  0.53861  0.28916  1.0000
  C   C72       1.0  0.18107  0.54646  0.29000  1.0000
  H   H34       1.0  0.19494  0.66313  0.20911  1.0000
  H   H35       1.0  0.17257  0.62794  0.21896  1.0000
  H   H36       1.0  0.21988  0.66196  0.45799  1.0000
  H   H37       1.0  0.19777  0.62686  0.46742  1.0000
  H   H38       1.0  0.20255  0.57913  0.45765  1.0000
  H   H39       1.0  0.22454  0.56638  0.45442  1.0000
  H   H40       1.0  0.17010  0.54167  0.24280  1.0000
  H   H41       1.0  0.19161  0.52797  0.24277  1.0000
  H   H42       1.0  0.11492  0.53628  0.41900  1.0000
  H   H43       1.0  0.07981  0.51812  0.41257  1.0000
  H   H44       1.0  0.08036  0.56264  0.24844  1.0000
  H   H45       1.0  0.11547  0.57974  0.24752  1.0000
  H   H46       1.0  0.14346  0.59962  0.33961  1.0000
  H   H47       1.0  0.19778  0.60052  0.34812  1.0000
  H   H48       1.0  0.14454  0.54584  0.33651  1.0000
  C   C73       1.0  0.39873  0.56936  0.34408  1.0000
  C   C74       1.0  0.40973  0.55941  0.33875  1.0000
  C   C75       1.0  0.43084  0.56993  0.33645  1.0000
  C   C76       1.0  0.44069  0.59104  0.33886  1.0000
  C   C77       1.0  0.43015  0.60149  0.34545  1.0000
  C   C78       1.0  0.40915  0.59031  0.34696  1.0000
  C   C79       1.0  0.44178  0.55951  0.33341  1.0000
  C   C80       1.0  0.43479  0.54166  0.28417  1.0000
  C   C81       1.0  0.44521  0.53116  0.28315  1.0000
  C   C82       1.0  0.46335  0.53811  0.33006  1.0000
  C   C83       1.0  0.47044  0.55607  0.37854  1.0000
  C   C84       1.0  0.45986  0.56642  0.38072  1.0000
  C   C85       1.0  0.37760  0.55893  0.34516  1.0000
  C   C86       1.0  0.36663  0.54705  0.27172  1.0000
  C   C87       1.0  0.34599  0.53961  0.26558  1.0000
  C   C88       1.0  0.33584  0.54347  0.33396  1.0000
  C   C89       1.0  0.34663  0.55468  0.40901  1.0000
  C   C90       1.0  0.36728  0.56240  0.41424  1.0000
  C   C91       1.0  0.43996  0.62269  0.35031  1.0000
  C   C92       1.0  0.43356  0.63203  0.41247  1.0000
  C   C93       1.0  0.44137  0.65270  0.41145  1.0000
  C   C94       1.0  0.45614  0.66500  0.34908  1.0000
  C   C95       1.0  0.46313  0.65572  0.28921  1.0000
  C   C96       1.0  0.45525  0.63495  0.28999  1.0000
  H   H49       1.0  0.33859  0.53211  0.20919  1.0000
  H   H50       1.0  0.37378  0.54495  0.21906  1.0000
  H   H51       1.0  0.33975  0.55828  0.45790  1.0000
  H   H52       1.0  0.37486  0.57127  0.46736  1.0000
  H   H53       1.0  0.42258  0.62377  0.45761  1.0000
  H   H54       1.0  0.43533  0.65850  0.45437  1.0000
  H   H55       1.0  0.46006  0.62878  0.24284  1.0000
  H   H56       1.0  0.47376  0.66398  0.24282  1.0000
  H   H57       1.0  0.46545  0.57900  0.41897  1.0000
  H   H58       1.0  0.48361  0.56204  0.41253  1.0000
  H   H59       1.0  0.43909  0.51807  0.24845  1.0000
  H   H60       1.0  0.42199  0.53608  0.24754  1.0000
  H   H61       1.0  0.40210  0.54419  0.33962  1.0000
  H   H62       1.0  0.40121  0.59761  0.34813  1.0000
  H   H63       1.0  0.45589  0.59905  0.33650  1.0000
  C   C97       1.0  0.43239  0.82974  0.34403  1.0000
  C   C98       1.0  0.44234  0.85068  0.33864  1.0000
  C   C99       1.0  0.43182  0.86127  0.33643  1.0000
  C   C100      1.0  0.41071  0.85001  0.33887  1.0000
  C   C101      1.0  0.40027  0.82903  0.34545  1.0000
  C   C102      1.0  0.41143  0.81920  0.34699  1.0000
  C   C103      1.0  0.44224  0.88263  0.33342  1.0000
  C   C104      1.0  0.46009  0.89349  0.28417  1.0000
  C   C105      1.0  0.47060  0.91442  0.28316  1.0000
  C   C106      1.0  0.46364  0.92561  0.33008  1.0000
  C   C107      1.0  0.44568  0.91473  0.37858  1.0000
  C   C108      1.0  0.43533  0.89380  0.38078  1.0000
  C   C109      1.0  0.44282  0.81903  0.34506  1.0000
  C   C110      1.0  0.45467  0.81993  0.27155  1.0000
  C   C111      1.0  0.46210  0.80671  0.26538  1.0000
  C   C112      1.0  0.45831  0.79276  0.33390  1.0000
  C   C113      1.0  0.44711  0.79235  0.40899  1.0000
  C   C114      1.0  0.43939  0.80528  0.41425  1.0000
  C   C115      1.0  0.37907  0.81764  0.35034  1.0000
  C   C116      1.0  0.36972  0.80190  0.41254  1.0000
  C   C117      1.0  0.34905  0.78905  0.41159  1.0000
  C   C118      1.0  0.33675  0.79151  0.34912  1.0000
  C   C119      1.0  0.34603  0.80776  0.28919  1.0000
  C   C120      1.0  0.36680  0.82065  0.28995  1.0000
  H   H64       1.0  0.46960  0.80681  0.20902  1.0000
  H   H65       1.0  0.45675  0.82917  0.21884  1.0000
  H   H66       1.0  0.44353  0.78189  0.45795  1.0000
  H   H67       1.0  0.43051  0.80397  0.46737  1.0000
  H   H68       1.0  0.37799  0.79919  0.45768  1.0000
  H   H69       1.0  0.34325  0.77720  0.45442  1.0000
  H   H70       1.0  0.37297  0.83164  0.24284  1.0000
  H   H71       1.0  0.33777  0.81013  0.24280  1.0000
  H   H72       1.0  0.42275  0.88681  0.41898  1.0000
  H   H73       1.0  0.43971  0.92193  0.41256  1.0000
  H   H74       1.0  0.48368  0.92139  0.24844  1.0000
  H   H75       1.0  0.46567  0.88627  0.24750  1.0000
  H   H76       1.0  0.45756  0.85828  0.33955  1.0000
  H   H77       1.0  0.40414  0.80396  0.34814  1.0000
  H   H78       1.0  0.40270  0.85720  0.33653  1.0000
  C   C121      1.0  0.83004  0.39836  0.34597  1.0000
  C   C122      1.0  0.85099  0.40934  0.34139  1.0000
  C   C123      1.0  0.86164  0.43045  0.33695  1.0000
  C   C124      1.0  0.85035  0.44029  0.33689  1.0000
  C   C125      1.0  0.82937  0.42979  0.34345  1.0000
  C   C126      1.0  0.81953  0.40881  0.34657  1.0000
  C   C127      1.0  0.88306  0.44139  0.33435  1.0000
  C   C128      1.0  0.89405  0.43374  0.29099  1.0000
  C   C129      1.0  0.91498  0.44414  0.29072  1.0000
  C   C130      1.0  0.92615  0.46303  0.33187  1.0000
  C   C131      1.0  0.91514  0.47080  0.37407  1.0000
  C   C132      1.0  0.89421  0.46019  0.37620  1.0000
  C   C133      1.0  0.81929  0.37721  0.34818  1.0000
  C   C134      1.0  0.82084  0.36602  0.27729  1.0000
  C   C135      1.0  0.80765  0.34537  0.27134  1.0000
  C   C136      1.0  0.79294  0.33544  0.33730  1.0000
  C   C137      1.0  0.79184  0.34643  0.40998  1.0000
  C   C138      1.0  0.80484  0.36707  0.41516  1.0000
  C   C139      1.0  0.81799  0.43962  0.34758  1.0000
  C   C140      1.0  0.80242  0.43347  0.41055  1.0000
  C   C141      1.0  0.78961  0.44134  0.40954  1.0000
  C   C142      1.0  0.79194  0.45591  0.34625  1.0000
  C   C143      1.0  0.80801  0.46261  0.28538  1.0000
  C   C144      1.0  0.82087  0.45470  0.28626  1.0000
  H   H79       1.0  0.80827  0.33781  0.21655  1.0000
  H   H80       1.0  0.83064  0.37301  0.22613  1.0000
  H   H81       1.0  0.78085  0.33972  0.45690  1.0000
  H   H82       1.0  0.80305  0.37478  0.46634  1.0000
  H   H83       1.0  0.79984  0.42268  0.45653  1.0000
  H   H84       1.0  0.77792  0.43551  0.45326  1.0000
  H   H85       1.0  0.83174  0.45933  0.23861  1.0000
  H   H86       1.0  0.81027  0.47310  0.23838  1.0000
  H   H87       1.0  0.88724  0.46637  0.41032  1.0000
  H   H88       1.0  0.92224  0.48452  0.40349  1.0000
  H   H89       1.0  0.92194  0.43745  0.26073  1.0000
  H   H90       1.0  0.88694  0.42044  0.25804  1.0000
  H   H91       1.0  0.85854  0.40169  0.34446  1.0000
  H   H92       1.0  0.80428  0.40090  0.34736  1.0000
  H   H93       1.0  0.85749  0.45546  0.33290  1.0000
  C   C145      1.0  0.60337  0.43202  0.34599  1.0000
  C   C146      1.0  0.59239  0.44200  0.34135  1.0000
  C   C147      1.0  0.57128  0.43154  0.33696  1.0000
  C   C148      1.0  0.56144  0.41042  0.33693  1.0000
  C   C149      1.0  0.57194  0.39992  0.34352  1.0000
  C   C150      1.0  0.59291  0.41106  0.34663  1.0000
  C   C151      1.0  0.56034  0.44202  0.33436  1.0000
  C   C152      1.0  0.56798  0.46065  0.29096  1.0000
  C   C153      1.0  0.55758  0.47119  0.29071  1.0000
  C   C154      1.0  0.53870  0.46347  0.33187  1.0000
  C   C155      1.0  0.53093  0.44469  0.37409  1.0000
  C   C156      1.0  0.54154  0.43438  0.37620  1.0000
  C   C157      1.0  0.62452  0.44242  0.34816  1.0000
  C   C158      1.0  0.63570  0.45513  0.27716  1.0000
  C   C159      1.0  0.65635  0.46259  0.27123  1.0000
  C   C160      1.0  0.66629  0.45785  0.33731  1.0000
  C   C161      1.0  0.65529  0.44577  0.41000  1.0000
  C   C162      1.0  0.63466  0.43814  0.41526  1.0000
  C   C163      1.0  0.56210  0.37871  0.34766  1.0000
  C   C164      1.0  0.56825  0.36929  0.41063  1.0000
  C   C165      1.0  0.56037  0.34861  0.40962  1.0000
  C   C166      1.0  0.54581  0.33638  0.34633  1.0000
  C   C167      1.0  0.53910  0.34574  0.28550  1.0000
  C   C168      1.0  0.54703  0.36652  0.28632  1.0000
  H   H94       1.0  0.66390  0.47074  0.21640  1.0000
  H   H95       1.0  0.62871  0.45792  0.22593  1.0000
  H   H96       1.0  0.66201  0.44155  0.45713  1.0000
  H   H97       1.0  0.62695  0.42868  0.46653  1.0000
  H   H98       1.0  0.57904  0.37750  0.45660  1.0000
  H   H99       1.0  0.56621  0.34275  0.45333  1.0000
  H   H100      1.0  0.54240  0.37276  0.23869  1.0000
  H   H101      1.0  0.52862  0.33753  0.23845  1.0000
  H   H102      1.0  0.53536  0.42122  0.41038  1.0000
  H   H103      1.0  0.51721  0.43807  0.40353  1.0000
  H   H104      1.0  0.56427  0.48483  0.26066  1.0000
  H   H105      1.0  0.58129  0.46684  0.25800  1.0000
  H   H106      1.0  0.60004  0.45720  0.34442  1.0000
  H   H107      1.0  0.60082  0.40373  0.34745  1.0000
  H   H108      1.0  0.54627  0.40238  0.33297  1.0000
  C   C169      1.0  0.56973  0.17172  0.34594  1.0000
  C   C170      1.0  0.55975  0.15076  0.34133  1.0000
  C   C171      1.0  0.57020  0.14010  0.33696  1.0000
  C   C172      1.0  0.59132  0.15138  0.33693  1.0000
  C   C173      1.0  0.60182  0.17237  0.34350  1.0000
  C   C174      1.0  0.59069  0.18222  0.34658  1.0000
  C   C175      1.0  0.55971  0.11868  0.33440  1.0000
  C   C176      1.0  0.54108  0.10769  0.29100  1.0000
  C   C177      1.0  0.53055  0.08676  0.29076  1.0000
  C   C178      1.0  0.53826  0.07559  0.33192  1.0000
  C   C179      1.0  0.55703  0.08659  0.37417  1.0000
  C   C180      1.0  0.56735  0.10753  0.37626  1.0000
  C   C181      1.0  0.55934  0.18247  0.34808  1.0000
  C   C182      1.0  0.54659  0.18091  0.27718  1.0000
  C   C183      1.0  0.53913  0.19411  0.27121  1.0000
  C   C184      1.0  0.54391  0.20882  0.33714  1.0000
  C   C185      1.0  0.55602  0.20994  0.40976  1.0000
  C   C186      1.0  0.56367  0.19694  0.41500  1.0000
  C   C187      1.0  0.62303  0.18373  0.34767  1.0000
  C   C188      1.0  0.63246  0.19930  0.41065  1.0000
  C   C189      1.0  0.65314  0.21209  0.40969  1.0000
  C   C190      1.0  0.66536  0.20977  0.34631  1.0000
  C   C191      1.0  0.65600  0.19372  0.28540  1.0000
  C   C192      1.0  0.63522  0.18086  0.28628  1.0000
  H   H109      1.0  0.53094  0.19347  0.21645  1.0000
  H   H110      1.0  0.54377  0.17110  0.22606  1.0000
  H   H111      1.0  0.56025  0.22089  0.45683  1.0000
  H   H112      1.0  0.57313  0.19870  0.46631  1.0000
  H   H113      1.0  0.62425  0.20188  0.45662  1.0000
  H   H114      1.0  0.65899  0.22380  0.45334  1.0000
  H   H115      1.0  0.62898  0.16999  0.23862  1.0000
  H   H116      1.0  0.66421  0.19146  0.23836  1.0000
  H   H117      1.0  0.58051  0.11450  0.41044  1.0000
  H   H118      1.0  0.56366  0.07950  0.40359  1.0000
  H   H119      1.0  0.51690  0.07980  0.26070  1.0000
  H   H120      1.0  0.53489  0.11481  0.25804  1.0000
  H   H121      1.0  0.54455  0.14322  0.34440  1.0000
  H   H122      1.0  0.59803  0.19746  0.34738  1.0000
  H   H123      1.0  0.59936  0.14424  0.33299  1.0000
  C   C193      1.0  0.04345  0.51714  0.40418  1.0000
  C   C194      1.0  0.02255  0.50665  0.40250  1.0000
  C   C195      1.0  0.97979  0.49724  0.39987  1.0000
  C   C196      1.0  0.95886  0.48649  0.40181  1.0000
  H   H124      1.0  0.98716  0.50648  0.45227  1.0000
  H   H125      1.0  0.95199  0.48793  0.45717  1.0000
  H   H126      1.0  0.05033  0.51716  0.46246  1.0000
  H   H127      1.0  0.01518  0.49902  0.45870  1.0000
  C   C197      1.0  0.48460  0.52667  0.40415  1.0000
  C   C198      1.0  0.49508  0.51625  0.40247  1.0000
  C   C199      1.0  0.50449  0.48291  0.39986  1.0000
  C   C200      1.0  0.51525  0.47274  0.40182  1.0000
  H   H128      1.0  0.49526  0.48104  0.45227  1.0000
  H   H129      1.0  0.51380  0.46441  0.45717  1.0000
  H   H130      1.0  0.48457  0.53352  0.46243  1.0000
  H   H131      1.0  0.50272  0.51652  0.45867  1.0000
  C   C201      1.0  0.47507  0.95829  0.40417  1.0000
  C   C202      1.0  0.48549  0.97919  0.40249  1.0000
  C   C203      1.0  0.51883  0.02195  0.39989  1.0000
  C   C204      1.0  0.52900  0.04288  0.40186  1.0000
  H   H132      1.0  0.52070  0.01458  0.45230  1.0000
  H   H133      1.0  0.53732  0.04975  0.45723  1.0000
  H   H134      1.0  0.46822  0.95141  0.46245  1.0000
  H   H135      1.0  0.48522  0.98656  0.45869  1.0000
  C   C205      1.0  0.22481  0.53946  0.34297  1.0000
  C   C206      1.0  0.25854  0.53378  0.33115  1.0000
  C   C207      1.0  0.25066  0.53451  0.41588  1.0000
  C   C208      1.0  0.23381  0.53700  0.42040  1.0000
  H   H136      1.0  0.22868  0.53797  0.48206  1.0000
  C   C209      1.0  0.27709  0.53423  0.32267  1.0000
  C   C210      1.0  0.31593  0.53890  0.32275  1.0000
  C   C211      1.0  0.30028  0.52311  0.37001  1.0000
  C   C212      1.0  0.28103  0.52066  0.36888  1.0000
  H   H137      1.0  0.30291  0.51368  0.40779  1.0000
  H   H138      1.0  0.27007  0.50928  0.40505  1.0000
  N   N4        1.0  0.26047  0.53425  0.49521  1.0000
  O   O7        1.0  0.24919  0.51998  0.54494  1.0000
  O   O8        1.0  0.26697  0.55019  0.53837  1.0000
  C   C213      1.0  0.46227  0.68570  0.34299  1.0000
  C   C214      1.0  0.46794  0.72510  0.33119  1.0000
  C   C215      1.0  0.46720  0.71649  0.41591  1.0000
  C   C216      1.0  0.46472  0.69715  0.42042  1.0000
  H   H139      1.0  0.46371  0.69104  0.48209  1.0000
  C   C217      1.0  0.46749  0.74321  0.32273  1.0000
  C   C218      1.0  0.46285  0.77738  0.32275  1.0000
  C   C219      1.0  0.47863  0.77752  0.37011  1.0000
  C   C220      1.0  0.48106  0.76072  0.36899  1.0000
  H   H140      1.0  0.48803  0.78956  0.40805  1.0000
  H   H141      1.0  0.49241  0.76111  0.40534  1.0000
  N   N5        1.0  0.46742  0.72654  0.49523  1.0000
  O   O9        1.0  0.48168  0.72954  0.54507  1.0000
  O   O10       1.0  0.45147  0.71709  0.53828  1.0000
  C   C221      1.0  0.31606  0.77693  0.34299  1.0000
  C   C222      1.0  0.27665  0.74318  0.33118  1.0000
  C   C223      1.0  0.28526  0.75106  0.41590  1.0000
  C   C224      1.0  0.30460  0.76791  0.42041  1.0000
  H   H142      1.0  0.31070  0.77305  0.48208  1.0000
  C   C225      1.0  0.25855  0.72462  0.32274  1.0000
  C   C226      1.0  0.22438  0.68579  0.32273  1.0000
  C   C227      1.0  0.22424  0.70145  0.37005  1.0000
  C   C228      1.0  0.24104  0.72069  0.36893  1.0000
  H   H143      1.0  0.21219  0.69881  0.40791  1.0000
  H   H144      1.0  0.24064  0.73165  0.40521  1.0000
  N   N6        1.0  0.27520  0.74125  0.49524  1.0000
  O   O11       1.0  0.27221  0.75252  0.54501  1.0000
  O   O12       1.0  0.28465  0.73475  0.53836  1.0000
  C   C229      1.0  0.77741  0.46209  0.34047  1.0000
  C   C230      1.0  0.74365  0.46771  0.33003  1.0000
  C   C231      1.0  0.75187  0.46737  0.41439  1.0000
  C   C232      1.0  0.76873  0.46489  0.41819  1.0000
  H   H145      1.0  0.77412  0.46419  0.47965  1.0000
  C   C233      1.0  0.72502  0.46713  0.32263  1.0000
  C   C234      1.0  0.68615  0.46232  0.32517  1.0000
  C   C235      1.0  0.70201  0.47852  0.36948  1.0000
  C   C236      1.0  0.72127  0.48101  0.36724  1.0000
  H   H146      1.0  0.69955  0.48822  0.40598  1.0000
  H   H147      1.0  0.73241  0.49266  0.40153  1.0000
  N   N7        1.0  0.74238  0.46798  0.49413  1.0000
  O   O13       1.0  0.75385  0.48247  0.54239  1.0000
  O   O14       1.0  0.73605  0.45223  0.53861  1.0000
  C   C237      1.0  0.53961  0.31567  0.34057  1.0000
  C   C238      1.0  0.53399  0.27628  0.33007  1.0000
  C   C239      1.0  0.53433  0.28484  0.41443  1.0000
  C   C240      1.0  0.53682  0.30418  0.41827  1.0000
  H   H148      1.0  0.53753  0.31027  0.47973  1.0000
  C   C241      1.0  0.53458  0.25824  0.32259  1.0000
  C   C242      1.0  0.53941  0.22418  0.32499  1.0000
  C   C243      1.0  0.52319  0.22383  0.36926  1.0000
  C   C244      1.0  0.52071  0.24060  0.36718  1.0000
  H   H149      1.0  0.51350  0.21165  0.40575  1.0000
  H   H150      1.0  0.50905  0.24008  0.40139  1.0000
  N   N8        1.0  0.53372  0.27472  0.49415  1.0000
  O   O15       1.0  0.51923  0.27171  0.54242  1.0000
  O   O16       1.0  0.54946  0.28414  0.53863  1.0000
  C   C245      1.0  0.68607  0.22430  0.34054  1.0000
  C   C246      1.0  0.72546  0.25808  0.33004  1.0000
  C   C247      1.0  0.71691  0.24984  0.41440  1.0000
  C   C248      1.0  0.69757  0.23297  0.41823  1.0000
  H   H151      1.0  0.69148  0.22760  0.47970  1.0000
  C   C249      1.0  0.74349  0.27671  0.32263  1.0000
  C   C250      1.0  0.77755  0.31559  0.32512  1.0000
  C   C251      1.0  0.77791  0.29970  0.36919  1.0000
  C   C252      1.0  0.76114  0.28045  0.36707  1.0000
  H   H152      1.0  0.79008  0.30218  0.40569  1.0000
  H   H153      1.0  0.76165  0.26931  0.40126  1.0000
  N   N9        1.0  0.72703  0.25934  0.49411  1.0000
  O   O17       1.0  0.73005  0.24787  0.54233  1.0000
  O   O18       1.0  0.71760  0.26566  0.53864  1.0000
