data_image0
_chemical_formula_structural       CHC3H2C30H17NHNHNHC30H17NHNHNHC3HCH3COC3HCH3COC2H3COH8C3HCH3COC3HCH3COC2H2CO
_chemical_formula_sum              "C90 H72 N6 O6"
_cell_length_a       45.1164
_cell_length_b       45.1164
_cell_length_c       14.9596
_cell_angle_alpha    90
_cell_angle_beta     90
_cell_angle_gamma    120

_space_group_name_H-M_alt    "P 1"
_space_group_IT_number       1

loop_
  _space_group_symop_operation_xyz
  'x, y, z'

loop_
  _atom_site_type_symbol
  _atom_site_label
  _atom_site_symmetry_multiplicity
  _atom_site_fract_x
  _atom_site_fract_y
  _atom_site_fract_z
  _atom_site_occupancy
  C   C1        1.0  0.01611  0.50013  0.25422  1.0000
  H   H1        1.0  0.02656  0.50000  0.19343  1.0000
  C   C2        1.0  0.02325  0.51342  0.41373  1.0000
  C   C3        1.0  0.03774  0.51255  0.32994  1.0000
  C   C4        1.0  0.04246  0.52353  0.49981  1.0000
  H   H2        1.0  0.02939  0.50319  0.54912  1.0000
  H   H3        1.0  0.04360  0.54679  0.52505  1.0000
  C   C5        1.0  0.13292  0.56954  0.33161  1.0000
  C   C6        1.0  0.15406  0.60474  0.31181  1.0000
  C   C7        1.0  0.18982  0.61959  0.30433  1.0000
  C   C8        1.0  0.20563  0.59968  0.31808  1.0000
  C   C9        1.0  0.18479  0.56465  0.33914  1.0000
  C   C10       1.0  0.14907  0.54996  0.34675  1.0000
  C   C11       1.0  0.24074  0.61354  0.30955  1.0000
  C   C12       1.0  0.26382  0.63986  0.35925  1.0000
  C   C13       1.0  0.29911  0.65346  0.35351  1.0000
  C   C14       1.0  0.31401  0.63231  0.35423  1.0000
  C   C15       1.0  0.34992  0.64633  0.35361  1.0000
  C   C16       1.0  0.37108  0.68238  0.35427  1.0000
  C   C17       1.0  0.35706  0.70428  0.35361  1.0000
  C   C18       1.0  0.32101  0.68937  0.35420  1.0000
  C   C19       1.0  0.37874  0.73957  0.35933  1.0000
  C   C20       1.0  0.37550  0.76264  0.30959  1.0000
  C   C21       1.0  0.39675  0.79775  0.31811  1.0000
  C   C22       1.0  0.38256  0.81859  0.33917  1.0000
  C   C23       1.0  0.43247  0.81357  0.30433  1.0000
  C   C24       1.0  0.45338  0.84933  0.31181  1.0000
  C   C25       1.0  0.43931  0.87047  0.33153  1.0000
  C   C26       1.0  0.40358  0.85431  0.34667  1.0000
  C   C27       1.0  0.36353  0.62465  0.35933  1.0000
  C   C28       1.0  0.38986  0.62789  0.30961  1.0000
  C   C29       1.0  0.40372  0.60664  0.31812  1.0000
  C   C30       1.0  0.38382  0.57093  0.30439  1.0000
  C   C31       1.0  0.43875  0.62084  0.33916  1.0000
  C   C32       1.0  0.45345  0.59982  0.34670  1.0000
  C   C33       1.0  0.43388  0.56409  0.33157  1.0000
  C   C34       1.0  0.39867  0.55002  0.31187  1.0000
  H   H4        1.0  0.14338  0.61981  0.30134  1.0000
  H   H5        1.0  0.20418  0.64500  0.28846  1.0000
  H   H6        1.0  0.31051  0.70493  0.35693  1.0000
  H   H7        1.0  0.29846  0.60626  0.35693  1.0000
  H   H8        1.0  0.39713  0.69288  0.35701  1.0000
  H   H9        1.0  0.35840  0.55986  0.28856  1.0000
  H   H10       1.0  0.35684  0.80790  0.35058  1.0000
  H   H11       1.0  0.47912  0.86001  0.30131  1.0000
  H   H12       1.0  0.44353  0.79921  0.28848  1.0000
  H   H13       1.0  0.38360  0.52427  0.30144  1.0000
  H   H14       1.0  0.45379  0.64656  0.35054  1.0000
  H   H15       1.0  0.35627  0.75457  0.26626  1.0000
  H   H16       1.0  0.39799  0.74799  0.40284  1.0000
  H   H17       1.0  0.24880  0.60235  0.26627  1.0000
  H   H18       1.0  0.25540  0.65069  0.40272  1.0000
  H   H19       1.0  0.40102  0.64713  0.26629  1.0000
  H   H20       1.0  0.35271  0.60540  0.40282  1.0000
  N   N1        1.0  0.46068  0.90526  0.34064  1.0000
  H   H21       1.0  0.48383  0.91281  0.36205  1.0000
  N   N2        1.0  0.09813  0.55612  0.34070  1.0000
  H   H22       1.0  0.09058  0.57172  0.36216  1.0000
  N   N3        1.0  0.44730  0.54272  0.34077  1.0000
  H   H23       1.0  0.43169  0.51957  0.36217  1.0000
  C   C35       1.0  0.87113  0.43316  0.34036  1.0000
  C   C36       1.0  0.84999  0.39795  0.36002  1.0000
  C   C37       1.0  0.81423  0.38311  0.36745  1.0000
  C   C38       1.0  0.79842  0.40302  0.35370  1.0000
  C   C39       1.0  0.81927  0.43806  0.33274  1.0000
  C   C40       1.0  0.85499  0.45275  0.32522  1.0000
  C   C41       1.0  0.76331  0.38916  0.36220  1.0000
  C   C42       1.0  0.74023  0.36285  0.31245  1.0000
  C   C43       1.0  0.70495  0.34924  0.31822  1.0000
  C   C44       1.0  0.69004  0.37039  0.31754  1.0000
  C   C45       1.0  0.65413  0.35638  0.31822  1.0000
  C   C46       1.0  0.63298  0.32032  0.31756  1.0000
  C   C47       1.0  0.64700  0.29842  0.31820  1.0000
  C   C48       1.0  0.68305  0.31333  0.31754  1.0000
  C   C49       1.0  0.62532  0.26314  0.31244  1.0000
  C   C50       1.0  0.62856  0.24006  0.36218  1.0000
  C   C51       1.0  0.60730  0.20495  0.35370  1.0000
  C   C52       1.0  0.62149  0.18410  0.33273  1.0000
  C   C53       1.0  0.57159  0.18914  0.36745  1.0000
  C   C54       1.0  0.55067  0.15338  0.36001  1.0000
  C   C55       1.0  0.56473  0.13224  0.34036  1.0000
  C   C56       1.0  0.60047  0.14838  0.32524  1.0000
  C   C57       1.0  0.64052  0.37806  0.31247  1.0000
  C   C58       1.0  0.61421  0.37482  0.36224  1.0000
  C   C59       1.0  0.60034  0.39606  0.35373  1.0000
  C   C60       1.0  0.62025  0.43178  0.36744  1.0000
  C   C61       1.0  0.56530  0.38186  0.33276  1.0000
  C   C62       1.0  0.55060  0.40288  0.32525  1.0000
  C   C63       1.0  0.57018  0.43861  0.34036  1.0000
  C   C64       1.0  0.60539  0.45269  0.36000  1.0000
  H   H24       1.0  0.86067  0.38288  0.37050  1.0000
  H   H25       1.0  0.79987  0.35769  0.38327  1.0000
  H   H26       1.0  0.69355  0.29777  0.31478  1.0000
  H   H27       1.0  0.70560  0.39644  0.31481  1.0000
  H   H28       1.0  0.60693  0.30983  0.31481  1.0000
  H   H29       1.0  0.64567  0.44285  0.38323  1.0000
  H   H30       1.0  0.64721  0.19478  0.32128  1.0000
  H   H31       1.0  0.52492  0.14271  0.37048  1.0000
  H   H32       1.0  0.56053  0.20351  0.38325  1.0000
  H   H33       1.0  0.62046  0.47844  0.37042  1.0000
  H   H34       1.0  0.55027  0.35614  0.32140  1.0000
  H   H35       1.0  0.64779  0.24813  0.40551  1.0000
  H   H36       1.0  0.60607  0.25471  0.26896  1.0000
  H   H37       1.0  0.75524  0.40031  0.40555  1.0000
  H   H38       1.0  0.74866  0.35203  0.26894  1.0000
  H   H39       1.0  0.60306  0.35559  0.40559  1.0000
  H   H40       1.0  0.65133  0.39729  0.26895  1.0000
  N   N4        1.0  0.54336  0.09744  0.33127  1.0000
  H   H41       1.0  0.52021  0.08990  0.30984  1.0000
  N   N5        1.0  0.90593  0.44659  0.33127  1.0000
  H   H42       1.0  0.91348  0.43099  0.30986  1.0000
  N   N6        1.0  0.55675  0.45998  0.33121  1.0000
  H   H43       1.0  0.57235  0.48314  0.30983  1.0000
  C   C65       1.0  0.49086  0.52589  0.33005  1.0000
  C   C66       1.0  0.51406  0.49220  0.25822  1.0000
  C   C67       1.0  0.50326  0.51670  0.25426  1.0000
  H   H44       1.0  0.50339  0.52730  0.19351  1.0000
  C   C68       1.0  0.52418  0.48314  0.17211  1.0000
  H   H45       1.0  0.52885  0.46175  0.17754  1.0000
  H   H46       1.0  0.54745  0.50527  0.14693  1.0000
  H   H47       1.0  0.50386  0.47590  0.12278  1.0000
  C   C69       1.0  0.47960  0.55007  0.31846  1.0000
  O   O1        1.0  0.49984  0.57825  0.26905  1.0000
  C   C70       1.0  0.47749  0.96563  0.32998  1.0000
  C   C71       1.0  0.51117  0.02256  0.25832  1.0000
  C   C72       1.0  0.48670  0.98725  0.25424  1.0000
  H   H48       1.0  0.47612  0.97680  0.19347  1.0000
  C   C73       1.0  0.52029  0.04176  0.17224  1.0000
  H   H49       1.0  0.54169  0.06781  0.17775  1.0000
  H   H50       1.0  0.49818  0.04292  0.14696  1.0000
  H   H51       1.0  0.52755  0.02868  0.12294  1.0000
  C   C74       1.0  0.45331  0.93020  0.31824  1.0000
  O   O2        1.0  0.42508  0.92226  0.26908  1.0000
  C   C75       1.0  0.98081  0.48929  0.25831  1.0000
  C   C76       1.0  0.96159  0.47918  0.17224  1.0000
  H   H52       1.0  0.93555  0.47453  0.17775  1.0000
  H   H53       1.0  0.96043  0.45590  0.14704  1.0000
  H   H54       1.0  0.97467  0.49950  0.12290  1.0000
  C   C77       1.0  0.07317  0.52385  0.31814  1.0000
  O   O3        1.0  0.08116  0.50358  0.26902  1.0000
  H   H55       1.0  0.13501  0.52487  0.36546  1.0000
  H   H56       1.0  0.19547  0.54962  0.35058  1.0000
  H   H57       1.0  0.39255  0.86837  0.36542  1.0000
  H   H58       1.0  0.47854  0.61086  0.36540  1.0000
  H   H59       1.0  0.86905  0.47783  0.30653  1.0000
  H   H60       1.0  0.80859  0.45309  0.32129  1.0000
  H   H61       1.0  0.61149  0.13432  0.30652  1.0000
  H   H62       1.0  0.52551  0.39184  0.30659  1.0000
  C   C78       1.0  0.48997  0.51048  0.41378  1.0000
  C   C79       1.0  0.50079  0.48600  0.41774  1.0000
  C   C80       1.0  0.51319  0.47680  0.34196  1.0000
  H   H63       1.0  0.50066  0.47539  0.47850  1.0000
  C   C81       1.0  0.47987  0.51955  0.49991  1.0000
  H   H64       1.0  0.47519  0.54093  0.49447  1.0000
  H   H65       1.0  0.50021  0.52680  0.54919  1.0000
  H   H66       1.0  0.45661  0.49742  0.52513  1.0000
  C   C82       1.0  0.52445  0.45261  0.35356  1.0000
  O   O4        1.0  0.50419  0.42442  0.40290  1.0000
  C   C83       1.0  0.49284  0.98013  0.41377  1.0000
  C   C84       1.0  0.51731  0.01545  0.41785  1.0000
  C   C85       1.0  0.52653  0.03706  0.34211  1.0000
  H   H67       1.0  0.52791  0.02589  0.47862  1.0000
  C   C86       1.0  0.48376  0.96092  0.49984  1.0000
  H   H68       1.0  0.46238  0.93486  0.49432  1.0000
  H   H69       1.0  0.47649  0.97398  0.54918  1.0000
  H   H70       1.0  0.50589  0.95979  0.52505  1.0000
  C   C87       1.0  0.55068  0.07249  0.35391  1.0000
  O   O5        1.0  0.57895  0.08046  0.40297  1.0000
  C   C88       1.0  0.98793  0.50257  0.41783  1.0000
  C   C89       1.0  0.96631  0.49015  0.34211  1.0000
  H   H71       1.0  0.97749  0.50269  0.47862  1.0000
  H   H72       1.0  0.06851  0.52819  0.49428  1.0000
  C   C90       1.0  0.93088  0.47885  0.35392  1.0000
  O   O6        1.0  0.92290  0.49914  0.40299  1.0000
