data_image0
_chemical_formula_structural       C16H16C16H16C16H16C2H3NCNC2H3NCNC2H3NCNC2H3NCNC2H3NCNC2H3NCNC3NC3NC5NC5NC36H26C4H4C3NC3NC5NC5NC36H26C4H4C3NC3NC5NC5NC36H26C4H4C2H3NCNC2H3NCNC2H3NCNC2H3NCNC2H3NCNC2H3NCN
_chemical_formula_sum              "C252 H174 N36"
_cell_length_a       67.5201
_cell_length_b       67.52
_cell_length_c       14.8323
_cell_angle_alpha    89.7164
_cell_angle_beta     90.2836
_cell_angle_gamma    120

_space_group_name_H-M_alt    "P 1"
_space_group_IT_number       1

loop_
  _space_group_symop_operation_xyz
  'x, y, z'

loop_
  _atom_site_type_symbol
  _atom_site_label
  _atom_site_symmetry_multiplicity
  _atom_site_fract_x
  _atom_site_fract_y
  _atom_site_fract_z
  _atom_site_occupancy
  C   C1        1.0  0.13124  0.68350  0.28667  1.0000
  C   C2        1.0  0.11211  0.66125  0.28153  1.0000
  C   C3        1.0  0.16523  0.73436  0.31686  1.0000
  C   C4        1.0  0.18534  0.75589  0.32455  1.0000
  C   C5        1.0  0.13064  0.54227  0.27988  1.0000
  C   C6        1.0  0.11244  0.54685  0.27716  1.0000
  C   C7        1.0  0.19515  0.54149  0.32251  1.0000
  C   C8        1.0  0.17668  0.54567  0.31796  1.0000
  C   C9        1.0  0.96814  0.47451  0.28183  1.0000
  C   C10       1.0  0.94919  0.45217  0.28726  1.0000
  C   C11       1.0  0.89606  0.37937  0.32301  1.0000
  C   C12       1.0  0.91594  0.40106  0.31492  1.0000
  C   C13       1.0  0.96851  0.58849  0.27716  1.0000
  C   C14       1.0  0.95016  0.59284  0.27998  1.0000
  C   C15       1.0  0.90391  0.58873  0.31819  1.0000
  C   C16       1.0  0.88525  0.59259  0.32284  1.0000
  H   H1        1.0  0.87062  0.58179  0.28846  1.0000
  H   H2        1.0  0.90197  0.57505  0.28168  1.0000
  H   H3        1.0  0.94171  0.59177  0.22120  1.0000
  H   H4        1.0  0.97252  0.58393  0.21723  1.0000
  H   H5        1.0  0.97268  0.48250  0.22042  1.0000
  H   H6        1.0  0.94043  0.44470  0.22926  1.0000
  H   H7        1.0  0.10841  0.55157  0.21726  1.0000
  H   H8        1.0  0.13899  0.54337  0.22108  1.0000
  H   H9        1.0  0.17878  0.55951  0.28170  1.0000
  H   H10       1.0  0.20980  0.55224  0.28826  1.0000
  H   H11       1.0  0.10683  0.65368  0.21977  1.0000
  H   H12       1.0  0.13935  0.69132  0.22807  1.0000
  H   H13       1.0  0.18766  0.76870  0.28116  1.0000
  H   H14       1.0  0.15358  0.73234  0.26821  1.0000
  H   H15       1.0  0.92703  0.40359  0.26359  1.0000
  H   H16       1.0  0.89332  0.36698  0.27714  1.0000
  C   C17       1.0  0.42351  0.54012  0.28921  1.0000
  C   C18       1.0  0.44574  0.54322  0.28435  1.0000
  C   C19       1.0  0.37261  0.52315  0.31857  1.0000
  C   C20       1.0  0.35108  0.52172  0.32587  1.0000
  C   C21       1.0  0.56467  0.68073  0.28362  1.0000
  C   C22       1.0  0.56010  0.65795  0.28085  1.0000
  C   C23       1.0  0.56546  0.74592  0.32629  1.0000
  C   C24       1.0  0.56126  0.72327  0.32178  1.0000
  C   C25       1.0  0.63235  0.58595  0.28470  1.0000
  C   C26       1.0  0.65469  0.58932  0.28981  1.0000
  C   C27       1.0  0.72752  0.60890  0.32424  1.0000
  C   C28       1.0  0.70583  0.60714  0.31660  1.0000
  C   C29       1.0  0.51844  0.47236  0.28082  1.0000
  C   C30       1.0  0.51410  0.44966  0.28368  1.0000
  C   C31       1.0  0.51822  0.40744  0.32197  1.0000
  C   C32       1.0  0.51435  0.38490  0.32665  1.0000
  H   H17       1.0  0.52516  0.38115  0.29227  1.0000
  H   H18       1.0  0.53190  0.41926  0.28546  1.0000
  H   H19       1.0  0.51518  0.44240  0.22492  1.0000
  H   H20       1.0  0.52302  0.48106  0.22089  1.0000
  H   H21       1.0  0.62430  0.58257  0.22342  1.0000
  H   H22       1.0  0.66211  0.58812  0.23170  1.0000
  H   H23       1.0  0.55539  0.64933  0.22094  1.0000
  H   H24       1.0  0.56359  0.68811  0.22483  1.0000
  H   H25       1.0  0.54744  0.71161  0.28542  1.0000
  H   H26       1.0  0.55471  0.74989  0.29201  1.0000
  H   H27       1.0  0.45338  0.54571  0.22271  1.0000
  H   H28       1.0  0.41573  0.54055  0.23050  1.0000
  H   H29       1.0  0.33832  0.51136  0.28220  1.0000
  H   H30       1.0  0.37469  0.51367  0.26990  1.0000
  H   H31       1.0  0.70324  0.61577  0.26528  1.0000
  H   H32       1.0  0.73986  0.61864  0.27816  1.0000
  C   C33       1.0  0.56685  0.97570  0.29230  1.0000
  C   C34       1.0  0.56375  0.99485  0.28731  1.0000
  C   C35       1.0  0.58382  0.94173  0.32196  1.0000
  C   C36       1.0  0.58527  0.92163  0.32940  1.0000
  C   C37       1.0  0.42631  0.97637  0.28448  1.0000
  C   C38       1.0  0.44908  0.99458  0.28225  1.0000
  C   C39       1.0  0.36106  0.91183  0.32543  1.0000
  C   C40       1.0  0.38371  0.93030  0.32145  1.0000
  C   C41       1.0  0.52096  0.13875  0.28768  1.0000
  C   C42       1.0  0.51761  0.15772  0.29294  1.0000
  C   C43       1.0  0.49802  0.21085  0.32778  1.0000
  C   C44       1.0  0.49978  0.19095  0.32003  1.0000
  C   C45       1.0  0.63447  0.13833  0.28215  1.0000
  C   C46       1.0  0.65717  0.15669  0.28451  1.0000
  C   C47       1.0  0.69943  0.20297  0.32165  1.0000
  C   C48       1.0  0.72198  0.22164  0.32579  1.0000
  H   H33       1.0  0.72568  0.23623  0.29117  1.0000
  H   H34       1.0  0.68757  0.20488  0.28532  1.0000
  H   H35       1.0  0.66436  0.16508  0.22555  1.0000
  H   H36       1.0  0.62570  0.13427  0.22238  1.0000
  H   H37       1.0  0.52431  0.13421  0.22634  1.0000
  H   H38       1.0  0.51878  0.16645  0.23486  1.0000
  H   H39       1.0  0.45778  0.99868  0.22250  1.0000
  H   H40       1.0  0.41900  0.96811  0.22549  1.0000
  H   H41       1.0  0.39543  0.92825  0.28532  1.0000
  H   H42       1.0  0.35713  0.89723  0.29095  1.0000
  H   H43       1.0  0.56132  0.00015  0.22561  1.0000
  H   H44       1.0  0.56648  0.96764  0.23362  1.0000
  H   H45       1.0  0.59565  0.91933  0.28586  1.0000
  H   H46       1.0  0.59333  0.95341  0.27340  1.0000
  H   H47       1.0  0.49114  0.17985  0.26870  1.0000
  H   H48       1.0  0.48828  0.21357  0.28174  1.0000
  C   C49       1.0  0.28768  0.52757  0.17136  1.0000
  C   C50       1.0  0.27974  0.52808  0.26360  1.0000
  H   H49       1.0  0.27468  0.51239  0.13640  1.0000
  H   H50       1.0  0.30363  0.52718  0.17091  1.0000
  H   H51       1.0  0.29037  0.54272  0.13433  1.0000
  N   N1        1.0  0.25991  0.52861  0.27137  1.0000
  C   C51       1.0  0.25017  0.52902  0.35074  1.0000
  N   N2        1.0  0.23165  0.53123  0.34674  1.0000
  C   C52       1.0  0.57934  0.85265  0.17503  1.0000
  C   C53       1.0  0.57885  0.84403  0.26729  1.0000
  H   H52       1.0  0.59453  0.85491  0.14005  1.0000
  H   H53       1.0  0.57974  0.86900  0.17456  1.0000
  H   H54       1.0  0.56419  0.84026  0.13805  1.0000
  N   N3        1.0  0.57832  0.82365  0.27511  1.0000
  C   C54       1.0  0.57793  0.81334  0.35451  1.0000
  N   N4        1.0  0.57571  0.79261  0.35054  1.0000
  C   C55       1.0  0.25453  0.81950  0.17147  1.0000
  C   C56       1.0  0.26303  0.82732  0.26394  1.0000
  H   H55       1.0  0.25230  0.83253  0.13659  1.0000
  H   H56       1.0  0.23819  0.80354  0.17057  1.0000
  H   H57       1.0  0.26697  0.81685  0.13464  1.0000
  N   N5        1.0  0.28339  0.84715  0.27228  1.0000
  C   C57       1.0  0.29360  0.85680  0.35193  1.0000
  N   N6        1.0  0.31433  0.87532  0.34848  1.0000
  C   C58       1.0  0.79127  0.60462  0.17270  1.0000
  C   C59       1.0  0.79954  0.60432  0.26491  1.0000
  H   H58       1.0  0.80402  0.61986  0.13716  1.0000
  H   H59       1.0  0.77518  0.60474  0.17232  1.0000
  H   H60       1.0  0.78870  0.58952  0.13619  1.0000
  N   N7        1.0  0.81956  0.60413  0.27261  1.0000
  C   C60       1.0  0.82962  0.60396  0.35194  1.0000
  N   N8        1.0  0.84831  0.60207  0.34788  1.0000
  C   C61       1.0  0.50233  0.27925  0.17640  1.0000
  C   C62       1.0  0.50262  0.28760  0.26862  1.0000
  H   H61       1.0  0.48708  0.27683  0.14087  1.0000
  H   H62       1.0  0.50220  0.26303  0.17599  1.0000
  H   H63       1.0  0.51743  0.29186  0.13990  1.0000
  N   N9        1.0  0.50281  0.30779  0.27636  1.0000
  C   C63       1.0  0.50297  0.31784  0.35571  1.0000
  N   N10       1.0  0.50487  0.33843  0.35167  1.0000
  C   C64       1.0  0.82746  0.31541  0.17288  1.0000
  C   C65       1.0  0.81922  0.30726  0.26531  1.0000
  H   H64       1.0  0.82983  0.30262  0.13747  1.0000
  H   H65       1.0  0.84367  0.33150  0.17207  1.0000
  H   H66       1.0  0.81480  0.31794  0.13651  1.0000
  N   N11       1.0  0.79903  0.28725  0.27355  1.0000
  C   C66       1.0  0.78908  0.27729  0.35316  1.0000
  N   N12       1.0  0.76848  0.25859  0.34962  1.0000
  C   C67       1.0  0.02926  0.62447  0.35215  1.0000
  C   C68       1.0  0.05290  0.63614  0.35294  1.0000
  C   C69       1.0  0.06025  0.62012  0.35499  1.0000
  N   N13       1.0  0.04080  0.59942  0.35539  1.0000
  C   C70       1.0  0.02155  0.60103  0.35421  1.0000
  C   C71       1.0  0.99815  0.58343  0.35517  1.0000
  C   C72       1.0  0.99060  0.55963  0.35666  1.0000
  N   N14       1.0  0.00337  0.54931  0.35450  1.0000
  C   C73       1.0  0.99035  0.52624  0.35760  1.0000
  C   C74       1.0  0.96772  0.52148  0.36203  1.0000
  C   C75       1.0  0.96788  0.54198  0.36145  1.0000
  C   C76       1.0  0.99759  0.50976  0.35687  1.0000
  C   C77       1.0  0.02087  0.51519  0.35512  1.0000
  N   N15       1.0  0.04031  0.53590  0.35588  1.0000
  C   C78       1.0  0.05956  0.53429  0.35433  1.0000
  C   C79       1.0  0.05184  0.51085  0.35179  1.0000
  C   C80       1.0  0.02821  0.49918  0.35249  1.0000
  C   C81       1.0  0.08296  0.55188  0.35519  1.0000
  C   C82       1.0  0.09052  0.57568  0.35649  1.0000
  N   N16       1.0  0.07773  0.58599  0.35457  1.0000
  C   C83       1.0  0.09076  0.60906  0.35734  1.0000
  C   C84       1.0  0.11341  0.61382  0.36115  1.0000
  C   C85       1.0  0.11325  0.59332  0.36075  1.0000
  C   C86       1.0  0.08352  0.62554  0.35679  1.0000
  C   C87       1.0  0.10101  0.64908  0.36060  1.0000
  C   C88       1.0  0.10931  0.65982  0.44472  1.0000
  C   C89       1.0  0.12846  0.68200  0.44955  1.0000
  C   C90       1.0  0.14012  0.69422  0.37085  1.0000
  C   C91       1.0  0.16065  0.71615  0.37683  1.0000
  C   C92       1.0  0.20173  0.76001  0.39256  1.0000
  C   C93       1.0  0.19736  0.74176  0.45164  1.0000
  C   C94       1.0  0.17735  0.72032  0.44364  1.0000
  C   C95       1.0  0.10018  0.54543  0.35616  1.0000
  C   C96       1.0  0.10654  0.53921  0.43772  1.0000
  C   C97       1.0  0.12466  0.53452  0.44005  1.0000
  C   C98       1.0  0.13722  0.53606  0.36138  1.0000
  C   C99       1.0  0.15596  0.53167  0.36453  1.0000
  C   C100      1.0  0.15451  0.51317  0.41524  1.0000
  C   C101      1.0  0.17289  0.50891  0.41949  1.0000
  C   C102      1.0  0.19367  0.52298  0.37344  1.0000
  C   C103      1.0  0.98012  0.48621  0.36038  1.0000
  C   C104      1.0  0.94139  0.44083  0.37128  1.0000
  C   C105      1.0  0.95392  0.45259  0.44933  1.0000
  C   C106      1.0  0.97287  0.47488  0.44420  1.0000
  C   C107      1.0  0.92109  0.41874  0.37789  1.0000
  C   C108      1.0  0.90517  0.41385  0.44828  1.0000
  C   C109      1.0  0.88537  0.39224  0.45663  1.0000
  C   C110      1.0  0.88044  0.37453  0.39444  1.0000
  C   C111      1.0  0.98091  0.58985  0.35616  1.0000
  C   C112      1.0  0.97455  0.59580  0.43780  1.0000
  C   C113      1.0  0.95629  0.60027  0.44022  1.0000
  C   C114      1.0  0.94357  0.59875  0.36159  1.0000
  C   C115      1.0  0.92463  0.60283  0.36488  1.0000
  C   C116      1.0  0.88653  0.61086  0.37407  1.0000
  C   C117      1.0  0.90730  0.62503  0.42027  1.0000
  C   C118      1.0  0.92587  0.62108  0.41592  1.0000
  H   H67       1.0  0.90915  0.63849  0.45818  1.0000
  H   H68       1.0  0.94056  0.63202  0.44968  1.0000
  H   H69       1.0  0.95188  0.60392  0.50120  1.0000
  H   H70       1.0  0.98287  0.59643  0.49651  1.0000
  H   H71       1.0  0.01950  0.63213  0.35081  1.0000
  H   H72       1.0  0.06290  0.65354  0.35208  1.0000
  H   H73       1.0  0.04068  0.58515  0.35819  1.0000
  H   H74       1.0  0.04043  0.55016  0.35924  1.0000
  H   H75       1.0  0.95357  0.54345  0.36504  1.0000
  H   H76       1.0  0.95328  0.50579  0.36582  1.0000
  H   H77       1.0  0.98097  0.48304  0.50245  1.0000
  H   H78       1.0  0.94920  0.44509  0.51151  1.0000
  H   H79       1.0  0.01821  0.48179  0.35103  1.0000
  H   H80       1.0  0.06160  0.50319  0.34986  1.0000
  H   H81       1.0  0.12786  0.62951  0.36443  1.0000
  H   H82       1.0  0.12757  0.59184  0.36396  1.0000
  H   H83       1.0  0.09831  0.53851  0.49641  1.0000
  H   H84       1.0  0.12907  0.53065  0.50095  1.0000
  H   H85       1.0  0.17089  0.49529  0.45720  1.0000
  H   H86       1.0  0.13981  0.50230  0.44892  1.0000
  H   H87       1.0  0.17525  0.70764  0.48726  1.0000
  H   H88       1.0  0.20879  0.74389  0.50158  1.0000
  H   H89       1.0  0.13397  0.68905  0.51195  1.0000
  H   H90       1.0  0.10189  0.65129  0.50326  1.0000
  H   H91       1.0  0.90768  0.42613  0.49427  1.0000
  H   H92       1.0  0.87452  0.38961  0.50909  1.0000
  C   C119      1.0  0.22125  0.78125  0.40582  1.0000
  C   C120      1.0  0.21164  0.51834  0.38045  1.0000
  C   C121      1.0  0.86110  0.35312  0.40758  1.0000
  C   C122      1.0  0.86836  0.61519  0.38113  1.0000
  H   H93       1.0  0.22733  0.78534  0.46840  1.0000
  H   H94       1.0  0.87099  0.62911  0.41418  1.0000
  H   H95       1.0  0.85529  0.34871  0.47029  1.0000
  H   H96       1.0  0.20890  0.50436  0.41385  1.0000
  C   C123      1.0  0.48246  0.49697  0.35561  1.0000
  C   C124      1.0  0.47080  0.50895  0.35628  1.0000
  C   C125      1.0  0.48681  0.53230  0.35838  1.0000
  N   N17       1.0  0.50752  0.53356  0.35891  1.0000
  C   C126      1.0  0.50590  0.51269  0.35773  1.0000
  C   C127      1.0  0.52351  0.50690  0.35876  1.0000
  C   C128      1.0  0.54731  0.52315  0.36018  1.0000
  N   N18       1.0  0.55762  0.54624  0.35798  1.0000
  C   C129      1.0  0.58069  0.55628  0.36098  1.0000
  C   C130      1.0  0.58546  0.53841  0.36535  1.0000
  C   C131      1.0  0.56496  0.51806  0.36498  1.0000
  C   C132      1.0  0.59717  0.58001  0.36023  1.0000
  C   C133      1.0  0.59174  0.59786  0.35861  1.0000
  N   N19       1.0  0.57103  0.59659  0.35949  1.0000
  C   C134      1.0  0.57265  0.61745  0.35796  1.0000
  C   C135      1.0  0.59608  0.63318  0.35543  1.0000
  C   C136      1.0  0.60774  0.62121  0.35603  1.0000
  C   C137      1.0  0.55505  0.62325  0.35882  1.0000
  C   C138      1.0  0.53125  0.60701  0.36009  1.0000
  N   N20       1.0  0.52094  0.58392  0.35812  1.0000
  C   C139      1.0  0.49787  0.57387  0.36077  1.0000
  C   C140      1.0  0.49310  0.59174  0.36457  1.0000
  C   C141      1.0  0.51361  0.61209  0.36428  1.0000
  C   C142      1.0  0.48139  0.55014  0.36011  1.0000
  C   C143      1.0  0.45785  0.54409  0.36359  1.0000
  C   C144      1.0  0.44703  0.54141  0.44757  1.0000
  C   C145      1.0  0.42485  0.53837  0.45209  1.0000
  C   C146      1.0  0.41269  0.53801  0.37323  1.0000
  C   C147      1.0  0.39076  0.53661  0.37889  1.0000
  C   C148      1.0  0.34688  0.53378  0.39386  1.0000
  C   C149      1.0  0.36505  0.54749  0.45330  1.0000
  C   C150      1.0  0.38650  0.54893  0.44568  1.0000
  C   C151      1.0  0.56150  0.64693  0.35985  1.0000
  C   C152      1.0  0.56771  0.65931  0.44144  1.0000
  C   C153      1.0  0.57240  0.68212  0.44381  1.0000
  C   C154      1.0  0.57087  0.69332  0.36515  1.0000
  C   C155      1.0  0.57526  0.71644  0.36833  1.0000
  C   C156      1.0  0.59375  0.73338  0.41911  1.0000
  C   C157      1.0  0.59802  0.75602  0.42333  1.0000
  C   C158      1.0  0.58396  0.76282  0.37726  1.0000
  C   C159      1.0  0.62073  0.58609  0.36344  1.0000
  C   C160      1.0  0.66612  0.59273  0.37364  1.0000
  C   C161      1.0  0.65444  0.59337  0.45187  1.0000
  C   C162      1.0  0.63214  0.59004  0.44709  1.0000
  C   C163      1.0  0.68822  0.59451  0.37989  1.0000
  C   C164      1.0  0.69319  0.58337  0.45022  1.0000
  C   C165      1.0  0.71480  0.58516  0.45816  1.0000
  C   C166      1.0  0.73244  0.59803  0.39561  1.0000
  C   C167      1.0  0.51708  0.48323  0.35979  1.0000
  C   C168      1.0  0.51114  0.47076  0.44145  1.0000
  C   C169      1.0  0.50668  0.44803  0.44392  1.0000
  C   C170      1.0  0.50819  0.43699  0.36530  1.0000
  C   C171      1.0  0.50412  0.41397  0.36864  1.0000
  C   C172      1.0  0.49609  0.36781  0.37789  1.0000
  C   C173      1.0  0.48192  0.37431  0.42408  1.0000
  C   C174      1.0  0.48586  0.39685  0.41967  1.0000
  H   H97       1.0  0.46846  0.36263  0.46199  1.0000
  H   H98       1.0  0.47493  0.40053  0.45344  1.0000
  H   H99       1.0  0.50301  0.43983  0.50490  1.0000
  H   H100      1.0  0.51051  0.47833  0.50014  1.0000
  H   H101      1.0  0.47480  0.47955  0.35422  1.0000
  H   H102      1.0  0.45340  0.50154  0.35533  1.0000
  H   H103      1.0  0.52179  0.54771  0.36178  1.0000
  H   H104      1.0  0.55677  0.58244  0.36264  1.0000
  H   H105      1.0  0.56348  0.50228  0.36858  1.0000
  H   H106      1.0  0.60115  0.53965  0.36924  1.0000
  H   H107      1.0  0.62404  0.58987  0.50547  1.0000
  H   H108      1.0  0.66201  0.59605  0.51394  1.0000
  H   H109      1.0  0.62514  0.62861  0.35450  1.0000
  H   H110      1.0  0.60374  0.65060  0.35350  1.0000
  H   H111      1.0  0.47741  0.59050  0.36772  1.0000
  H   H112      1.0  0.51508  0.62788  0.36744  1.0000
  H   H113      1.0  0.56841  0.65165  0.50011  1.0000
  H   H114      1.0  0.57628  0.69027  0.50471  1.0000
  H   H115      1.0  0.61164  0.76755  0.46105  1.0000
  H   H116      1.0  0.60463  0.72948  0.45274  1.0000
  H   H117      1.0  0.39914  0.55939  0.48954  1.0000
  H   H118      1.0  0.36287  0.55663  0.50322  1.0000
  H   H119      1.0  0.41774  0.53667  0.51439  1.0000
  H   H120      1.0  0.45552  0.54240  0.50622  1.0000
  H   H121      1.0  0.68097  0.57353  0.49645  1.0000
  H   H122      1.0  0.71750  0.57686  0.51059  1.0000
  C   C175      1.0  0.32563  0.53206  0.40664  1.0000
  C   C176      1.0  0.58861  0.78543  0.38424  1.0000
  C   C177      1.0  0.75386  0.60004  0.40829  1.0000
  C   C178      1.0  0.49176  0.34530  0.38497  1.0000
  H   H123      1.0  0.32148  0.53395  0.46907  1.0000
  H   H124      1.0  0.47784  0.33394  0.41805  1.0000
  H   H125      1.0  0.75835  0.59852  0.47089  1.0000
  H   H126      1.0  0.60259  0.79660  0.41761  1.0000
  C   C179      1.0  0.60996  0.07766  0.35804  1.0000
  C   C180      1.0  0.59798  0.05402  0.35894  1.0000
  C   C181      1.0  0.57463  0.04667  0.36104  1.0000
  N   N21       1.0  0.57337  0.06612  0.36145  1.0000
  C   C182      1.0  0.59424  0.08537  0.36006  1.0000
  C   C183      1.0  0.60003  0.10876  0.36083  1.0000
  C   C184      1.0  0.58378  0.11632  0.36239  1.0000
  N   N22       1.0  0.56069  0.10354  0.36040  1.0000
  C   C185      1.0  0.55065  0.11657  0.36357  1.0000
  C   C186      1.0  0.56853  0.13920  0.36789  1.0000
  C   C187      1.0  0.58887  0.13904  0.36715  1.0000
  C   C188      1.0  0.52692  0.10933  0.36295  1.0000
  C   C189      1.0  0.50908  0.08606  0.36116  1.0000
  N   N23       1.0  0.51035  0.06661  0.36195  1.0000
  C   C190      1.0  0.48948  0.04736  0.36023  1.0000
  C   C191      1.0  0.47376  0.05508  0.35762  1.0000
  C   C192      1.0  0.48573  0.07872  0.35843  1.0000
  C   C193      1.0  0.48368  0.02397  0.36100  1.0000
  C   C194      1.0  0.49992  0.01641  0.36243  1.0000
  N   N24       1.0  0.52302  0.02919  0.36064  1.0000
  C   C195      1.0  0.53306  0.01616  0.36340  1.0000
  C   C196      1.0  0.51519  0.99351  0.36709  1.0000
  C   C197      1.0  0.49484  0.99367  0.36659  1.0000
  C   C198      1.0  0.55678  0.02340  0.36284  1.0000
  C   C199      1.0  0.56284  0.00591  0.36648  1.0000
  C   C200      1.0  0.56547  0.99758  0.45053  1.0000
  C   C201      1.0  0.56851  0.97843  0.45518  1.0000
  C   C202      1.0  0.56891  0.96681  0.37640  1.0000
  C   C203      1.0  0.57033  0.94628  0.38217  1.0000
  C   C204      1.0  0.57317  0.90520  0.39732  1.0000
  C   C205      1.0  0.55944  0.90953  0.45664  1.0000
  C   C206      1.0  0.55798  0.92955  0.44892  1.0000
  C   C207      1.0  0.46001  0.00674  0.36153  1.0000
  C   C208      1.0  0.44751  0.00029  0.44287  1.0000
  C   C209      1.0  0.42470  0.98218  0.44470  1.0000
  C   C210      1.0  0.41361  0.96970  0.36575  1.0000
  C   C211      1.0  0.39048  0.95096  0.36838  1.0000
  C   C212      1.0  0.37348  0.95235  0.41888  1.0000
  C   C213      1.0  0.35083  0.93397  0.42257  1.0000
  C   C214      1.0  0.34408  0.91326  0.37615  1.0000
  C   C215      1.0  0.52085  0.12680  0.36634  1.0000
  C   C216      1.0  0.51422  0.16553  0.37685  1.0000
  C   C217      1.0  0.51361  0.15304  0.45500  1.0000
  C   C218      1.0  0.51695  0.13408  0.45007  1.0000
  C   C219      1.0  0.51243  0.18584  0.38324  1.0000
  C   C220      1.0  0.52357  0.20178  0.45359  1.0000
  C   C221      1.0  0.52179  0.22158  0.46162  1.0000
  C   C222      1.0  0.50892  0.22650  0.39914  1.0000
  C   C223      1.0  0.62370  0.12601  0.36141  1.0000
  C   C224      1.0  0.63627  0.13245  0.44282  1.0000
  C   C225      1.0  0.65901  0.15072  0.44478  1.0000
  C   C226      1.0  0.66994  0.16336  0.36588  1.0000
  C   C227      1.0  0.69297  0.18231  0.36868  1.0000
  C   C228      1.0  0.73914  0.22042  0.37677  1.0000
  C   C229      1.0  0.73270  0.19970  0.42331  1.0000
  C   C230      1.0  0.71015  0.18112  0.41947  1.0000
  H   H127      1.0  0.74443  0.19789  0.46107  1.0000
  H   H128      1.0  0.70652  0.16647  0.45348  1.0000
  H   H129      1.0  0.66727  0.15521  0.50561  1.0000
  H   H130      1.0  0.62877  0.12420  0.50171  1.0000
  H   H131      1.0  0.62737  0.08741  0.35651  1.0000
  H   H132      1.0  0.60538  0.04402  0.35801  1.0000
  H   H133      1.0  0.55923  0.06624  0.36408  1.0000
  H   H134      1.0  0.52449  0.06649  0.36539  1.0000
  H   H135      1.0  0.60466  0.15335  0.37084  1.0000
  H   H136      1.0  0.56729  0.15364  0.37189  1.0000
  H   H137      1.0  0.51712  0.12600  0.50838  1.0000
  H   H138      1.0  0.51094  0.15777  0.51712  1.0000
  H   H139      1.0  0.47833  0.08871  0.35694  1.0000
  H   H140      1.0  0.45634  0.04533  0.35559  1.0000
  H   H141      1.0  0.51643  0.97906  0.37021  1.0000
  H   H142      1.0  0.47905  0.97935  0.36960  1.0000
  H   H143      1.0  0.45510  0.00846  0.50174  1.0000
  H   H144      1.0  0.41648  0.97770  0.50545  1.0000
  H   H145      1.0  0.33925  0.93593  0.46013  1.0000
  H   H146      1.0  0.37734  0.96701  0.45278  1.0000
  H   H147      1.0  0.54751  0.93163  0.49268  1.0000
  H   H148      1.0  0.55027  0.89809  0.50653  1.0000
  H   H149      1.0  0.57018  0.97289  0.51753  1.0000
  H   H150      1.0  0.56445  0.00496  0.50913  1.0000
  H   H151      1.0  0.53343  0.19929  0.49974  1.0000
  H   H152      1.0  0.53010  0.23247  0.51404  1.0000
  C   C231      1.0  0.57491  0.88566  0.41023  1.0000
  C   C232      1.0  0.32147  0.89528  0.38260  1.0000
  C   C233      1.0  0.50690  0.24587  0.41189  1.0000
  C   C234      1.0  0.76166  0.23859  0.38329  1.0000
  H   H153      1.0  0.57302  0.87950  0.47269  1.0000
  H   H154      1.0  0.77306  0.23600  0.41628  1.0000
  H   H155      1.0  0.50843  0.25174  0.47451  1.0000
  H   H156      1.0  0.31026  0.89798  0.41590  1.0000
  C   C235      1.0  0.26186  0.52952  0.43113  1.0000
  C   C236      1.0  0.25413  0.53129  0.52225  1.0000
  H   H157      1.0  0.25211  0.54632  0.52612  1.0000
  H   H158      1.0  0.26646  0.53285  0.57371  1.0000
  H   H159      1.0  0.23782  0.51604  0.53732  1.0000
  N   N25       1.0  0.28187  0.52940  0.42310  1.0000
  C   C237      1.0  0.29153  0.52861  0.34372  1.0000
  N   N26       1.0  0.31178  0.52952  0.34180  1.0000
  C   C238      1.0  0.57744  0.82437  0.43487  1.0000
  C   C239      1.0  0.57569  0.81469  0.52601  1.0000
  H   H160      1.0  0.56066  0.79764  0.52994  1.0000
  H   H161      1.0  0.57414  0.82535  0.57746  1.0000
  H   H162      1.0  0.59094  0.81359  0.54105  1.0000
  N   N27       1.0  0.57756  0.84452  0.42680  1.0000
  C   C240      1.0  0.57834  0.85512  0.34740  1.0000
  N   N28       1.0  0.57743  0.87447  0.34542  1.0000
  C   C241      1.0  0.28247  0.84500  0.43200  1.0000
  C   C242      1.0  0.29202  0.85262  0.52337  1.0000
  H   H163      1.0  0.30907  0.85464  0.52757  1.0000
  H   H164      1.0  0.28130  0.84023  0.57451  1.0000
  H   H165      1.0  0.29309  0.86891  0.53865  1.0000
  N   N29       1.0  0.26233  0.82500  0.42341  1.0000
  C   C243      1.0  0.25183  0.81544  0.34374  1.0000
  N   N30       1.0  0.23250  0.79517  0.34128  1.0000
  C   C244      1.0  0.81807  0.60335  0.43240  1.0000
  C   C245      1.0  0.82615  0.60181  0.52354  1.0000
  H   H166      1.0  0.82844  0.58695  0.52791  1.0000
  H   H167      1.0  0.81390  0.60011  0.57511  1.0000
  H   H168      1.0  0.84239  0.61721  0.53801  1.0000
  N   N31       1.0  0.79787  0.60314  0.42447  1.0000
  C   C246      1.0  0.78790  0.60370  0.34512  1.0000
  N   N32       1.0  0.76751  0.60249  0.34330  1.0000
  C   C247      1.0  0.50359  0.30672  0.43616  1.0000
  C   C248      1.0  0.50512  0.31613  0.52731  1.0000
  H   H169      1.0  0.51999  0.33328  0.53170  1.0000
  H   H170      1.0  0.50683  0.30547  0.57886  1.0000
  H   H171      1.0  0.48972  0.31693  0.54179  1.0000
  N   N33       1.0  0.50379  0.28675  0.42819  1.0000
  C   C249      1.0  0.50324  0.27641  0.34881  1.0000
  N   N34       1.0  0.50445  0.25723  0.34695  1.0000
  C   C250      1.0  0.80030  0.28894  0.43331  1.0000
  C   C251      1.0  0.79100  0.28098  0.52469  1.0000
  H   H172      1.0  0.77385  0.27869  0.52931  1.0000
  H   H173      1.0  0.80172  0.29331  0.57595  1.0000
  H   H174      1.0  0.79022  0.26477  0.53941  1.0000
  N   N35       1.0  0.82026  0.30913  0.42484  1.0000
  C   C252      1.0  0.83050  0.31900  0.34521  1.0000
  N   N36       1.0  0.84968  0.33939  0.34289  1.0000
