data_image0
_chemical_formula_structural       C3HCH3C3HCH3C3HCH3C3HCH3C3HCH3C3HCH3C3HCH3C3HCH3C3HCH3CNCNCNC18H12CNCNCNC18H12CNCNCNC18H12CNCNCNC18H12CNCNCNC18H12CNCNCNC18H12C3HCH3C3HCH3C3HCH3C3HCH3C3HCH3C3HCH3C3HCH3C3HCH3C3HCH3
_chemical_formula_sum              "C198 H144 N18"
_cell_length_a       60.3602
_cell_length_b       60.3602
_cell_length_c       15.0064
_cell_angle_alpha    90
_cell_angle_beta     90
_cell_angle_gamma    120

_space_group_name_H-M_alt    "P 1"
_space_group_IT_number       1

loop_
  _space_group_symop_operation_xyz
  'x, y, z'

loop_
  _atom_site_type_symbol
  _atom_site_label
  _atom_site_symmetry_multiplicity
  _atom_site_fract_x
  _atom_site_fract_y
  _atom_site_fract_z
  _atom_site_occupancy
  C   C1        1.0  0.97263  0.48611  0.32989  1.0000
  C   C2        1.0  0.98750  0.49968  0.25444  1.0000
  C   C3        1.0  0.01443  0.51331  0.26256  1.0000
  H   H1        1.0  0.02526  0.52287  0.20803  1.0000
  C   C4        1.0  0.97659  0.49989  0.16558  1.0000
  H   H2        1.0  0.95587  0.48780  0.16236  1.0000
  H   H3        1.0  0.98469  0.49304  0.11483  1.0000
  H   H4        1.0  0.98139  0.51939  0.14888  1.0000
  C   C5        1.0  0.51336  0.48639  0.32989  1.0000
  C   C6        1.0  0.49980  0.48770  0.25444  1.0000
  C   C7        1.0  0.48616  0.50099  0.26257  1.0000
  H   H5        1.0  0.47660  0.50226  0.20804  1.0000
  C   C8        1.0  0.49958  0.47658  0.16558  1.0000
  H   H6        1.0  0.51168  0.46795  0.16235  1.0000
  H   H7        1.0  0.50644  0.49153  0.11484  1.0000
  H   H8        1.0  0.48008  0.46188  0.14887  1.0000
  C   C9        1.0  0.51308  0.02689  0.32987  1.0000
  C   C10       1.0  0.51178  0.01202  0.25443  1.0000
  C   C11       1.0  0.49849  0.98509  0.26256  1.0000
  H   H9        1.0  0.49722  0.97426  0.20804  1.0000
  C   C12       1.0  0.52290  0.02293  0.16558  1.0000
  H   H10       1.0  0.53153  0.04365  0.16234  1.0000
  H   H11       1.0  0.50795  0.01483  0.11482  1.0000
  H   H12       1.0  0.53760  0.01813  0.14887  1.0000
  C   C13       1.0  0.23702  0.52055  0.32100  1.0000
  C   C14       1.0  0.24992  0.51743  0.24691  1.0000
  C   C15       1.0  0.27342  0.51817  0.26141  1.0000
  H   H13       1.0  0.28388  0.51846  0.20709  1.0000
  C   C16       1.0  0.24085  0.51509  0.15325  1.0000
  H   H14       1.0  0.22199  0.51327  0.14841  1.0000
  H   H15       1.0  0.23957  0.49808  0.12262  1.0000
  H   H16       1.0  0.25433  0.53188  0.11511  1.0000
  C   C17       1.0  0.47884  0.71630  0.32094  1.0000
  C   C18       1.0  0.48197  0.73234  0.24689  1.0000
  C   C19       1.0  0.48122  0.75510  0.26135  1.0000
  H   H17       1.0  0.48094  0.76527  0.20702  1.0000
  C   C20       1.0  0.48434  0.72563  0.15325  1.0000
  H   H18       1.0  0.48616  0.70858  0.14840  1.0000
  H   H19       1.0  0.50135  0.74136  0.12267  1.0000
  H   H20       1.0  0.46756  0.72232  0.11505  1.0000
  C   C21       1.0  0.28313  0.76248  0.32094  1.0000
  C   C22       1.0  0.26711  0.74958  0.24685  1.0000
  C   C23       1.0  0.24438  0.72606  0.26134  1.0000
  H   H21       1.0  0.23421  0.71560  0.20702  1.0000
  C   C24       1.0  0.27382  0.75867  0.15322  1.0000
  H   H22       1.0  0.29085  0.77755  0.14840  1.0000
  H   H23       1.0  0.25808  0.75994  0.12266  1.0000
  H   H24       1.0  0.27715  0.74522  0.11500  1.0000
  C   C25       1.0  0.76218  0.47888  0.32202  1.0000
  C   C26       1.0  0.74918  0.48192  0.24811  1.0000
  C   C27       1.0  0.72571  0.48122  0.26291  1.0000
  H   H25       1.0  0.71518  0.48086  0.20870  1.0000
  C   C28       1.0  0.75810  0.48412  0.15431  1.0000
  H   H26       1.0  0.77694  0.48590  0.14920  1.0000
  H   H27       1.0  0.75936  0.50110  0.12351  1.0000
  H   H28       1.0  0.74454  0.46729  0.11652  1.0000
  C   C29       1.0  0.52049  0.28312  0.32208  1.0000
  C   C30       1.0  0.51747  0.26711  0.24813  1.0000
  C   C31       1.0  0.51817  0.24434  0.26296  1.0000
  H   H29       1.0  0.51853  0.23416  0.20878  1.0000
  C   C32       1.0  0.51531  0.27384  0.15433  1.0000
  H   H30       1.0  0.51353  0.29091  0.14920  1.0000
  H   H31       1.0  0.49833  0.25813  0.12346  1.0000
  H   H32       1.0  0.53214  0.27713  0.11658  1.0000
  C   C33       1.0  0.71630  0.23731  0.32208  1.0000
  C   C34       1.0  0.73235  0.25032  0.24817  1.0000
  C   C35       1.0  0.75514  0.27377  0.26298  1.0000
  H   H33       1.0  0.76531  0.28431  0.20879  1.0000
  C   C36       1.0  0.72560  0.24143  0.15436  1.0000
  H   H34       1.0  0.70852  0.22259  0.14922  1.0000
  H   H35       1.0  0.74130  0.24015  0.12348  1.0000
  H   H36       1.0  0.72234  0.25500  0.11664  1.0000
  C   C37       1.0  0.17569  0.60645  0.33654  1.0000
  N   N1        1.0  0.14970  0.59322  0.33951  1.0000
  C   C38       1.0  0.13586  0.56718  0.33500  1.0000
  N   N2        1.0  0.14903  0.55438  0.32689  1.0000
  C   C39       1.0  0.17496  0.56668  0.32221  1.0000
  N   N3        1.0  0.18762  0.59258  0.32759  1.0000
  C   C40       1.0  0.10859  0.55381  0.33822  1.0000
  C   C41       1.0  0.09478  0.56713  0.33801  1.0000
  C   C42       1.0  0.06788  0.55396  0.33985  1.0000
  C   C43       1.0  0.05396  0.52699  0.34296  1.0000
  C   C44       1.0  0.06742  0.51346  0.34303  1.0000
  C   C45       1.0  0.09432  0.52670  0.34077  1.0000
  C   C46       1.0  0.19032  0.63362  0.34299  1.0000
  C   C47       1.0  0.17932  0.64931  0.32907  1.0000
  C   C48       1.0  0.19442  0.67623  0.33168  1.0000
  C   C49       1.0  0.22080  0.68814  0.35110  1.0000
  C   C50       1.0  0.23181  0.67261  0.36612  1.0000
  C   C51       1.0  0.21684  0.64586  0.36211  1.0000
  C   C52       1.0  0.18894  0.55358  0.31398  1.0000
  C   C53       1.0  0.21385  0.56622  0.27697  1.0000
  C   C54       1.0  0.22888  0.55449  0.27517  1.0000
  C   C55       1.0  0.21955  0.52969  0.31055  1.0000
  C   C56       1.0  0.19459  0.51678  0.34662  1.0000
  C   C57       1.0  0.17930  0.52839  0.34670  1.0000
  H   H37       1.0  0.18609  0.68707  0.31872  1.0000
  H   H38       1.0  0.16033  0.64133  0.31377  1.0000
  H   H39       1.0  0.25103  0.68065  0.37794  1.0000
  H   H40       1.0  0.22577  0.63549  0.37291  1.0000
  H   H41       1.0  0.22166  0.58444  0.25257  1.0000
  H   H42       1.0  0.24723  0.56478  0.25161  1.0000
  H   H43       1.0  0.16165  0.51886  0.37607  1.0000
  H   H44       1.0  0.18766  0.49914  0.37523  1.0000
  H   H45       1.0  0.10330  0.51614  0.34092  1.0000
  H   H46       1.0  0.05775  0.49388  0.34421  1.0000
  H   H47       1.0  0.05854  0.56420  0.33919  1.0000
  H   H48       1.0  0.10412  0.58668  0.33561  1.0000
  C   C58       1.0  0.39300  0.56907  0.33646  1.0000
  N   N4        1.0  0.40623  0.55632  0.33947  1.0000
  C   C59       1.0  0.43227  0.56852  0.33498  1.0000
  N   N5        1.0  0.44507  0.59450  0.32686  1.0000
  C   C60       1.0  0.43277  0.60813  0.32216  1.0000
  N   N6        1.0  0.40687  0.59488  0.32750  1.0000
  C   C61       1.0  0.44565  0.55464  0.33822  1.0000
  C   C62       1.0  0.43233  0.52751  0.33804  1.0000
  C   C63       1.0  0.44551  0.51379  0.33987  1.0000
  C   C64       1.0  0.47248  0.52684  0.34300  1.0000
  C   C65       1.0  0.48600  0.55383  0.34307  1.0000
  C   C66       1.0  0.47276  0.56747  0.34080  1.0000
  C   C67       1.0  0.36583  0.55654  0.34288  1.0000
  C   C68       1.0  0.35014  0.52984  0.32905  1.0000
  C   C69       1.0  0.32323  0.51800  0.33178  1.0000
  C   C70       1.0  0.31131  0.53247  0.35119  1.0000
  C   C71       1.0  0.32683  0.55902  0.36597  1.0000
  C   C72       1.0  0.35357  0.57080  0.36191  1.0000
  C   C73       1.0  0.44586  0.63520  0.31391  1.0000
  C   C74       1.0  0.43323  0.64746  0.27672  1.0000
  C   C75       1.0  0.44494  0.67422  0.27499  1.0000
  C   C76       1.0  0.46971  0.68969  0.31053  1.0000
  C   C77       1.0  0.48263  0.67766  0.34668  1.0000
  C   C78       1.0  0.47102  0.65076  0.34681  1.0000
  H   H49       1.0  0.31239  0.49883  0.31897  1.0000
  H   H50       1.0  0.35813  0.51882  0.31393  1.0000
  H   H51       1.0  0.31877  0.57019  0.37773  1.0000
  H   H52       1.0  0.36394  0.59012  0.37259  1.0000
  H   H53       1.0  0.41502  0.63704  0.25221  1.0000
  H   H54       1.0  0.43466  0.68227  0.25125  1.0000
  H   H55       1.0  0.48055  0.64265  0.37627  1.0000
  H   H56       1.0  0.50024  0.68838  0.37545  1.0000
  H   H57       1.0  0.48332  0.58702  0.34094  1.0000
  H   H58       1.0  0.50559  0.56374  0.34425  1.0000
  H   H59       1.0  0.43527  0.49421  0.33919  1.0000
  H   H60       1.0  0.41278  0.51729  0.33558  1.0000
  C   C79       1.0  0.43036  0.82383  0.33656  1.0000
  N   N7        1.0  0.44312  0.84982  0.33954  1.0000
  C   C80       1.0  0.43093  0.86367  0.33500  1.0000
  N   N8        1.0  0.40495  0.85050  0.32687  1.0000
  C   C81       1.0  0.39132  0.82456  0.32218  1.0000
  N   N9        1.0  0.40455  0.81190  0.32757  1.0000
  C   C82       1.0  0.44482  0.89093  0.33823  1.0000
  C   C83       1.0  0.47195  0.90474  0.33803  1.0000
  C   C84       1.0  0.48568  0.93164  0.33987  1.0000
  C   C85       1.0  0.47263  0.94556  0.34297  1.0000
  C   C86       1.0  0.44564  0.93210  0.34303  1.0000
  C   C87       1.0  0.43199  0.90521  0.34078  1.0000
  C   C88       1.0  0.44289  0.80920  0.34301  1.0000
  C   C89       1.0  0.46958  0.82018  0.32906  1.0000
  C   C90       1.0  0.48139  0.80508  0.33166  1.0000
  C   C91       1.0  0.46690  0.77870  0.35112  1.0000
  C   C92       1.0  0.44037  0.76770  0.36621  1.0000
  C   C93       1.0  0.42861  0.78268  0.36220  1.0000
  C   C94       1.0  0.36424  0.81059  0.31392  1.0000
  C   C95       1.0  0.35198  0.78569  0.27681  1.0000
  C   C96       1.0  0.32521  0.77065  0.27500  1.0000
  C   C97       1.0  0.30974  0.77996  0.31049  1.0000
  C   C98       1.0  0.32179  0.80492  0.34665  1.0000
  C   C99       1.0  0.34869  0.82021  0.34674  1.0000
  H   H61       1.0  0.50055  0.81339  0.31865  1.0000
  H   H62       1.0  0.48059  0.83917  0.31371  1.0000
  H   H63       1.0  0.42920  0.74848  0.37807  1.0000
  H   H64       1.0  0.40930  0.77375  0.37304  1.0000
  H   H65       1.0  0.36239  0.77789  0.25234  1.0000
  H   H66       1.0  0.31716  0.75231  0.25137  1.0000
  H   H67       1.0  0.35680  0.83785  0.37618  1.0000
  H   H68       1.0  0.31107  0.81182  0.37534  1.0000
  H   H69       1.0  0.41244  0.89623  0.34093  1.0000
  H   H70       1.0  0.43574  0.94178  0.34421  1.0000
  H   H71       1.0  0.50526  0.94098  0.33921  1.0000
  H   H72       1.0  0.48217  0.89540  0.33563  1.0000
  C   C100      1.0  0.82378  0.39318  0.33649  1.0000
  N   N10       1.0  0.84978  0.40646  0.33696  1.0000
  C   C101      1.0  0.86355  0.43247  0.33078  1.0000
  N   N11       1.0  0.85029  0.44520  0.32353  1.0000
  C   C102      1.0  0.82433  0.43285  0.32140  1.0000
  N   N12       1.0  0.81174  0.40698  0.32829  1.0000
  C   C103      1.0  0.89084  0.44588  0.33119  1.0000
  C   C104      1.0  0.90467  0.43261  0.33578  1.0000
  C   C105      1.0  0.93157  0.44580  0.33532  1.0000
  C   C106      1.0  0.94551  0.47273  0.32962  1.0000
  C   C107      1.0  0.93202  0.48622  0.32605  1.0000
  C   C108      1.0  0.90512  0.47296  0.32655  1.0000
  C   C109      1.0  0.80924  0.36604  0.34411  1.0000
  C   C110      1.0  0.82014  0.35033  0.32862  1.0000
  C   C111      1.0  0.80508  0.32342  0.33182  1.0000
  C   C112      1.0  0.77882  0.31152  0.35340  1.0000
  C   C113      1.0  0.76792  0.32708  0.37003  1.0000
  C   C114      1.0  0.78286  0.35381  0.36554  1.0000
  C   C115      1.0  0.81026  0.44587  0.31382  1.0000
  C   C116      1.0  0.78519  0.43308  0.27817  1.0000
  C   C117      1.0  0.77012  0.44477  0.27691  1.0000
  C   C118      1.0  0.77959  0.46968  0.31142  1.0000
  C   C119      1.0  0.80471  0.48275  0.34613  1.0000
  C   C120      1.0  0.82001  0.47115  0.34581  1.0000
  H   H73       1.0  0.81330  0.31257  0.31747  1.0000
  H   H74       1.0  0.83902  0.35830  0.31165  1.0000
  H   H75       1.0  0.74877  0.31904  0.38319  1.0000
  H   H76       1.0  0.77399  0.36420  0.37738  1.0000
  H   H77       1.0  0.77730  0.41479  0.25440  1.0000
  H   H78       1.0  0.75169  0.43441  0.25418  1.0000
  H   H79       1.0  0.83781  0.48080  0.37401  1.0000
  H   H80       1.0  0.81174  0.50048  0.37406  1.0000
  H   H81       1.0  0.89613  0.48351  0.32351  1.0000
  H   H82       1.0  0.94168  0.50578  0.32295  1.0000
  H   H83       1.0  0.94091  0.43557  0.33830  1.0000
  H   H84       1.0  0.89534  0.41307  0.33924  1.0000
  C   C121      1.0  0.60626  0.43043  0.33658  1.0000
  N   N13       1.0  0.59300  0.44317  0.33701  1.0000
  C   C122      1.0  0.56699  0.43094  0.33079  1.0000
  N   N14       1.0  0.55426  0.40494  0.32355  1.0000
  C   C123      1.0  0.56660  0.39132  0.32145  1.0000
  N   N15       1.0  0.59246  0.40460  0.32837  1.0000
  C   C124      1.0  0.55358  0.44482  0.33118  1.0000
  C   C125      1.0  0.56685  0.47192  0.33577  1.0000
  C   C126      1.0  0.55367  0.48564  0.33531  1.0000
  C   C127      1.0  0.52673  0.47264  0.32962  1.0000
  C   C128      1.0  0.51325  0.44567  0.32603  1.0000
  C   C129      1.0  0.52650  0.43202  0.32653  1.0000
  C   C130      1.0  0.63340  0.44303  0.34422  1.0000
  C   C131      1.0  0.64912  0.46964  0.32865  1.0000
  C   C132      1.0  0.67603  0.48146  0.33172  1.0000
  C   C133      1.0  0.68792  0.46710  0.35330  1.0000
  C   C134      1.0  0.67236  0.44066  0.37019  1.0000
  C   C135      1.0  0.64562  0.42888  0.36574  1.0000
  C   C136      1.0  0.55357  0.36424  0.31390  1.0000
  C   C137      1.0  0.56637  0.35194  0.27846  1.0000
  C   C138      1.0  0.55465  0.32518  0.27711  1.0000
  C   C139      1.0  0.52972  0.30974  0.31145  1.0000
  C   C140      1.0  0.51666  0.32182  0.34607  1.0000
  C   C141      1.0  0.52827  0.34872  0.34569  1.0000
  H   H85       1.0  0.68688  0.50053  0.31720  1.0000
  H   H86       1.0  0.64116  0.48054  0.31148  1.0000
  H   H87       1.0  0.68038  0.42954  0.38341  1.0000
  H   H88       1.0  0.63523  0.40963  0.37772  1.0000
  H   H89       1.0  0.58467  0.36234  0.25477  1.0000
  H   H90       1.0  0.56502  0.31710  0.25455  1.0000
  H   H91       1.0  0.51860  0.35686  0.37381  1.0000
  H   H92       1.0  0.49890  0.31112  0.37384  1.0000
  H   H93       1.0  0.51595  0.41249  0.32349  1.0000
  H   H94       1.0  0.49368  0.43577  0.32292  1.0000
  H   H95       1.0  0.56390  0.50520  0.33831  1.0000
  H   H96       1.0  0.58639  0.48212  0.33925  1.0000
  C   C142      1.0  0.56900  0.17574  0.33647  1.0000
  N   N16       1.0  0.55627  0.14974  0.33693  1.0000
  C   C143      1.0  0.56851  0.13597  0.33076  1.0000
  N   N17       1.0  0.59451  0.14924  0.32355  1.0000
  C   C144      1.0  0.60812  0.17520  0.32143  1.0000
  N   N18       1.0  0.59484  0.18778  0.32830  1.0000
  C   C145      1.0  0.55463  0.10868  0.33117  1.0000
  C   C146      1.0  0.52754  0.09485  0.33576  1.0000
  C   C147      1.0  0.51382  0.06795  0.33529  1.0000
  C   C148      1.0  0.52683  0.05402  0.32961  1.0000
  C   C149      1.0  0.55380  0.06751  0.32603  1.0000
  C   C150      1.0  0.56745  0.09441  0.32653  1.0000
  C   C151      1.0  0.55639  0.19028  0.34408  1.0000
  C   C152      1.0  0.52978  0.17936  0.32864  1.0000
  C   C153      1.0  0.51792  0.19442  0.33184  1.0000
  C   C154      1.0  0.53227  0.22068  0.35336  1.0000
  C   C155      1.0  0.55873  0.23159  0.36994  1.0000
  C   C156      1.0  0.57054  0.21666  0.36545  1.0000
  C   C157      1.0  0.63520  0.18926  0.31390  1.0000
  C   C158      1.0  0.64749  0.21435  0.27839  1.0000
  C   C159      1.0  0.67426  0.22941  0.27711  1.0000
  C   C160      1.0  0.68969  0.21992  0.31151  1.0000
  C   C161      1.0  0.67763  0.19479  0.34611  1.0000
  C   C162      1.0  0.65073  0.17950  0.34579  1.0000
  H   H97       1.0  0.49884  0.18618  0.31754  1.0000
  H   H98       1.0  0.51886  0.16048  0.31171  1.0000
  H   H99       1.0  0.56984  0.25074  0.38306  1.0000
  H   H100      1.0  0.58980  0.22554  0.37725  1.0000
  H   H101      1.0  0.63709  0.22225  0.25463  1.0000
  H   H102      1.0  0.68233  0.24785  0.25444  1.0000
  H   H103      1.0  0.64258  0.16168  0.37390  1.0000
  H   H104      1.0  0.68833  0.18774  0.37397  1.0000
  H   H105      1.0  0.58697  0.10339  0.32349  1.0000
  H   H106      1.0  0.56371  0.05784  0.32293  1.0000
  H   H107      1.0  0.49426  0.05861  0.33828  1.0000
  H   H108      1.0  0.51733  0.10418  0.33922  1.0000
  C   C163      1.0  0.02685  0.51362  0.34278  1.0000
  C   C164      1.0  0.01200  0.50001  0.41815  1.0000
  C   C165      1.0  0.98507  0.48641  0.41008  1.0000
  H   H109      1.0  0.97425  0.47686  0.46464  1.0000
  C   C166      1.0  0.02296  0.49966  0.50674  1.0000
  H   H110      1.0  0.04371  0.51155  0.50960  1.0000
  H   H111      1.0  0.01797  0.48009  0.52332  1.0000
  H   H112      1.0  0.01506  0.50664  0.55775  1.0000
  C   C167      1.0  0.48586  0.51310  0.34280  1.0000
  C   C168      1.0  0.49946  0.51186  0.41817  1.0000
  C   C169      1.0  0.51305  0.49852  0.41010  1.0000
  H   H113      1.0  0.52261  0.49725  0.46465  1.0000
  C   C170      1.0  0.49982  0.52317  0.50677  1.0000
  H   H114      1.0  0.48792  0.53202  0.50964  1.0000
  H   H115      1.0  0.51938  0.53774  0.52336  1.0000
  H   H116      1.0  0.49283  0.50828  0.55776  1.0000
  C   C171      1.0  0.48637  0.97267  0.34279  1.0000
  C   C172      1.0  0.48761  0.98752  0.41815  1.0000
  C   C173      1.0  0.50095  0.01445  0.41008  1.0000
  H   H117      1.0  0.50222  0.02528  0.46463  1.0000
  C   C174      1.0  0.47630  0.97657  0.50675  1.0000
  H   H118      1.0  0.46745  0.95582  0.50961  1.0000
  H   H119      1.0  0.46172  0.98156  0.52332  1.0000
  H   H120      1.0  0.49119  0.98447  0.55775  1.0000
  C   C175      1.0  0.28438  0.52204  0.34730  1.0000
  C   C176      1.0  0.27031  0.52274  0.42221  1.0000
  C   C177      1.0  0.24678  0.52190  0.40773  1.0000
  H   H121      1.0  0.23791  0.52487  0.46097  1.0000
  C   C178      1.0  0.27991  0.52619  0.51549  1.0000
  H   H122      1.0  0.29745  0.52528  0.52136  1.0000
  H   H123      1.0  0.26553  0.51111  0.55767  1.0000
  H   H124      1.0  0.28364  0.54469  0.54090  1.0000
  C   C179      1.0  0.47732  0.76219  0.34720  1.0000
  C   C180      1.0  0.47665  0.74743  0.42210  1.0000
  C   C181      1.0  0.47749  0.72474  0.40763  1.0000
  H   H125      1.0  0.47453  0.71291  0.46089  1.0000
  C   C182      1.0  0.47321  0.75358  0.51539  1.0000
  H   H126      1.0  0.47412  0.77202  0.52128  1.0000
  H   H127      1.0  0.48829  0.75429  0.55753  1.0000
  H   H128      1.0  0.45471  0.73881  0.54084  1.0000
  C   C183      1.0  0.23730  0.71506  0.34718  1.0000
  C   C184      1.0  0.25206  0.72915  0.42210  1.0000
  C   C185      1.0  0.27474  0.75270  0.40766  1.0000
  H   H129      1.0  0.28658  0.76157  0.46090  1.0000
  C   C186      1.0  0.24593  0.71954  0.51538  1.0000
  H   H130      1.0  0.22749  0.70200  0.52126  1.0000
  H   H131      1.0  0.24521  0.73391  0.55757  1.0000
  H   H132      1.0  0.26071  0.71583  0.54078  1.0000
  C   C187      1.0  0.71484  0.47744  0.34893  1.0000
  C   C188      1.0  0.72905  0.47689  0.42365  1.0000
  C   C189      1.0  0.75255  0.47768  0.40886  1.0000
  H   H133      1.0  0.76150  0.47480  0.46202  1.0000
  C   C190      1.0  0.71963  0.47364  0.51713  1.0000
  H   H134      1.0  0.70213  0.47461  0.52324  1.0000
  H   H135      1.0  0.73411  0.48879  0.55883  1.0000
  H   H136      1.0  0.71592  0.45519  0.54295  1.0000
  C   C191      1.0  0.52191  0.23724  0.34904  1.0000
  C   C192      1.0  0.52249  0.25202  0.42377  1.0000
  C   C193      1.0  0.52171  0.27473  0.40896  1.0000
  H   H137      1.0  0.52460  0.28658  0.46210  1.0000
  C   C194      1.0  0.52575  0.24585  0.51723  1.0000
  H   H138      1.0  0.52479  0.22739  0.52334  1.0000
  H   H139      1.0  0.51061  0.24518  0.55897  1.0000
  H   H140      1.0  0.54422  0.26059  0.54301  1.0000
  C   C195      1.0  0.76225  0.28460  0.34906  1.0000
  C   C196      1.0  0.74747  0.27041  0.42377  1.0000
  C   C197      1.0  0.72474  0.24692  0.40894  1.0000
  H   H141      1.0  0.71291  0.23798  0.46210  1.0000
  C   C198      1.0  0.75366  0.27982  0.51725  1.0000
  H   H142      1.0  0.77213  0.29731  0.52335  1.0000
  H   H143      1.0  0.75432  0.26533  0.55893  1.0000
  H   H144      1.0  0.73893  0.28356  0.54307  1.0000
