data_image0
_chemical_formula_structural       C15H12C8H2N2O4C8H2N2O4C2NC2NC5NC3NC17H14C2H2C2H2C2H2C2H2
_chemical_formula_sum              "C68 H38 N8 O8"
_cell_length_a       25.6634
_cell_length_b       25.6634
_cell_length_c       14.9016
_cell_angle_alpha    90
_cell_angle_beta     90
_cell_angle_gamma    90

_space_group_name_H-M_alt    "P 1"
_space_group_IT_number       1

loop_
  _space_group_symop_operation_xyz
  'x, y, z'

loop_
  _atom_site_type_symbol
  _atom_site_label
  _atom_site_symmetry_multiplicity
  _atom_site_fract_x
  _atom_site_fract_y
  _atom_site_fract_z
  _atom_site_occupancy
  C   C1        1.0  0.89216  0.95364  0.33906  1.0000
  C   C2        1.0  0.05270  0.89037  0.34044  1.0000
  C   C3        1.0  0.00152  0.13899  0.34029  1.0000
  C   C4        1.0  0.95224  0.11374  0.33987  1.0000
  C   C5        1.0  0.86576  0.10023  0.33945  1.0000
  C   C6        1.0  0.90369  0.13834  0.33962  1.0000
  C   C7        1.0  0.72781  0.99316  0.25573  1.0000
  C   C8        1.0  0.78266  0.99286  0.25739  1.0000
  C   C9        1.0  0.00182  0.19468  0.33891  1.0000
  C   C10       1.0  0.99319  0.27679  0.25636  1.0000
  C   C11       1.0  0.99274  0.22195  0.25805  1.0000
  C   C12       1.0  0.22289  0.01866  0.26258  1.0000
  C   C13       1.0  0.27774  0.01957  0.26163  1.0000
  C   C14       1.0  0.01884  0.78148  0.26095  1.0000
  C   C15       1.0  0.01928  0.72663  0.26019  1.0000
  H   H1        1.0  0.03268  0.70844  0.20365  1.0000
  H   H2        1.0  0.03091  0.80118  0.20494  1.0000
  H   H3        1.0  0.89843  0.82798  0.33113  1.0000
  H   H4        1.0  0.20303  0.03050  0.20658  1.0000
  H   H5        1.0  0.29574  0.03308  0.20501  1.0000
  H   H6        1.0  0.10630  0.17636  0.34578  1.0000
  H   H7        1.0  0.82659  0.10738  0.33856  1.0000
  H   H8        1.0  0.89636  0.17749  0.33945  1.0000
  H   H9        1.0  0.98554  0.20202  0.19983  1.0000
  H   H10       1.0  0.98566  0.29529  0.19693  1.0000
  H   H11       1.0  0.80262  0.98589  0.19912  1.0000
  H   H12       1.0  0.70932  0.98571  0.19626  1.0000
  C   C16       1.0  0.00461  0.36168  0.33295  1.0000
  C   C17       1.0  0.03734  0.38975  0.27293  1.0000
  C   C18       1.0  0.03646  0.44499  0.27333  1.0000
  C   C19       1.0  0.00369  0.47330  0.33188  1.0000
  C   C20       1.0  0.00291  0.52895  0.33073  1.0000
  C   C21       1.0  0.99061  0.55770  0.25206  1.0000
  C   C22       1.0  0.99028  0.61292  0.25522  1.0000
  C   C23       1.0  0.00274  0.64108  0.33420  1.0000
  H   H13       1.0  0.97971  0.63263  0.19841  1.0000
  H   H14       1.0  0.06077  0.46472  0.23076  1.0000
  N   N1        1.0  0.97766  0.53092  0.17194  1.0000
  N   N2        1.0  0.07169  0.36241  0.21529  1.0000
  O   O1        1.0  0.00889  0.54184  0.10972  1.0000
  O   O2        1.0  0.06259  0.37239  0.13421  1.0000
  O   O3        1.0  0.93220  0.54135  0.14634  1.0000
  O   O4        1.0  0.11849  0.37313  0.23178  1.0000
  C   C24       1.0  0.64292  0.00449  0.33241  1.0000
  C   C25       1.0  0.61486  0.03741  0.27270  1.0000
  C   C26       1.0  0.55961  0.03667  0.27330  1.0000
  C   C27       1.0  0.53129  0.00388  0.33181  1.0000
  C   C28       1.0  0.47564  0.00328  0.33093  1.0000
  C   C29       1.0  0.44672  0.99115  0.25236  1.0000
  C   C30       1.0  0.39151  0.99089  0.25585  1.0000
  C   C31       1.0  0.36352  0.00326  0.33504  1.0000
  H   H15       1.0  0.37168  0.98038  0.19912  1.0000
  H   H16       1.0  0.53988  0.06113  0.23096  1.0000
  N   N3        1.0  0.47334  0.97826  0.17204  1.0000
  N   N4        1.0  0.64222  0.07182  0.21521  1.0000
  O   O5        1.0  0.46236  0.00960  0.11002  1.0000
  O   O6        1.0  0.63213  0.06293  0.13409  1.0000
  O   O7        1.0  0.46280  0.93285  0.14630  1.0000
  O   O8        1.0  0.63163  0.11862  0.23205  1.0000
  C   C32       1.0  0.90592  0.86702  0.33480  1.0000
  C   C33       1.0  0.86782  0.90497  0.33570  1.0000
  N   N5        1.0  0.94401  0.94322  0.34144  1.0000
  C   C34       1.0  0.95457  0.89140  0.33912  1.0000
  C   C35       1.0  0.00343  0.86496  0.33970  1.0000
  N   N6        1.0  0.06274  0.94215  0.34068  1.0000
  C   C36       1.0  0.11447  0.95242  0.34051  1.0000
  C   C37       1.0  0.13922  0.90395  0.33952  1.0000
  C   C38       1.0  0.10130  0.86586  0.34095  1.0000
  C   C39       1.0  0.13963  0.00183  0.34085  1.0000
  C   C40       1.0  0.11292  0.05055  0.34167  1.0000
  N   N7        1.0  0.06104  0.06085  0.34010  1.0000
  C   C41       1.0  0.05039  0.11265  0.34153  1.0000
  C   C42       1.0  0.09895  0.13723  0.34406  1.0000
  C   C43       1.0  0.13708  0.09933  0.34518  1.0000
  N   N8        1.0  0.94229  0.06199  0.34052  1.0000
  C   C44       1.0  0.89059  0.05178  0.34040  1.0000
  C   C45       1.0  0.86559  0.00237  0.33978  1.0000
  C   C46       1.0  0.80990  0.00189  0.33829  1.0000
  C   C47       1.0  0.78101  0.01114  0.41743  1.0000
  C   C48       1.0  0.72615  0.01180  0.41544  1.0000
  C   C49       1.0  0.69861  0.00323  0.33445  1.0000
  C   C50       1.0  0.01111  0.22355  0.41805  1.0000
  C   C51       1.0  0.01197  0.27841  0.41602  1.0000
  C   C52       1.0  0.00340  0.30597  0.33504  1.0000
  C   C53       1.0  0.19545  0.00249  0.33989  1.0000
  C   C54       1.0  0.30742  0.00325  0.33690  1.0000
  C   C55       1.0  0.27935  0.98675  0.41386  1.0000
  C   C56       1.0  0.22448  0.98691  0.41583  1.0000
  C   C57       1.0  0.00309  0.80914  0.33829  1.0000
  C   C58       1.0  0.98711  0.78034  0.41424  1.0000
  C   C59       1.0  0.98652  0.72547  0.41248  1.0000
  C   C60       1.0  0.00285  0.69718  0.33565  1.0000
  H   H17       1.0  0.97314  0.70640  0.46816  1.0000
  H   H18       1.0  0.97518  0.79920  0.47119  1.0000
  H   H19       1.0  0.82874  0.89747  0.33321  1.0000
  H   H20       1.0  0.97037  0.96968  0.34541  1.0000
  H   H21       1.0  0.03470  0.03435  0.33645  1.0000
  H   H22       1.0  0.10880  0.82676  0.34126  1.0000
  H   H23       1.0  0.17834  0.89664  0.33857  1.0000
  H   H24       1.0  0.20578  0.97474  0.47278  1.0000
  H   H25       1.0  0.29858  0.97347  0.46945  1.0000
  H   H26       1.0  0.17611  0.10701  0.34813  1.0000
  H   H27       1.0  0.01779  0.20477  0.47756  1.0000
  H   H28       1.0  0.01969  0.29813  0.47423  1.0000
  H   H29       1.0  0.70643  0.01955  0.47363  1.0000
  H   H30       1.0  0.79977  0.01798  0.47690  1.0000
  C   C61       1.0  0.97203  0.44499  0.39213  1.0000
  C   C62       1.0  0.97248  0.39018  0.39258  1.0000
  H   H31       1.0  0.94757  0.46412  0.43525  1.0000
  H   H32       1.0  0.94815  0.37116  0.43608  1.0000
  C   C63       1.0  0.01519  0.61147  0.41150  1.0000
  C   C64       1.0  0.01484  0.55667  0.41010  1.0000
  H   H33       1.0  0.02578  0.62953  0.46989  1.0000
  H   H34       1.0  0.02472  0.53707  0.46750  1.0000
  C   C65       1.0  0.55959  0.97202  0.39174  1.0000
  C   C66       1.0  0.61440  0.97231  0.39196  1.0000
  H   H35       1.0  0.54045  0.94754  0.43481  1.0000
  H   H36       1.0  0.63342  0.94787  0.43528  1.0000
  C   C67       1.0  0.39330  0.01559  0.41220  1.0000
  C   C68       1.0  0.44809  0.01516  0.41049  1.0000
  H   H37       1.0  0.37536  0.02610  0.47076  1.0000
  H   H38       1.0  0.46782  0.02491  0.46783  1.0000
