data_image0
_chemical_formula_structural       NCHNCHNCHNC18H12NC18H12C2NC2OHC2NC2OHC2NC2OHNCHNCHNCHNC18H12NC18H12C2NC2OHC2NC2OHC2NC2OHNCHNCHNCHNC18H12NC18H12C2NC2OHC2NC2OHC2NC2OHNCHNCHNCHNC18H12NC18H12C2NC2OHC2NC2OHC2NC2OH
_chemical_formula_sum              "N32 C204 H120 O12"
_cell_length_a       50.1169
_cell_length_b       50.117
_cell_length_c       14.5644
_cell_angle_alpha    90
_cell_angle_beta     90
_cell_angle_gamma    120

_space_group_name_H-M_alt    "P 1"
_space_group_IT_number       1

loop_
  _space_group_symop_operation_xyz
  'x, y, z'

loop_
  _atom_site_type_symbol
  _atom_site_label
  _atom_site_symmetry_multiplicity
  _atom_site_fract_x
  _atom_site_fract_y
  _atom_site_fract_z
  _atom_site_occupancy
  N   N1        1.0  0.28058  0.25666  0.29066  1.0000
  C   C1        1.0  0.26514  0.27244  0.28053  1.0000
  H   H1        1.0  0.26073  0.27682  0.21561  1.0000
  N   N2        1.0  0.26855  0.03257  0.30511  1.0000
  C   C2        1.0  0.25126  0.50140  0.29676  1.0000
  H   H2        1.0  0.23574  0.49276  0.24437  1.0000
  N   N3        1.0  0.50408  0.25812  0.29420  1.0000
  C   C3        1.0  0.03531  0.27389  0.28427  1.0000
  H   H3        1.0  0.04415  0.28038  0.21979  1.0000
  N   N4        1.0  0.18810  0.34827  0.36144  1.0000
  C   C4        1.0  0.20462  0.33171  0.35997  1.0000
  C   C5        1.0  0.20452  0.38137  0.36096  1.0000
  C   C6        1.0  0.15502  0.33164  0.36156  1.0000
  C   C7        1.0  0.13805  0.32944  0.44140  1.0000
  C   C8        1.0  0.10544  0.31300  0.44125  1.0000
  C   C9        1.0  0.08805  0.29832  0.36107  1.0000
  C   C10       1.0  0.10551  0.30076  0.28132  1.0000
  C   C11       1.0  0.13812  0.31685  0.28162  1.0000
  C   C12       1.0  0.22091  0.33133  0.28132  1.0000
  C   C13       1.0  0.23714  0.31494  0.28028  1.0000
  C   C14       1.0  0.23812  0.29822  0.35789  1.0000
  C   C15       1.0  0.22182  0.29910  0.43672  1.0000
  C   C16       1.0  0.20539  0.31526  0.43769  1.0000
  C   C17       1.0  0.22278  0.39855  0.43630  1.0000
  C   C18       1.0  0.23897  0.43115  0.43551  1.0000
  C   C19       1.0  0.23772  0.44845  0.35980  1.0000
  C   C20       1.0  0.21930  0.43075  0.28446  1.0000
  C   C21       1.0  0.20318  0.39815  0.28492  1.0000
  H   H4        1.0  0.24884  0.31599  0.22177  1.0000
  H   H5        1.0  0.22101  0.34310  0.22389  1.0000
  H   H6        1.0  0.19399  0.31511  0.49608  1.0000
  H   H7        1.0  0.22141  0.28754  0.49505  1.0000
  H   H8        1.0  0.14950  0.33977  0.50067  1.0000
  H   H9        1.0  0.09443  0.31230  0.50107  1.0000
  H   H10       1.0  0.22433  0.38725  0.49269  1.0000
  H   H11       1.0  0.25165  0.44220  0.49239  1.0000
  H   H12       1.0  0.21760  0.44133  0.22674  1.0000
  H   H13       1.0  0.19040  0.38655  0.22875  1.0000
  H   H14       1.0  0.14962  0.31789  0.22256  1.0000
  H   H15       1.0  0.09469  0.29023  0.22164  1.0000
  N   N5        1.0  0.35490  0.18160  0.36097  1.0000
  C   C22       1.0  0.33781  0.19770  0.36307  1.0000
  C   C23       1.0  0.33887  0.14850  0.36382  1.0000
  C   C24       1.0  0.38804  0.19827  0.36547  1.0000
  C   C25       1.0  0.40408  0.21812  0.43946  1.0000
  C   C26       1.0  0.43668  0.23475  0.44253  1.0000
  C   C27       1.0  0.45504  0.23180  0.37331  1.0000
  C   C28       1.0  0.43863  0.21223  0.29849  1.0000
  C   C29       1.0  0.40606  0.19598  0.29451  1.0000
  C   C30       1.0  0.31682  0.19304  0.43455  1.0000
  C   C31       1.0  0.30012  0.20889  0.43675  1.0000
  C   C32       1.0  0.30429  0.23128  0.36984  1.0000
  C   C33       1.0  0.32515  0.23549  0.29764  1.0000
  C   C34       1.0  0.34137  0.21909  0.29407  1.0000
  C   C35       1.0  0.33222  0.13241  0.44798  1.0000
  C   C36       1.0  0.31591  0.09985  0.45091  1.0000
  C   C37       1.0  0.30645  0.08157  0.36996  1.0000
  C   C38       1.0  0.31303  0.09808  0.28584  1.0000
  C   C39       1.0  0.32871  0.13068  0.28276  1.0000
  H   H16       1.0  0.28424  0.20321  0.48781  1.0000
  H   H17       1.0  0.31315  0.17756  0.48544  1.0000
  H   H18       1.0  0.35630  0.22318  0.24105  1.0000
  H   H19       1.0  0.32918  0.25112  0.24673  1.0000
  H   H20       1.0  0.39195  0.22096  0.49127  1.0000
  H   H21       1.0  0.44688  0.24970  0.49580  1.0000
  H   H22       1.0  0.33875  0.14449  0.50823  1.0000
  H   H23       1.0  0.31046  0.08964  0.51400  1.0000
  H   H24       1.0  0.30669  0.08639  0.22488  1.0000
  H   H25       1.0  0.33298  0.14150  0.22053  1.0000
  H   H26       1.0  0.39541  0.18215  0.23919  1.0000
  H   H27       1.0  0.45038  0.20923  0.24584  1.0000
  C   C40       1.0  0.28780  0.24833  0.37220  1.0000
  C   C41       1.0  0.25486  0.28149  0.35883  1.0000
  N   N6        1.0  0.26230  0.27333  0.44005  1.0000
  C   C42       1.0  0.27783  0.25758  0.45185  1.0000
  C   C43       1.0  0.28489  0.25359  0.54071  1.0000
  O   O1        1.0  0.26959  0.25472  0.60447  1.0000
  H   H28       1.0  0.30697  0.26167  0.55473  1.0000
  C   C44       1.0  0.29010  0.04809  0.37149  1.0000
  C   C45       1.0  0.25461  0.48198  0.36079  1.0000
  N   N7        1.0  0.27620  0.49758  0.42681  1.0000
  C   C46       1.0  0.29384  0.02878  0.43614  1.0000
  C   C47       1.0  0.31567  0.03837  0.50454  1.0000
  O   O2        1.0  0.30599  0.03562  0.58298  1.0000
  H   H29       1.0  0.33566  0.05720  0.49206  1.0000
  C   C48       1.0  0.48852  0.24836  0.37546  1.0000
  C   C49       1.0  0.05459  0.28168  0.36246  1.0000
  N   N8        1.0  0.03901  0.27176  0.44346  1.0000
  C   C50       1.0  0.50774  0.25598  0.45471  1.0000
  C   C51       1.0  0.49788  0.24641  0.54300  1.0000
  O   O3        1.0  0.50188  0.26626  0.59889  1.0000
  H   H30       1.0  0.47872  0.22634  0.55168  1.0000
  N   N9        1.0  0.28016  0.75623  0.29006  1.0000
  C   C52       1.0  0.26459  0.77191  0.28021  1.0000
  H   H31       1.0  0.25961  0.77579  0.21540  1.0000
  N   N10       1.0  0.26862  0.53263  0.30500  1.0000
  C   C53       1.0  0.25119  0.00135  0.29692  1.0000
  H   H32       1.0  0.23559  0.99269  0.24473  1.0000
  N   N11       1.0  0.50410  0.75816  0.29437  1.0000
  C   C54       1.0  0.03533  0.77393  0.28445  1.0000
  H   H33       1.0  0.04417  0.78046  0.21998  1.0000
  N   N12       1.0  0.18812  0.84822  0.36159  1.0000
  C   C55       1.0  0.20465  0.83167  0.36006  1.0000
  C   C56       1.0  0.20455  0.88132  0.36104  1.0000
  C   C57       1.0  0.15505  0.83159  0.36173  1.0000
  C   C58       1.0  0.13808  0.82930  0.44166  1.0000
  C   C59       1.0  0.10547  0.81286  0.44150  1.0000
  C   C60       1.0  0.08808  0.79829  0.36124  1.0000
  C   C61       1.0  0.10553  0.80082  0.28141  1.0000
  C   C62       1.0  0.13814  0.81690  0.28170  1.0000
  C   C63       1.0  0.22072  0.83108  0.28112  1.0000
  C   C64       1.0  0.23695  0.81470  0.28000  1.0000
  C   C65       1.0  0.23818  0.79822  0.35787  1.0000
  C   C66       1.0  0.22213  0.79932  0.43701  1.0000
  C   C67       1.0  0.20566  0.81544  0.43802  1.0000
  C   C68       1.0  0.22282  0.89851  0.43634  1.0000
  C   C69       1.0  0.23900  0.93112  0.43551  1.0000
  C   C70       1.0  0.23774  0.94840  0.35980  1.0000
  C   C71       1.0  0.21930  0.93070  0.28449  1.0000
  C   C72       1.0  0.20319  0.89809  0.28499  1.0000
  H   H34       1.0  0.24849  0.81560  0.22129  1.0000
  H   H35       1.0  0.22063  0.84269  0.22350  1.0000
  H   H36       1.0  0.19444  0.81545  0.49661  1.0000
  H   H37       1.0  0.22191  0.78792  0.49551  1.0000
  H   H38       1.0  0.14953  0.83956  0.50099  1.0000
  H   H39       1.0  0.09446  0.81211  0.50139  1.0000
  H   H40       1.0  0.22438  0.88722  0.49275  1.0000
  H   H41       1.0  0.25170  0.94218  0.49238  1.0000
  H   H42       1.0  0.21760  0.94127  0.22676  1.0000
  H   H43       1.0  0.19040  0.88649  0.22883  1.0000
  H   H44       1.0  0.14964  0.81801  0.22257  1.0000
  H   H45       1.0  0.09471  0.79037  0.22166  1.0000
  N   N13       1.0  0.35493  0.68164  0.36108  1.0000
  C   C73       1.0  0.33786  0.69778  0.36293  1.0000
  C   C74       1.0  0.33887  0.64854  0.36393  1.0000
  C   C75       1.0  0.38806  0.69830  0.36560  1.0000
  C   C76       1.0  0.40410  0.71813  0.43962  1.0000
  C   C77       1.0  0.43670  0.73474  0.44271  1.0000
  C   C78       1.0  0.45506  0.73180  0.37347  1.0000
  C   C79       1.0  0.43865  0.71226  0.29861  1.0000
  C   C80       1.0  0.40608  0.69602  0.29462  1.0000
  C   C81       1.0  0.31685  0.69318  0.43431  1.0000
  C   C82       1.0  0.30020  0.70908  0.43626  1.0000
  C   C83       1.0  0.30450  0.73148  0.36928  1.0000
  C   C84       1.0  0.32532  0.73560  0.29709  1.0000
  C   C85       1.0  0.34147  0.71913  0.29375  1.0000
  C   C86       1.0  0.33208  0.63246  0.44813  1.0000
  C   C87       1.0  0.31576  0.59989  0.45105  1.0000
  C   C88       1.0  0.30642  0.58162  0.37009  1.0000
  C   C89       1.0  0.31313  0.59813  0.28594  1.0000
  C   C90       1.0  0.32883  0.63073  0.28285  1.0000
  H   H46       1.0  0.28433  0.70353  0.48726  1.0000
  H   H47       1.0  0.31315  0.67772  0.48531  1.0000
  H   H48       1.0  0.35641  0.72317  0.24079  1.0000
  H   H49       1.0  0.32936  0.75121  0.24611  1.0000
  H   H50       1.0  0.39198  0.72096  0.49144  1.0000
  H   H51       1.0  0.44691  0.74967  0.49602  1.0000
  H   H52       1.0  0.33853  0.64453  0.50838  1.0000
  H   H53       1.0  0.31022  0.58968  0.51413  1.0000
  H   H54       1.0  0.30689  0.58644  0.22498  1.0000
  H   H55       1.0  0.33320  0.64155  0.22061  1.0000
  H   H56       1.0  0.39543  0.68220  0.23927  1.0000
  H   H57       1.0  0.45040  0.70926  0.24593  1.0000
  C   C91       1.0  0.28806  0.74854  0.37154  1.0000
  C   C92       1.0  0.25495  0.78152  0.35872  1.0000
  N   N14       1.0  0.26308  0.77402  0.43993  1.0000
  C   C93       1.0  0.27867  0.75837  0.45115  1.0000
  C   C94       1.0  0.28606  0.75608  0.54068  1.0000
  O   O4        1.0  0.26463  0.73751  0.58798  1.0000
  H   H58       1.0  0.30591  0.75688  0.55227  1.0000
  C   C95       1.0  0.29007  0.54813  0.37161  1.0000
  C   C96       1.0  0.25463  0.98193  0.36076  1.0000
  N   N15       1.0  0.27632  0.99754  0.42654  1.0000
  C   C97       1.0  0.29371  0.52882  0.43647  1.0000
  C   C98       1.0  0.31545  0.53841  0.50516  1.0000
  O   O5        1.0  0.30566  0.53565  0.58346  1.0000
  H   H59       1.0  0.33546  0.55725  0.49287  1.0000
  C   C99       1.0  0.48854  0.74835  0.37561  1.0000
  C   C100      1.0  0.05461  0.78166  0.36263  1.0000
  N   N16       1.0  0.03903  0.77169  0.44361  1.0000
  C   C101      1.0  0.50776  0.75591  0.45486  1.0000
  C   C102      1.0  0.49789  0.74628  0.54310  1.0000
  O   O6        1.0  0.50191  0.76610  0.59914  1.0000
  H   H60       1.0  0.47871  0.72622  0.55169  1.0000
  N   N17       1.0  0.78058  0.25666  0.29066  1.0000
  C   C103      1.0  0.76514  0.27244  0.28053  1.0000
  H   H61       1.0  0.76073  0.27682  0.21561  1.0000
  N   N18       1.0  0.76855  0.03257  0.30511  1.0000
  C   C104      1.0  0.75126  0.50140  0.29676  1.0000
  H   H62       1.0  0.73574  0.49276  0.24437  1.0000
  N   N19       1.0  0.00408  0.25812  0.29420  1.0000
  C   C105      1.0  0.53531  0.27389  0.28427  1.0000
  H   H63       1.0  0.54415  0.28038  0.21979  1.0000
  N   N20       1.0  0.68810  0.34827  0.36144  1.0000
  C   C106      1.0  0.70462  0.33171  0.35997  1.0000
  C   C107      1.0  0.70452  0.38137  0.36096  1.0000
  C   C108      1.0  0.65502  0.33164  0.36156  1.0000
  C   C109      1.0  0.63805  0.32944  0.44140  1.0000
  C   C110      1.0  0.60544  0.31300  0.44125  1.0000
  C   C111      1.0  0.58805  0.29832  0.36107  1.0000
  C   C112      1.0  0.60551  0.30076  0.28132  1.0000
  C   C113      1.0  0.63812  0.31685  0.28162  1.0000
  C   C114      1.0  0.72091  0.33133  0.28132  1.0000
  C   C115      1.0  0.73714  0.31494  0.28028  1.0000
  C   C116      1.0  0.73812  0.29822  0.35789  1.0000
  C   C117      1.0  0.72182  0.29910  0.43672  1.0000
  C   C118      1.0  0.70539  0.31526  0.43769  1.0000
  C   C119      1.0  0.72278  0.39855  0.43630  1.0000
  C   C120      1.0  0.73897  0.43115  0.43551  1.0000
  C   C121      1.0  0.73772  0.44845  0.35980  1.0000
  C   C122      1.0  0.71930  0.43075  0.28446  1.0000
  C   C123      1.0  0.70318  0.39815  0.28492  1.0000
  H   H64       1.0  0.74884  0.31599  0.22177  1.0000
  H   H65       1.0  0.72101  0.34310  0.22389  1.0000
  H   H66       1.0  0.69400  0.31511  0.49608  1.0000
  H   H67       1.0  0.72141  0.28754  0.49505  1.0000
  H   H68       1.0  0.64950  0.33977  0.50067  1.0000
  H   H69       1.0  0.59443  0.31230  0.50107  1.0000
  H   H70       1.0  0.72433  0.38725  0.49269  1.0000
  H   H71       1.0  0.75165  0.44220  0.49239  1.0000
  H   H72       1.0  0.71760  0.44133  0.22674  1.0000
  H   H73       1.0  0.69040  0.38655  0.22875  1.0000
  H   H74       1.0  0.64962  0.31789  0.22256  1.0000
  H   H75       1.0  0.59469  0.29023  0.22164  1.0000
  N   N21       1.0  0.85490  0.18160  0.36097  1.0000
  C   C124      1.0  0.83781  0.19770  0.36307  1.0000
  C   C125      1.0  0.83887  0.14850  0.36382  1.0000
  C   C126      1.0  0.88804  0.19827  0.36547  1.0000
  C   C127      1.0  0.90408  0.21812  0.43946  1.0000
  C   C128      1.0  0.93668  0.23475  0.44253  1.0000
  C   C129      1.0  0.95503  0.23180  0.37331  1.0000
  C   C130      1.0  0.93863  0.21223  0.29849  1.0000
  C   C131      1.0  0.90606  0.19598  0.29451  1.0000
  C   C132      1.0  0.81682  0.19304  0.43455  1.0000
  C   C133      1.0  0.80012  0.20889  0.43675  1.0000
  C   C134      1.0  0.80429  0.23128  0.36984  1.0000
  C   C135      1.0  0.82515  0.23549  0.29764  1.0000
  C   C136      1.0  0.84137  0.21909  0.29407  1.0000
  C   C137      1.0  0.83221  0.13241  0.44798  1.0000
  C   C138      1.0  0.81591  0.09985  0.45091  1.0000
  C   C139      1.0  0.80645  0.08157  0.36996  1.0000
  C   C140      1.0  0.81303  0.09808  0.28584  1.0000
  C   C141      1.0  0.82871  0.13068  0.28276  1.0000
  H   H76       1.0  0.78424  0.20321  0.48781  1.0000
  H   H77       1.0  0.81315  0.17756  0.48544  1.0000
  H   H78       1.0  0.85630  0.22318  0.24105  1.0000
  H   H79       1.0  0.82918  0.25112  0.24673  1.0000
  H   H80       1.0  0.89195  0.22096  0.49127  1.0000
  H   H81       1.0  0.94688  0.24970  0.49580  1.0000
  H   H82       1.0  0.83875  0.14449  0.50823  1.0000
  H   H83       1.0  0.81046  0.08964  0.51400  1.0000
  H   H84       1.0  0.80669  0.08639  0.22488  1.0000
  H   H85       1.0  0.83298  0.14150  0.22053  1.0000
  H   H86       1.0  0.89541  0.18215  0.23919  1.0000
  H   H87       1.0  0.95038  0.20923  0.24584  1.0000
  C   C142      1.0  0.78780  0.24833  0.37220  1.0000
  C   C143      1.0  0.75486  0.28149  0.35883  1.0000
  N   N22       1.0  0.76230  0.27333  0.44005  1.0000
  C   C144      1.0  0.77783  0.25758  0.45185  1.0000
  C   C145      1.0  0.78489  0.25359  0.54071  1.0000
  O   O7        1.0  0.76959  0.25472  0.60447  1.0000
  H   H88       1.0  0.80697  0.26167  0.55473  1.0000
  C   C146      1.0  0.79010  0.04809  0.37149  1.0000
  C   C147      1.0  0.75461  0.48198  0.36079  1.0000
  N   N23       1.0  0.77620  0.49758  0.42681  1.0000
  C   C148      1.0  0.79384  0.02878  0.43614  1.0000
  C   C149      1.0  0.81566  0.03837  0.50454  1.0000
  O   O8        1.0  0.80599  0.03562  0.58298  1.0000
  H   H89       1.0  0.83566  0.05720  0.49206  1.0000
  C   C150      1.0  0.98852  0.24836  0.37546  1.0000
  C   C151      1.0  0.55459  0.28168  0.36246  1.0000
  N   N24       1.0  0.53901  0.27176  0.44346  1.0000
  C   C152      1.0  0.00774  0.25598  0.45471  1.0000
  C   C153      1.0  0.99788  0.24641  0.54300  1.0000
  O   O9        1.0  0.00188  0.26626  0.59889  1.0000
  H   H90       1.0  0.97872  0.22634  0.55168  1.0000
  N   N25       1.0  0.78016  0.75623  0.29006  1.0000
  C   C154      1.0  0.76459  0.77191  0.28021  1.0000
  H   H91       1.0  0.75961  0.77579  0.21540  1.0000
  N   N26       1.0  0.76862  0.53263  0.30500  1.0000
  C   C155      1.0  0.75119  0.00135  0.29692  1.0000
  H   H92       1.0  0.73559  0.99269  0.24473  1.0000
  N   N27       1.0  0.00410  0.75816  0.29437  1.0000
  C   C156      1.0  0.53533  0.77393  0.28445  1.0000
  H   H93       1.0  0.54417  0.78046  0.21998  1.0000
  N   N28       1.0  0.68812  0.84822  0.36159  1.0000
  C   C157      1.0  0.70464  0.83167  0.36006  1.0000
  C   C158      1.0  0.70455  0.88132  0.36104  1.0000
  C   C159      1.0  0.65505  0.83159  0.36173  1.0000
  C   C160      1.0  0.63808  0.82930  0.44166  1.0000
  C   C161      1.0  0.60547  0.81286  0.44150  1.0000
  C   C162      1.0  0.58808  0.79829  0.36124  1.0000
  C   C163      1.0  0.60554  0.80082  0.28141  1.0000
  C   C164      1.0  0.63814  0.81690  0.28170  1.0000
  C   C165      1.0  0.72072  0.83108  0.28112  1.0000
  C   C166      1.0  0.73695  0.81470  0.28000  1.0000
  C   C167      1.0  0.73818  0.79822  0.35787  1.0000
  C   C168      1.0  0.72213  0.79932  0.43701  1.0000
  C   C169      1.0  0.70566  0.81544  0.43802  1.0000
  C   C170      1.0  0.72282  0.89851  0.43634  1.0000
  C   C171      1.0  0.73900  0.93112  0.43551  1.0000
  C   C172      1.0  0.73774  0.94840  0.35980  1.0000
  C   C173      1.0  0.71931  0.93070  0.28449  1.0000
  C   C174      1.0  0.70319  0.89809  0.28499  1.0000
  H   H94       1.0  0.74849  0.81560  0.22129  1.0000
  H   H95       1.0  0.72063  0.84269  0.22350  1.0000
  H   H96       1.0  0.69444  0.81545  0.49661  1.0000
  H   H97       1.0  0.72191  0.78792  0.49551  1.0000
  H   H98       1.0  0.64953  0.83956  0.50099  1.0000
  H   H99       1.0  0.59446  0.81211  0.50139  1.0000
  H   H100      1.0  0.72438  0.88722  0.49275  1.0000
  H   H101      1.0  0.75170  0.94218  0.49238  1.0000
  H   H102      1.0  0.71761  0.94127  0.22676  1.0000
  H   H103      1.0  0.69040  0.88649  0.22883  1.0000
  H   H104      1.0  0.64964  0.81801  0.22257  1.0000
  H   H105      1.0  0.59471  0.79037  0.22166  1.0000
  N   N29       1.0  0.85493  0.68164  0.36108  1.0000
  C   C175      1.0  0.83786  0.69778  0.36293  1.0000
  C   C176      1.0  0.83887  0.64854  0.36393  1.0000
  C   C177      1.0  0.88806  0.69830  0.36560  1.0000
  C   C178      1.0  0.90410  0.71813  0.43962  1.0000
  C   C179      1.0  0.93670  0.73474  0.44271  1.0000
  C   C180      1.0  0.95506  0.73180  0.37347  1.0000
  C   C181      1.0  0.93865  0.71226  0.29861  1.0000
  C   C182      1.0  0.90608  0.69602  0.29462  1.0000
  C   C183      1.0  0.81685  0.69318  0.43431  1.0000
  C   C184      1.0  0.80020  0.70908  0.43626  1.0000
  C   C185      1.0  0.80450  0.73148  0.36928  1.0000
  C   C186      1.0  0.82532  0.73560  0.29709  1.0000
  C   C187      1.0  0.84147  0.71913  0.29375  1.0000
  C   C188      1.0  0.83208  0.63246  0.44813  1.0000
  C   C189      1.0  0.81576  0.59989  0.45105  1.0000
  C   C190      1.0  0.80642  0.58162  0.37009  1.0000
  C   C191      1.0  0.81314  0.59813  0.28594  1.0000
  C   C192      1.0  0.82883  0.63073  0.28285  1.0000
  H   H106      1.0  0.78433  0.70353  0.48726  1.0000
  H   H107      1.0  0.81315  0.67772  0.48531  1.0000
  H   H108      1.0  0.85641  0.72317  0.24079  1.0000
  H   H109      1.0  0.82936  0.75121  0.24611  1.0000
  H   H110      1.0  0.89198  0.72096  0.49144  1.0000
  H   H111      1.0  0.94691  0.74967  0.49602  1.0000
  H   H112      1.0  0.83853  0.64453  0.50838  1.0000
  H   H113      1.0  0.81022  0.58968  0.51413  1.0000
  H   H114      1.0  0.80689  0.58644  0.22498  1.0000
  H   H115      1.0  0.83320  0.64155  0.22061  1.0000
  H   H116      1.0  0.89543  0.68220  0.23927  1.0000
  H   H117      1.0  0.95040  0.70926  0.24593  1.0000
  C   C193      1.0  0.78807  0.74854  0.37154  1.0000
  C   C194      1.0  0.75495  0.78152  0.35872  1.0000
  N   N30       1.0  0.76308  0.77402  0.43993  1.0000
  C   C195      1.0  0.77867  0.75837  0.45115  1.0000
  C   C196      1.0  0.78606  0.75608  0.54068  1.0000
  O   O10       1.0  0.76463  0.73751  0.58798  1.0000
  H   H118      1.0  0.80591  0.75688  0.55227  1.0000
  C   C197      1.0  0.79007  0.54813  0.37161  1.0000
  C   C198      1.0  0.75463  0.98193  0.36076  1.0000
  N   N31       1.0  0.77632  0.99754  0.42654  1.0000
  C   C199      1.0  0.79371  0.52882  0.43647  1.0000
  C   C200      1.0  0.81544  0.53841  0.50516  1.0000
  O   O11       1.0  0.80566  0.53565  0.58346  1.0000
  H   H119      1.0  0.83546  0.55725  0.49287  1.0000
  C   C201      1.0  0.98854  0.74835  0.37561  1.0000
  C   C202      1.0  0.55461  0.78166  0.36263  1.0000
  N   N32       1.0  0.53902  0.77169  0.44361  1.0000
  C   C203      1.0  0.00776  0.75591  0.45486  1.0000
  C   C204      1.0  0.99789  0.74628  0.54310  1.0000
  O   O12       1.0  0.00191  0.76610  0.59914  1.0000
  H   H120      1.0  0.97871  0.72622  0.55169  1.0000
