data_image0
_chemical_formula_structural       C10H5C6H3N2C10H5C6H3N2C10H5C6H3N2C10H5C6H3N2C3NC3NC5NC5NC20H18C4H4C3NC3NC5NC5NC20H18C4H4C3NC3NC5NC5NC20H18C4H4C3NC3NC5NC5NC20H18C4H4C8H7NC8H7NC8H7NC8H7NC8H8C8H8C8H8C8H8
_chemical_formula_sum              "C288 H180 N28"
_cell_length_a       80.2062
_cell_length_b       32.236
_cell_length_c       15.0015
_cell_angle_alpha    90
_cell_angle_beta     89.992
_cell_angle_gamma    90.0112

_space_group_name_H-M_alt    "P 1"
_space_group_IT_number       1

loop_
  _space_group_symop_operation_xyz
  'x, y, z'

loop_
  _atom_site_type_symbol
  _atom_site_label
  _atom_site_symmetry_multiplicity
  _atom_site_fract_x
  _atom_site_fract_y
  _atom_site_fract_z
  _atom_site_occupancy
  C   C1        1.0  0.16632  0.92234  0.35257  1.0000
  C   C2        1.0  0.16831  0.07579  0.33598  1.0000
  C   C3        1.0  0.15373  0.91463  0.28854  1.0000
  C   C4        1.0  0.14598  0.87552  0.28281  1.0000
  C   C5        1.0  0.15053  0.84312  0.34150  1.0000
  C   C6        1.0  0.24679  0.01771  0.27678  1.0000
  C   C7        1.0  0.22929  0.01920  0.28125  1.0000
  C   C8        1.0  0.17297  0.10386  0.26786  1.0000
  C   C9        1.0  0.16610  0.14390  0.26417  1.0000
  C   C10       1.0  0.15431  0.15695  0.32831  1.0000
  H   H1        1.0  0.13743  0.87059  0.23344  1.0000
  H   H2        1.0  0.22309  0.03775  0.23690  1.0000
  H   H3        1.0  0.25277  0.03592  0.23102  1.0000
  H   H4        1.0  0.18169  0.09569  0.22121  1.0000
  H   H5        1.0  0.17024  0.16399  0.21621  1.0000
  C   C11       1.0  0.17643  0.03666  0.34327  1.0000
  C   C12       1.0  0.19403  0.03467  0.34374  1.0000
  C   C13       1.0  0.20263  0.99647  0.34783  1.0000
  C   C14       1.0  0.19310  0.95965  0.35221  1.0000
  C   C15       1.0  0.17545  0.96034  0.35246  1.0000
  C   C16       1.0  0.16729  0.99922  0.34810  1.0000
  H   H6        1.0  0.19915  0.93167  0.35129  1.0000
  H   H7        1.0  0.15453  0.00028  0.34714  1.0000
  H   H8        1.0  0.15067  0.93679  0.24250  1.0000
  N   N1        1.0  0.14912  0.19605  0.33183  1.0000
  N   N2        1.0  0.14503  0.80436  0.33601  1.0000
  C   C17       1.0  0.86464  0.07680  0.35255  1.0000
  C   C18       1.0  0.86265  0.92334  0.33608  1.0000
  C   C19       1.0  0.87725  0.08449  0.28860  1.0000
  C   C20       1.0  0.88497  0.12364  0.28271  1.0000
  C   C21       1.0  0.88039  0.15606  0.34130  1.0000
  C   C22       1.0  0.78418  0.98143  0.27675  1.0000
  C   C23       1.0  0.80168  0.97992  0.28127  1.0000
  C   C24       1.0  0.85800  0.89525  0.26800  1.0000
  C   C25       1.0  0.86487  0.85521  0.26433  1.0000
  C   C26       1.0  0.87667  0.84220  0.32844  1.0000
  H   H9        1.0  0.89353  0.12857  0.23336  1.0000
  H   H10       1.0  0.80788  0.96138  0.23691  1.0000
  H   H11       1.0  0.77820  0.96322  0.23100  1.0000
  H   H12       1.0  0.84929  0.90341  0.22130  1.0000
  H   H13       1.0  0.86076  0.83513  0.21632  1.0000
  C   C27       1.0  0.85454  0.96247  0.34333  1.0000
  C   C28       1.0  0.83693  0.96446  0.34380  1.0000
  C   C29       1.0  0.82834  0.00267  0.34781  1.0000
  C   C30       1.0  0.83787  0.03948  0.35219  1.0000
  C   C31       1.0  0.85552  0.03880  0.35247  1.0000
  C   C32       1.0  0.86368  0.99991  0.34814  1.0000
  H   H14       1.0  0.83182  0.06747  0.35123  1.0000
  H   H15       1.0  0.87644  0.99885  0.34720  1.0000
  H   H16       1.0  0.88031  0.06235  0.24251  1.0000
  N   N3        1.0  0.88189  0.80312  0.33195  1.0000
  N   N4        1.0  0.88590  0.19482  0.33583  1.0000
  C   C33       1.0  0.66632  0.42232  0.35237  1.0000
  C   C34       1.0  0.66831  0.57577  0.33573  1.0000
  C   C35       1.0  0.65372  0.41462  0.28837  1.0000
  C   C36       1.0  0.64597  0.37551  0.28259  1.0000
  C   C37       1.0  0.65054  0.34310  0.34123  1.0000
  C   C38       1.0  0.74679  0.51767  0.27667  1.0000
  C   C39       1.0  0.72929  0.51916  0.28113  1.0000
  C   C40       1.0  0.67297  0.60382  0.26759  1.0000
  C   C41       1.0  0.66609  0.64385  0.26381  1.0000
  C   C42       1.0  0.65431  0.65692  0.32799  1.0000
  H   H17       1.0  0.63742  0.37059  0.23322  1.0000
  H   H18       1.0  0.72309  0.53769  0.23676  1.0000
  H   H19       1.0  0.75277  0.53587  0.23090  1.0000
  H   H20       1.0  0.68169  0.59563  0.22094  1.0000
  H   H21       1.0  0.67023  0.66394  0.21586  1.0000
  C   C43       1.0  0.67642  0.53664  0.34309  1.0000
  C   C44       1.0  0.69403  0.53464  0.34357  1.0000
  C   C45       1.0  0.70263  0.49644  0.34771  1.0000
  C   C46       1.0  0.69309  0.45963  0.35220  1.0000
  C   C47       1.0  0.67544  0.46032  0.35233  1.0000
  C   C48       1.0  0.66729  0.49920  0.34792  1.0000
  H   H22       1.0  0.69914  0.43164  0.35117  1.0000
  H   H23       1.0  0.65452  0.50026  0.34692  1.0000
  H   H24       1.0  0.65066  0.43678  0.24232  1.0000
  N   N5        1.0  0.64912  0.69602  0.33153  1.0000
  N   N6        1.0  0.64502  0.30434  0.33577  1.0000
  C   C49       1.0  0.36466  0.57683  0.35245  1.0000
  C   C50       1.0  0.36266  0.42340  0.33569  1.0000
  C   C51       1.0  0.37726  0.58454  0.28846  1.0000
  C   C52       1.0  0.38502  0.62364  0.28275  1.0000
  C   C53       1.0  0.38046  0.65605  0.34145  1.0000
  C   C54       1.0  0.28419  0.48150  0.27661  1.0000
  C   C55       1.0  0.30168  0.48002  0.28103  1.0000
  C   C56       1.0  0.35801  0.39535  0.26752  1.0000
  C   C57       1.0  0.36488  0.35531  0.26377  1.0000
  C   C58       1.0  0.37665  0.34223  0.32795  1.0000
  H   H25       1.0  0.39358  0.62857  0.23342  1.0000
  H   H26       1.0  0.30789  0.46150  0.23664  1.0000
  H   H27       1.0  0.27821  0.46331  0.23084  1.0000
  H   H28       1.0  0.34929  0.40353  0.22088  1.0000
  H   H29       1.0  0.36073  0.33522  0.21582  1.0000
  C   C59       1.0  0.35455  0.46252  0.34303  1.0000
  C   C60       1.0  0.33694  0.46452  0.34347  1.0000
  C   C61       1.0  0.32835  0.50273  0.34760  1.0000
  C   C62       1.0  0.33788  0.53954  0.35211  1.0000
  C   C63       1.0  0.35553  0.53884  0.35234  1.0000
  C   C64       1.0  0.36369  0.49996  0.34791  1.0000
  H   H30       1.0  0.33183  0.56753  0.35115  1.0000
  H   H31       1.0  0.37645  0.49889  0.34695  1.0000
  H   H32       1.0  0.38033  0.56239  0.24243  1.0000
  N   N7        1.0  0.38184  0.30312  0.33149  1.0000
  N   N8        1.0  0.38598  0.69480  0.33602  1.0000
  C   C65       1.0  0.36787  0.88656  0.30738  1.0000
  C   C66       1.0  0.35515  0.91540  0.30793  1.0000
  C   C67       1.0  0.36228  0.95495  0.30944  1.0000
  N   N9        1.0  0.37898  0.94861  0.31091  1.0000
  C   C68       1.0  0.38306  0.90781  0.30892  1.0000
  C   C69       1.0  0.39906  0.88872  0.30728  1.0000
  C   C70       1.0  0.41446  0.91037  0.30740  1.0000
  N   N10       1.0  0.41686  0.95184  0.30962  1.0000
  C   C71       1.0  0.43322  0.96179  0.30868  1.0000
  C   C72       1.0  0.44189  0.92423  0.30566  1.0000
  C   C73       1.0  0.43032  0.89252  0.30514  1.0000
  C   C74       1.0  0.44040  0.00202  0.31010  1.0000
  C   C75       1.0  0.43130  0.03990  0.31189  1.0000
  N   N11       1.0  0.41461  0.04621  0.31106  1.0000
  C   C76       1.0  0.41055  0.08703  0.31096  1.0000
  C   C77       1.0  0.42571  0.10835  0.31316  1.0000
  C   C78       1.0  0.43841  0.07949  0.31422  1.0000
  C   C79       1.0  0.39458  0.10607  0.30806  1.0000
  C   C80       1.0  0.37918  0.08438  0.30820  1.0000
  N   N12       1.0  0.37675  0.04293  0.31123  1.0000
  C   C81       1.0  0.36039  0.03302  0.30878  1.0000
  C   C82       1.0  0.35176  0.07061  0.30466  1.0000
  C   C83       1.0  0.36333  0.10226  0.30440  1.0000
  C   C84       1.0  0.35317  0.99281  0.30833  1.0000
  C   C85       1.0  0.33550  0.99050  0.30069  1.0000
  C   C86       1.0  0.30013  0.99109  0.28214  1.0000
  C   C87       1.0  0.31064  0.98619  0.20695  1.0000
  C   C88       1.0  0.32808  0.98595  0.21597  1.0000
  C   C89       1.0  0.39390  0.15000  0.29932  1.0000
  C   C90       1.0  0.39015  0.23750  0.27980  1.0000
  C   C91       1.0  0.39088  0.21113  0.20433  1.0000
  C   C92       1.0  0.39273  0.16801  0.21381  1.0000
  C   C93       1.0  0.45810  0.00460  0.30920  1.0000
  C   C94       1.0  0.46669  0.01244  0.22870  1.0000
  C   C95       1.0  0.48415  0.01628  0.22824  1.0000
  C   C96       1.0  0.49328  0.01195  0.30820  1.0000
  C   C97       1.0  0.39969  0.84461  0.30344  1.0000
  C   C98       1.0  0.40109  0.82413  0.22056  1.0000
  C   C99       1.0  0.39852  0.75647  0.29417  1.0000
  C   C100      1.0  0.40060  0.78055  0.21609  1.0000
  H   H33       1.0  0.40117  0.76666  0.15476  1.0000
  H   H34       1.0  0.40208  0.84084  0.16274  1.0000
  H   H35       1.0  0.36607  0.85519  0.30515  1.0000
  H   H36       1.0  0.34275  0.90811  0.30640  1.0000
  H   H37       1.0  0.38704  0.97063  0.31182  1.0000
  H   H38       1.0  0.40657  0.02421  0.30746  1.0000
  H   H39       1.0  0.43320  0.86164  0.30306  1.0000
  H   H40       1.0  0.45451  0.92007  0.30393  1.0000
  H   H41       1.0  0.46027  0.01581  0.17014  1.0000
  H   H42       1.0  0.49012  0.02219  0.16922  1.0000
  H   H43       1.0  0.45081  0.08684  0.31542  1.0000
  H   H44       1.0  0.42748  0.13975  0.31360  1.0000
  H   H45       1.0  0.33915  0.07485  0.30103  1.0000
  H   H46       1.0  0.36046  0.13311  0.30098  1.0000
  H   H47       1.0  0.39276  0.14974  0.15796  1.0000
  H   H48       1.0  0.38957  0.22292  0.14130  1.0000
  H   H49       1.0  0.33533  0.98317  0.16007  1.0000
  H   H50       1.0  0.30570  0.98342  0.14428  1.0000
  C   C101      1.0  0.38684  0.27952  0.26769  1.0000
  C   C102      1.0  0.51038  0.01608  0.30785  1.0000
  C   C103      1.0  0.39675  0.71379  0.28746  1.0000
  C   C104      1.0  0.28296  0.99344  0.27006  1.0000
  H   H51       1.0  0.38721  0.29110  0.20611  1.0000
  H   H52       1.0  0.51505  0.04469  0.30712  1.0000
  H   H53       1.0  0.40279  0.69867  0.23963  1.0000
  H   H54       1.0  0.27860  0.99792  0.20868  1.0000
  C   C105      1.0  0.66311  0.11259  0.30818  1.0000
  C   C106      1.0  0.67582  0.08375  0.30873  1.0000
  C   C107      1.0  0.66870  0.04419  0.30976  1.0000
  N   N13       1.0  0.65199  0.05054  0.31114  1.0000
  C   C108      1.0  0.64791  0.09134  0.30930  1.0000
  C   C109      1.0  0.63192  0.11043  0.30727  1.0000
  C   C110      1.0  0.61651  0.08878  0.30725  1.0000
  N   N14       1.0  0.61411  0.04731  0.30966  1.0000
  C   C111      1.0  0.59776  0.03737  0.30864  1.0000
  C   C112      1.0  0.58909  0.07493  0.30540  1.0000
  C   C113      1.0  0.60066  0.10663  0.30477  1.0000
  C   C114      1.0  0.59057  0.99714  0.31020  1.0000
  C   C115      1.0  0.59966  0.95926  0.31206  1.0000
  N   N15       1.0  0.61636  0.95294  0.31122  1.0000
  C   C116      1.0  0.62042  0.91212  0.31113  1.0000
  C   C117      1.0  0.60525  0.89081  0.31325  1.0000
  C   C118      1.0  0.59255  0.91966  0.31442  1.0000
  C   C119      1.0  0.63639  0.89308  0.30824  1.0000
  C   C120      1.0  0.65179  0.91477  0.30814  1.0000
  N   N16       1.0  0.65422  0.95621  0.31119  1.0000
  C   C121      1.0  0.67058  0.96612  0.30854  1.0000
  C   C122      1.0  0.67921  0.92853  0.30426  1.0000
  C   C123      1.0  0.66763  0.89688  0.30415  1.0000
  C   C124      1.0  0.67780  0.00633  0.30827  1.0000
  C   C125      1.0  0.69547  0.00864  0.30063  1.0000
  C   C126      1.0  0.73084  0.00809  0.28209  1.0000
  C   C127      1.0  0.72034  0.01302  0.20692  1.0000
  C   C128      1.0  0.70289  0.01329  0.21593  1.0000
  C   C129      1.0  0.63707  0.84914  0.29945  1.0000
  C   C130      1.0  0.64081  0.76165  0.27987  1.0000
  C   C131      1.0  0.64008  0.78802  0.20441  1.0000
  C   C132      1.0  0.63825  0.83115  0.21393  1.0000
  C   C133      1.0  0.57287  0.99456  0.30931  1.0000
  C   C134      1.0  0.56428  0.98673  0.22882  1.0000
  C   C135      1.0  0.54682  0.98290  0.22840  1.0000
  C   C136      1.0  0.53769  0.98722  0.30838  1.0000
  C   C137      1.0  0.63129  0.15454  0.30337  1.0000
  C   C138      1.0  0.62992  0.17499  0.22045  1.0000
  C   C139      1.0  0.63248  0.24268  0.29398  1.0000
  C   C140      1.0  0.63043  0.21857  0.21592  1.0000
  H   H55       1.0  0.62986  0.23244  0.15456  1.0000
  H   H56       1.0  0.62894  0.15827  0.16266  1.0000
  H   H57       1.0  0.66491  0.14396  0.30575  1.0000
  H   H58       1.0  0.68822  0.09102  0.30697  1.0000
  H   H59       1.0  0.64393  0.02852  0.31114  1.0000
  H   H60       1.0  0.62440  0.97495  0.30796  1.0000
  H   H61       1.0  0.59778  0.13751  0.30260  1.0000
  H   H62       1.0  0.57646  0.07909  0.30358  1.0000
  H   H63       1.0  0.57070  0.98338  0.17025  1.0000
  H   H64       1.0  0.54085  0.97700  0.16940  1.0000
  H   H65       1.0  0.58016  0.91232  0.31536  1.0000
  H   H66       1.0  0.60348  0.85941  0.31362  1.0000
  H   H67       1.0  0.69182  0.92430  0.30074  1.0000
  H   H68       1.0  0.67050  0.86602  0.30090  1.0000
  H   H69       1.0  0.63822  0.84943  0.15809  1.0000
  H   H70       1.0  0.64141  0.77625  0.14138  1.0000
  H   H71       1.0  0.69565  0.01608  0.16004  1.0000
  H   H72       1.0  0.72528  0.01585  0.14425  1.0000
  C   C141      1.0  0.64412  0.71963  0.26773  1.0000
  C   C142      1.0  0.52059  0.98309  0.30808  1.0000
  C   C143      1.0  0.63426  0.28534  0.28718  1.0000
  C   C144      1.0  0.74801  0.00571  0.27001  1.0000
  H   H73       1.0  0.64376  0.70806  0.20615  1.0000
  H   H74       1.0  0.51592  0.95448  0.30783  1.0000
  H   H75       1.0  0.62821  0.30049  0.23943  1.0000
  H   H76       1.0  0.75238  0.00122  0.20863  1.0000
  C   C145      1.0  0.86785  0.38661  0.30758  1.0000
  C   C146      1.0  0.85514  0.41545  0.30824  1.0000
  C   C147      1.0  0.86227  0.45500  0.30964  1.0000
  N   N17       1.0  0.87898  0.44864  0.31118  1.0000
  C   C148      1.0  0.88305  0.40784  0.30918  1.0000
  C   C149      1.0  0.89905  0.38874  0.30750  1.0000
  C   C150      1.0  0.91445  0.41038  0.30766  1.0000
  N   N18       1.0  0.91685  0.45185  0.30986  1.0000
  C   C151      1.0  0.93321  0.46178  0.30904  1.0000
  C   C152      1.0  0.94188  0.42421  0.30613  1.0000
  C   C153      1.0  0.93031  0.39251  0.30552  1.0000
  C   C154      1.0  0.94040  0.50201  0.31040  1.0000
  C   C155      1.0  0.93131  0.53990  0.31196  1.0000
  N   N19       1.0  0.91461  0.54622  0.31118  1.0000
  C   C156      1.0  0.91056  0.58704  0.31091  1.0000
  C   C157      1.0  0.92573  0.60835  0.31267  1.0000
  C   C158      1.0  0.93843  0.57949  0.31387  1.0000
  C   C159      1.0  0.89459  0.60610  0.30817  1.0000
  C   C160      1.0  0.87919  0.58442  0.30832  1.0000
  N   N20       1.0  0.87675  0.54297  0.31122  1.0000
  C   C161      1.0  0.86040  0.53307  0.30881  1.0000
  C   C162      1.0  0.85176  0.57067  0.30482  1.0000
  C   C163      1.0  0.86334  0.60232  0.30468  1.0000
  C   C164      1.0  0.85317  0.49286  0.30848  1.0000
  C   C165      1.0  0.83551  0.49057  0.30077  1.0000
  C   C166      1.0  0.80014  0.49110  0.28214  1.0000
  C   C167      1.0  0.81065  0.48628  0.20697  1.0000
  C   C168      1.0  0.82809  0.48604  0.21602  1.0000
  C   C169      1.0  0.89391  0.65004  0.29948  1.0000
  C   C170      1.0  0.89023  0.73756  0.28011  1.0000
  C   C171      1.0  0.89087  0.71120  0.20461  1.0000
  C   C172      1.0  0.89270  0.66806  0.21402  1.0000
  C   C173      1.0  0.95810  0.50457  0.30948  1.0000
  C   C174      1.0  0.96669  0.51231  0.22894  1.0000
  C   C175      1.0  0.98416  0.51614  0.22848  1.0000
  C   C176      1.0  0.99328  0.51192  0.30847  1.0000
  C   C177      1.0  0.89967  0.34463  0.30358  1.0000
  C   C178      1.0  0.90109  0.32418  0.22068  1.0000
  C   C179      1.0  0.89847  0.25649  0.29414  1.0000
  C   C180      1.0  0.90057  0.28061  0.21613  1.0000
  H   H77       1.0  0.90119  0.26674  0.15478  1.0000
  H   H78       1.0  0.90212  0.34091  0.16292  1.0000
  H   H79       1.0  0.86605  0.35524  0.30524  1.0000
  H   H80       1.0  0.84274  0.40818  0.30643  1.0000
  H   H81       1.0  0.88703  0.47066  0.31192  1.0000
  H   H82       1.0  0.90657  0.52421  0.30856  1.0000
  H   H83       1.0  0.93318  0.36164  0.30353  1.0000
  H   H84       1.0  0.95450  0.42004  0.30450  1.0000
  H   H85       1.0  0.96028  0.51557  0.17035  1.0000
  H   H86       1.0  0.99013  0.52196  0.16943  1.0000
  H   H87       1.0  0.95082  0.58683  0.31478  1.0000
  H   H88       1.0  0.92750  0.63975  0.31288  1.0000
  H   H89       1.0  0.83915  0.57492  0.30161  1.0000
  H   H90       1.0  0.86048  0.63318  0.30160  1.0000
  H   H91       1.0  0.89266  0.64981  0.15815  1.0000
  H   H92       1.0  0.88951  0.72301  0.14163  1.0000
  H   H93       1.0  0.83534  0.48330  0.16014  1.0000
  H   H94       1.0  0.80571  0.48350  0.14428  1.0000
  C   C181      1.0  0.88694  0.77959  0.26811  1.0000
  C   C182      1.0  0.01038  0.51606  0.30812  1.0000
  C   C183      1.0  0.89666  0.21383  0.28727  1.0000
  C   C184      1.0  0.78297  0.49341  0.27003  1.0000
  H   H95       1.0  0.88731  0.79119  0.20655  1.0000
  H   H96       1.0  0.01505  0.54466  0.30735  1.0000
  H   H97       1.0  0.90275  0.19867  0.23966  1.0000
  H   H98       1.0  0.77860  0.49786  0.20864  1.0000
  C   C185      1.0  0.16311  0.61259  0.30728  1.0000
  C   C186      1.0  0.17582  0.58375  0.30794  1.0000
  C   C187      1.0  0.16870  0.54420  0.30952  1.0000
  N   N21       1.0  0.15199  0.55055  0.31104  1.0000
  C   C188      1.0  0.14791  0.59135  0.30898  1.0000
  C   C189      1.0  0.13191  0.61044  0.30737  1.0000
  C   C190      1.0  0.11651  0.58879  0.30760  1.0000
  N   N22       1.0  0.11411  0.54732  0.30975  1.0000
  C   C191      1.0  0.09776  0.53738  0.30900  1.0000
  C   C192      1.0  0.08909  0.57495  0.30621  1.0000
  C   C193      1.0  0.10065  0.60665  0.30556  1.0000
  C   C194      1.0  0.09057  0.49715  0.31034  1.0000
  C   C195      1.0  0.09966  0.45926  0.31188  1.0000
  N   N23       1.0  0.11636  0.45295  0.31124  1.0000
  C   C196      1.0  0.12042  0.41213  0.31099  1.0000
  C   C197      1.0  0.10525  0.39081  0.31255  1.0000
  C   C198      1.0  0.09255  0.41966  0.31366  1.0000
  C   C199      1.0  0.13639  0.39309  0.30840  1.0000
  C   C200      1.0  0.15179  0.41477  0.30858  1.0000
  N   N24       1.0  0.15422  0.45622  0.31139  1.0000
  C   C201      1.0  0.17058  0.46613  0.30900  1.0000
  C   C202      1.0  0.17922  0.42853  0.30511  1.0000
  C   C203      1.0  0.16764  0.39688  0.30503  1.0000
  C   C204      1.0  0.17780  0.50634  0.30860  1.0000
  C   C205      1.0  0.19547  0.50864  0.30086  1.0000
  C   C206      1.0  0.23084  0.50807  0.28217  1.0000
  C   C207      1.0  0.22032  0.51288  0.20701  1.0000
  C   C208      1.0  0.20288  0.51313  0.21609  1.0000
  C   C209      1.0  0.13708  0.34915  0.29962  1.0000
  C   C210      1.0  0.14080  0.26166  0.28008  1.0000
  C   C211      1.0  0.14014  0.28803  0.20462  1.0000
  C   C212      1.0  0.13830  0.33116  0.21412  1.0000
  C   C213      1.0  0.07287  0.49458  0.30949  1.0000
  C   C214      1.0  0.06427  0.48691  0.22896  1.0000
  C   C215      1.0  0.04681  0.48306  0.22858  1.0000
  C   C216      1.0  0.03769  0.48721  0.30863  1.0000
  C   C217      1.0  0.13129  0.65455  0.30354  1.0000
  C   C218      1.0  0.12986  0.67502  0.22067  1.0000
  C   C219      1.0  0.13247  0.74269  0.29425  1.0000
  C   C220      1.0  0.13038  0.71860  0.21619  1.0000
  H   H99       1.0  0.12977  0.73249  0.15486  1.0000
  H   H100      1.0  0.12885  0.65832  0.16287  1.0000
  H   H101      1.0  0.16491  0.64396  0.30494  1.0000
  H   H102      1.0  0.18822  0.59103  0.30626  1.0000
  H   H103      1.0  0.14394  0.52853  0.31207  1.0000
  H   H104      1.0  0.12441  0.47496  0.30880  1.0000
  H   H105      1.0  0.09778  0.63753  0.30365  1.0000
  H   H106      1.0  0.07646  0.57911  0.30464  1.0000
  H   H107      1.0  0.07068  0.48366  0.17034  1.0000
  H   H108      1.0  0.04083  0.47727  0.16954  1.0000
  H   H109      1.0  0.08015  0.41232  0.31446  1.0000
  H   H110      1.0  0.10348  0.35941  0.31272  1.0000
  H   H111      1.0  0.19183  0.42429  0.30190  1.0000
  H   H112      1.0  0.17051  0.36602  0.30192  1.0000
  H   H113      1.0  0.13831  0.34944  0.15828  1.0000
  H   H114      1.0  0.14149  0.27625  0.14161  1.0000
  H   H115      1.0  0.19563  0.51586  0.16021  1.0000
  H   H116      1.0  0.22526  0.51564  0.14431  1.0000
  C   C221      1.0  0.14410  0.21963  0.26801  1.0000
  C   C222      1.0  0.02059  0.48307  0.30837  1.0000
  C   C223      1.0  0.13427  0.78535  0.28748  1.0000
  C   C224      1.0  0.24801  0.50574  0.27003  1.0000
  H   H117      1.0  0.14373  0.20804  0.20645  1.0000
  H   H118      1.0  0.01592  0.45445  0.30816  1.0000
  H   H119      1.0  0.12818  0.80051  0.23987  1.0000
  H   H120      1.0  0.25237  0.50127  0.20865  1.0000
  C   C225      1.0  0.22041  0.99509  0.34424  1.0000
  C   C226      1.0  0.16273  0.85107  0.40695  1.0000
  C   C227      1.0  0.17051  0.89007  0.41247  1.0000
  C   C228      1.0  0.22968  0.96960  0.40301  1.0000
  C   C229      1.0  0.24720  0.96828  0.39891  1.0000
  C   C230      1.0  0.25595  0.99178  0.33489  1.0000
  C   C231      1.0  0.14962  0.12910  0.39637  1.0000
  C   C232      1.0  0.15634  0.08874  0.39943  1.0000
  H   H121      1.0  0.16643  0.82806  0.44970  1.0000
  H   H122      1.0  0.17954  0.89440  0.45977  1.0000
  H   H123      1.0  0.22375  0.95223  0.45053  1.0000
  H   H124      1.0  0.25355  0.94969  0.44263  1.0000
  H   H125      1.0  0.14147  0.13829  0.44506  1.0000
  H   H126      1.0  0.15303  0.06960  0.45092  1.0000
  H   H127      1.0  0.20075  0.06172  0.34232  1.0000
  N   N25       1.0  0.27251  0.98969  0.33463  1.0000
  C   C233      1.0  0.81056  0.00405  0.34422  1.0000
  C   C234      1.0  0.86820  0.14810  0.40683  1.0000
  C   C235      1.0  0.86043  0.10909  0.41240  1.0000
  C   C236      1.0  0.80129  0.02957  0.40295  1.0000
  C   C237      1.0  0.78376  0.03087  0.39887  1.0000
  C   C238      1.0  0.77502  0.00737  0.33485  1.0000
  C   C239      1.0  0.88136  0.87005  0.39648  1.0000
  C   C240      1.0  0.87462  0.91041  0.39952  1.0000
  H   H128      1.0  0.86450  0.17110  0.44958  1.0000
  H   H129      1.0  0.85141  0.10474  0.45973  1.0000
  H   H130      1.0  0.80721  0.04692  0.45050  1.0000
  H   H131      1.0  0.77741  0.04947  0.44258  1.0000
  H   H132      1.0  0.88951  0.86088  0.44514  1.0000
  H   H133      1.0  0.87793  0.92957  0.45098  1.0000
  H   H134      1.0  0.83022  0.93742  0.34237  1.0000
  N   N26       1.0  0.75846  0.00947  0.33458  1.0000
  C   C241      1.0  0.72041  0.49505  0.34413  1.0000
  C   C242      1.0  0.66273  0.35104  0.40671  1.0000
  C   C243      1.0  0.67050  0.39004  0.41229  1.0000
  C   C244      1.0  0.72967  0.46956  0.40291  1.0000
  C   C245      1.0  0.74720  0.46827  0.39886  1.0000
  C   C246      1.0  0.75595  0.49175  0.33481  1.0000
  C   C247      1.0  0.64962  0.62909  0.39607  1.0000
  C   C248      1.0  0.65632  0.58871  0.39911  1.0000
  H   H135      1.0  0.66641  0.32803  0.44948  1.0000
  H   H136      1.0  0.67953  0.39437  0.45960  1.0000
  H   H137      1.0  0.72375  0.45223  0.45049  1.0000
  H   H138      1.0  0.75355  0.44970  0.44262  1.0000
  H   H139      1.0  0.64149  0.63830  0.44479  1.0000
  H   H140      1.0  0.65304  0.56961  0.45072  1.0000
  H   H141      1.0  0.70075  0.56169  0.34213  1.0000
  N   N27       1.0  0.77251  0.48968  0.33460  1.0000
  C   C249      1.0  0.31057  0.50412  0.34404  1.0000
  C   C250      1.0  0.36826  0.64810  0.40689  1.0000
  C   C251      1.0  0.36047  0.60912  0.41234  1.0000
  C   C252      1.0  0.30130  0.52959  0.40286  1.0000
  C   C253      1.0  0.28377  0.53090  0.39881  1.0000
  C   C254      1.0  0.27503  0.50740  0.33480  1.0000
  C   C255      1.0  0.38134  0.37005  0.39605  1.0000
  C   C256      1.0  0.37463  0.41043  0.39910  1.0000
  H   H142      1.0  0.36455  0.67112  0.44959  1.0000
  H   H143      1.0  0.35143  0.60479  0.45961  1.0000
  H   H144      1.0  0.30723  0.54694  0.45040  1.0000
  H   H145      1.0  0.27743  0.54946  0.44258  1.0000
  H   H146      1.0  0.38947  0.36083  0.44478  1.0000
  H   H147      1.0  0.37792  0.42953  0.45070  1.0000
  H   H148      1.0  0.33022  0.43749  0.34203  1.0000
  N   N28       1.0  0.25846  0.50948  0.33458  1.0000
  C   C257      1.0  0.32518  0.99494  0.37629  1.0000
  C   C258      1.0  0.30772  0.99524  0.36705  1.0000
  C   C259      1.0  0.39357  0.17597  0.37505  1.0000
  C   C260      1.0  0.39174  0.21917  0.36532  1.0000
  C   C261      1.0  0.48470  0.00409  0.38870  1.0000
  C   C262      1.0  0.46723  0.00049  0.38920  1.0000
  C   C263      1.0  0.39807  0.82075  0.38189  1.0000
  C   C264      1.0  0.39749  0.77719  0.37726  1.0000
  H   H149      1.0  0.39596  0.76077  0.43511  1.0000
  H   H150      1.0  0.39690  0.83496  0.44260  1.0000
  H   H151      1.0  0.46123  0.99509  0.44830  1.0000
  H   H152      1.0  0.49108  0.00115  0.44752  1.0000
  H   H153      1.0  0.39425  0.16350  0.43771  1.0000
  H   H154      1.0  0.39118  0.23699  0.42171  1.0000
  H   H155      1.0  0.30062  0.99949  0.42300  1.0000
  H   H156      1.0  0.33031  0.99885  0.43821  1.0000
  C   C265      1.0  0.70579  0.00415  0.37622  1.0000
  C   C266      1.0  0.72325  0.00387  0.36698  1.0000
  C   C267      1.0  0.63740  0.82317  0.37516  1.0000
  C   C268      1.0  0.63922  0.77996  0.36540  1.0000
  C   C269      1.0  0.54627  0.99509  0.38886  1.0000
  C   C270      1.0  0.56374  0.99868  0.38933  1.0000
  C   C271      1.0  0.63289  0.17842  0.38180  1.0000
  C   C272      1.0  0.63348  0.22199  0.37710  1.0000
  H   H157      1.0  0.63499  0.23842  0.43494  1.0000
  H   H158      1.0  0.63404  0.16423  0.44254  1.0000
  H   H159      1.0  0.56975  0.00406  0.44842  1.0000
  H   H160      1.0  0.53990  0.99801  0.44770  1.0000
  H   H161      1.0  0.63670  0.83562  0.43783  1.0000
  H   H162      1.0  0.63977  0.76214  0.42178  1.0000
  H   H163      1.0  0.73034  0.99957  0.42292  1.0000
  H   H164      1.0  0.70065  0.00018  0.43812  1.0000
  C   C273      1.0  0.82517  0.49494  0.37636  1.0000
  C   C274      1.0  0.80771  0.49522  0.36708  1.0000
  C   C275      1.0  0.89366  0.67599  0.37524  1.0000
  C   C276      1.0  0.89188  0.71921  0.36558  1.0000
  C   C277      1.0  0.98470  0.50416  0.38901  1.0000
  C   C278      1.0  0.96723  0.50057  0.38952  1.0000
  C   C279      1.0  0.89801  0.32074  0.38198  1.0000
  C   C280      1.0  0.89740  0.27718  0.37724  1.0000
  H   H165      1.0  0.89585  0.26074  0.43505  1.0000
  H   H166      1.0  0.89681  0.33493  0.44270  1.0000
  H   H167      1.0  0.96122  0.49526  0.44865  1.0000
  H   H168      1.0  0.99108  0.50132  0.44787  1.0000
  H   H169      1.0  0.89439  0.66352  0.43788  1.0000
  H   H170      1.0  0.89136  0.73701  0.42200  1.0000
  H   H171      1.0  0.80061  0.49941  0.42304  1.0000
  H   H172      1.0  0.83030  0.49882  0.43830  1.0000
  C   C281      1.0  0.20580  0.50428  0.37644  1.0000
  C   C282      1.0  0.22326  0.50396  0.36712  1.0000
  C   C283      1.0  0.13733  0.32317  0.37532  1.0000
  C   C284      1.0  0.13915  0.27996  0.36559  1.0000
  C   C285      1.0  0.04628  0.49492  0.38915  1.0000
  C   C286      1.0  0.06375  0.49853  0.38959  1.0000
  C   C287      1.0  0.13294  0.67841  0.38196  1.0000
  C   C288      1.0  0.13353  0.72197  0.37732  1.0000
  H   H173      1.0  0.13509  0.73839  0.43515  1.0000
  H   H174      1.0  0.13414  0.66420  0.44266  1.0000
  H   H175      1.0  0.06977  0.50379  0.44870  1.0000
  H   H176      1.0  0.03991  0.49772  0.44804  1.0000
  H   H177      1.0  0.13662  0.33562  0.43799  1.0000
  H   H178      1.0  0.13967  0.26214  0.42197  1.0000
  H   H179      1.0  0.23037  0.49980  0.42308  1.0000
  H   H180      1.0  0.20068  0.50041  0.43839  1.0000
