data_image0
_chemical_formula_structural       C12H6CH2C2O2C12H6CH2C2O2C12H6CH2C2O2C2NHNHC2NHNHC2NHNHC2NHNHC2NHNHC2NHNHC12H6C2H2C2O2C12H6C2H2C2O2C12H6C2H2C2O2CNCHNHCNCHNHCNCHNHCNCHNHCNCHNHCNCHNH
_chemical_formula_sum              "C117 H72 O12 N24"
_cell_length_a       34.3079
_cell_length_b       34.3078
_cell_length_c       15.0919
_cell_angle_alpha    90
_cell_angle_beta     90
_cell_angle_gamma    120

_space_group_name_H-M_alt    "P 1"
_space_group_IT_number       1

loop_
  _space_group_symop_operation_xyz
  'x, y, z'

loop_
  _atom_site_type_symbol
  _atom_site_label
  _atom_site_symmetry_multiplicity
  _atom_site_fract_x
  _atom_site_fract_y
  _atom_site_fract_z
  _atom_site_occupancy
  C   C1        1.0  0.96559  0.50867  0.27258  1.0000
  C   C2        1.0  0.96804  0.51085  0.17852  1.0000
  C   C3        1.0  0.02286  0.48302  0.17853  1.0000
  C   C4        1.0  0.02529  0.48519  0.27260  1.0000
  C   C5        1.0  0.05734  0.47659  0.31428  1.0000
  C   C6        1.0  0.08609  0.46641  0.26474  1.0000
  C   C7        1.0  0.07962  0.46036  0.17234  1.0000
  C   C8        1.0  0.04867  0.46901  0.12955  1.0000
  C   C9        1.0  0.94220  0.52480  0.12950  1.0000
  C   C10       1.0  0.91126  0.53347  0.17227  1.0000
  C   C11       1.0  0.90480  0.52746  0.26467  1.0000
  C   C12       1.0  0.93355  0.51729  0.31424  1.0000
  H   H1        1.0  0.06146  0.57950  0.27297  1.0000
  H   H2        1.0  0.92940  0.41437  0.27294  1.0000
  H   H3        1.0  0.09864  0.45142  0.13444  1.0000
  H   H4        1.0  0.04659  0.46688  0.06184  1.0000
  H   H5        1.0  0.94431  0.52697  0.06179  1.0000
  H   H6        1.0  0.89227  0.54246  0.13436  1.0000
  C   C13       1.0  0.99544  0.49692  0.12700  1.0000
  H   H7        1.0  0.01818  0.52507  0.08455  1.0000
  H   H8        1.0  0.97268  0.46874  0.08460  1.0000
  C   C14       1.0  0.86816  0.52853  0.30540  1.0000
  C   C15       1.0  0.12276  0.46540  0.30544  1.0000
  O   O1        1.0  0.11632  0.66748  0.26692  1.0000
  O   O2        1.0  0.87449  0.32639  0.26687  1.0000
  C   C16       1.0  0.48364  0.45531  0.27265  1.0000
  C   C17       1.0  0.48147  0.45558  0.17859  1.0000
  C   C18       1.0  0.50928  0.53824  0.17861  1.0000
  C   C19       1.0  0.50714  0.53850  0.27268  1.0000
  C   C20       1.0  0.51577  0.57916  0.31437  1.0000
  C   C21       1.0  0.52594  0.61808  0.26482  1.0000
  C   C22       1.0  0.53198  0.61766  0.17242  1.0000
  C   C23       1.0  0.52325  0.57804  0.12962  1.0000
  C   C24       1.0  0.46750  0.41578  0.12958  1.0000
  C   C25       1.0  0.45885  0.37618  0.17234  1.0000
  C   C26       1.0  0.46488  0.37574  0.26474  1.0000
  C   C27       1.0  0.47503  0.41465  0.31431  1.0000
  H   H9        1.0  0.41285  0.48042  0.27302  1.0000
  H   H10       1.0  0.57796  0.51348  0.27301  1.0000
  H   H11       1.0  0.54091  0.64562  0.13450  1.0000
  H   H12       1.0  0.52541  0.57809  0.06191  1.0000
  H   H13       1.0  0.46532  0.41573  0.06187  1.0000
  H   H14       1.0  0.44988  0.34822  0.13444  1.0000
  C   C28       1.0  0.49536  0.49691  0.12707  1.0000
  H   H15       1.0  0.46718  0.49148  0.08468  1.0000
  H   H16       1.0  0.52352  0.50234  0.08462  1.0000
  C   C29       1.0  0.46387  0.33806  0.30544  1.0000
  C   C30       1.0  0.52699  0.65578  0.30554  1.0000
  O   O3        1.0  0.32487  0.44735  0.26694  1.0000
  O   O4        1.0  0.66594  0.54661  0.26694  1.0000
  C   C31       1.0  0.53700  0.02680  0.27260  1.0000
  C   C32       1.0  0.53674  0.02437  0.17854  1.0000
  C   C33       1.0  0.45409  0.96952  0.17851  1.0000
  C   C34       1.0  0.45382  0.96708  0.27257  1.0000
  C   C35       1.0  0.41316  0.93503  0.31422  1.0000
  C   C36       1.0  0.37423  0.90631  0.26466  1.0000
  C   C37       1.0  0.37467  0.91279  0.17226  1.0000
  C   C38       1.0  0.41430  0.94367  0.12949  1.0000
  C   C39       1.0  0.57654  0.05023  0.12955  1.0000
  C   C40       1.0  0.61615  0.08113  0.17236  1.0000
  C   C41       1.0  0.61656  0.08762  0.26474  1.0000
  C   C42       1.0  0.57765  0.05883  0.31431  1.0000
  H   H17       1.0  0.51195  0.93092  0.27297  1.0000
  H   H18       1.0  0.47892  0.06299  0.27293  1.0000
  H   H19       1.0  0.34671  0.89378  0.13433  1.0000
  H   H20       1.0  0.41425  0.94581  0.06179  1.0000
  H   H21       1.0  0.57661  0.04809  0.06185  1.0000
  H   H22       1.0  0.64411  0.10017  0.13444  1.0000
  C   C43       1.0  0.49542  0.99693  0.12700  1.0000
  H   H23       1.0  0.50086  0.97419  0.08461  1.0000
  H   H24       1.0  0.49000  0.01967  0.08454  1.0000
  C   C44       1.0  0.65424  0.12428  0.30547  1.0000
  C   C45       1.0  0.33652  0.86966  0.30535  1.0000
  O   O5        1.0  0.54511  0.87608  0.26694  1.0000
  O   O6        1.0  0.44585  0.11793  0.26690  1.0000
  C   C46       1.0  0.20061  0.48349  0.29556  1.0000
  C   C47       1.0  0.23312  0.48446  0.23686  1.0000
  N   N1        1.0  0.26939  0.48393  0.27055  1.0000
  H   H25       1.0  0.22924  0.48426  0.16971  1.0000
  N   N2        1.0  0.16341  0.48320  0.26390  1.0000
  H   H26       1.0  0.16667  0.49693  0.20577  1.0000
  C   C48       1.0  0.50908  0.71568  0.29564  1.0000
  C   C49       1.0  0.50816  0.74724  0.23692  1.0000
  N   N3        1.0  0.50865  0.78402  0.27060  1.0000
  H   H27       1.0  0.50825  0.74350  0.16977  1.0000
  N   N4        1.0  0.50929  0.67872  0.26398  1.0000
  H   H28       1.0  0.49554  0.66826  0.20586  1.0000
  C   C50       1.0  0.27669  0.79183  0.29548  1.0000
  C   C51       1.0  0.24515  0.75931  0.23680  1.0000
  N   N5        1.0  0.20837  0.72303  0.27050  1.0000
  H   H29       1.0  0.24884  0.76317  0.16963  1.0000
  N   N6        1.0  0.31362  0.82902  0.26380  1.0000
  H   H30       1.0  0.32407  0.82574  0.20567  1.0000
  C   C52       1.0  0.79036  0.51063  0.29550  1.0000
  C   C53       1.0  0.75787  0.50973  0.23682  1.0000
  N   N7        1.0  0.72158  0.51020  0.27052  1.0000
  H   H31       1.0  0.76170  0.50983  0.16965  1.0000
  N   N8        1.0  0.82753  0.51086  0.26382  1.0000
  H   H32       1.0  0.82424  0.49712  0.20569  1.0000
  C   C54       1.0  0.48197  0.27830  0.29554  1.0000
  C   C55       1.0  0.48297  0.24678  0.23683  1.0000
  N   N9        1.0  0.48247  0.21000  0.27050  1.0000
  H   H33       1.0  0.48278  0.25047  0.16967  1.0000
  N   N10       1.0  0.48167  0.31521  0.26388  1.0000
  H   H34       1.0  0.49539  0.32569  0.20575  1.0000
  C   C56       1.0  0.71408  0.20210  0.29555  1.0000
  C   C57       1.0  0.74565  0.23458  0.23683  1.0000
  N   N11       1.0  0.78243  0.27087  0.27049  1.0000
  H   H35       1.0  0.74191  0.23074  0.16967  1.0000
  N   N12       1.0  0.67714  0.16492  0.26390  1.0000
  H   H36       1.0  0.66668  0.16819  0.20577  1.0000
  C   C58       1.0  0.96557  0.45534  0.38185  1.0000
  C   C59       1.0  0.96799  0.45560  0.47592  1.0000
  C   C60       1.0  0.02285  0.53825  0.47593  1.0000
  C   C61       1.0  0.02530  0.53851  0.38187  1.0000
  C   C62       1.0  0.04871  0.57804  0.52494  1.0000
  C   C63       1.0  0.07966  0.61764  0.48217  1.0000
  C   C64       1.0  0.08612  0.61807  0.38977  1.0000
  C   C65       1.0  0.05737  0.57916  0.34021  1.0000
  C   C66       1.0  0.93353  0.41468  0.34016  1.0000
  C   C67       1.0  0.90474  0.37578  0.38973  1.0000
  C   C68       1.0  0.91119  0.37621  0.48213  1.0000
  C   C69       1.0  0.94215  0.41580  0.52491  1.0000
  H   H37       1.0  0.89214  0.34825  0.52003  1.0000
  H   H38       1.0  0.94422  0.41575  0.59262  1.0000
  H   H39       1.0  0.04657  0.57809  0.59264  1.0000
  H   H40       1.0  0.09866  0.64561  0.52007  1.0000
  H   H41       1.0  0.06143  0.48035  0.38152  1.0000
  H   H42       1.0  0.92943  0.51351  0.38147  1.0000
  C   C70       1.0  0.99544  0.49693  0.32723  1.0000
  C   C71       1.0  0.99541  0.49693  0.52746  1.0000
  H   H43       1.0  0.97266  0.50236  0.56986  1.0000
  H   H44       1.0  0.01814  0.49149  0.56990  1.0000
  C   C72       1.0  0.12276  0.65577  0.34904  1.0000
  C   C73       1.0  0.86807  0.33810  0.34900  1.0000
  O   O7        1.0  0.11636  0.44729  0.38759  1.0000
  O   O8        1.0  0.87460  0.54666  0.38753  1.0000
  C   C74       1.0  0.53697  0.50861  0.38194  1.0000
  C   C75       1.0  0.53670  0.51077  0.47600  1.0000
  C   C76       1.0  0.45406  0.48301  0.47600  1.0000
  C   C77       1.0  0.45380  0.48518  0.38193  1.0000
  C   C78       1.0  0.41427  0.46909  0.52499  1.0000
  C   C79       1.0  0.37468  0.46045  0.48221  1.0000
  C   C80       1.0  0.37425  0.46647  0.38981  1.0000
  C   C81       1.0  0.41315  0.47658  0.34024  1.0000
  C   C82       1.0  0.57762  0.51720  0.34027  1.0000
  C   C83       1.0  0.61654  0.52737  0.38982  1.0000
  C   C84       1.0  0.61611  0.53338  0.48223  1.0000
  C   C85       1.0  0.57649  0.52467  0.52501  1.0000
  H   H45       1.0  0.64407  0.54235  0.52013  1.0000
  H   H46       1.0  0.57655  0.52687  0.59271  1.0000
  H   H47       1.0  0.41420  0.46688  0.59269  1.0000
  H   H48       1.0  0.34671  0.45149  0.52010  1.0000
  H   H49       1.0  0.51198  0.57947  0.38160  1.0000
  H   H50       1.0  0.47882  0.41432  0.38154  1.0000
  C   C86       1.0  0.49539  0.49690  0.32730  1.0000
  C   C87       1.0  0.49538  0.49687  0.52753  1.0000
  H   H51       1.0  0.48992  0.46868  0.56992  1.0000
  H   H52       1.0  0.50082  0.52503  0.56998  1.0000
  C   C88       1.0  0.33658  0.46547  0.34908  1.0000
  C   C89       1.0  0.65427  0.52848  0.34908  1.0000
  O   O9        1.0  0.54513  0.66749  0.38767  1.0000
  O   O10       1.0  0.44577  0.32635  0.38760  1.0000
  C   C90       1.0  0.48367  0.02679  0.38185  1.0000
  C   C91       1.0  0.48146  0.02434  0.47590  1.0000
  C   C92       1.0  0.50928  0.96950  0.47594  1.0000
  C   C93       1.0  0.50712  0.96707  0.38187  1.0000
  C   C94       1.0  0.52322  0.94366  0.52496  1.0000
  C   C95       1.0  0.53194  0.91276  0.48218  1.0000
  C   C96       1.0  0.52589  0.90628  0.38979  1.0000
  C   C97       1.0  0.51574  0.93503  0.34021  1.0000
  C   C98       1.0  0.47507  0.05884  0.34015  1.0000
  C   C99       1.0  0.46499  0.08766  0.38972  1.0000
  C   C100      1.0  0.45895  0.08120  0.48211  1.0000
  C   C101      1.0  0.46752  0.05020  0.52490  1.0000
  H   H53       1.0  0.45004  0.10025  0.52002  1.0000
  H   H54       1.0  0.46539  0.04812  0.59261  1.0000
  H   H55       1.0  0.52539  0.94578  0.59266  1.0000
  H   H56       1.0  0.54087  0.89373  0.52012  1.0000
  H   H57       1.0  0.41282  0.93094  0.38146  1.0000
  H   H58       1.0  0.57794  0.06297  0.38152  1.0000
  C   C102      1.0  0.49540  0.99693  0.32722  1.0000
  C   C103      1.0  0.49536  0.99692  0.52745  1.0000
  H   H59       1.0  0.52353  0.01966  0.56989  1.0000
  H   H60       1.0  0.46718  0.97418  0.56986  1.0000
  C   C104      1.0  0.52696  0.86964  0.34907  1.0000
  C   C105      1.0  0.46402  0.12435  0.34900  1.0000
  O   O11       1.0  0.32483  0.87608  0.38752  1.0000
  O   O12       1.0  0.66595  0.11786  0.38761  1.0000
  C   C106      1.0  0.24523  0.48447  0.41765  1.0000
  N   N13       1.0  0.20842  0.48391  0.38396  1.0000
  C   C107      1.0  0.27679  0.48353  0.35895  1.0000
  H   H61       1.0  0.24893  0.48429  0.48480  1.0000
  N   N14       1.0  0.31372  0.48326  0.39061  1.0000
  H   H62       1.0  0.32418  0.49700  0.44874  1.0000
  C   C108      1.0  0.50817  0.75936  0.41770  1.0000
  N   N15       1.0  0.50868  0.72308  0.38403  1.0000
  C   C109      1.0  0.50908  0.79184  0.35899  1.0000
  H   H63       1.0  0.50832  0.76322  0.48486  1.0000
  N   N16       1.0  0.50927  0.82900  0.39064  1.0000
  H   H64       1.0  0.49553  0.82571  0.44876  1.0000
  C   C110      1.0  0.23307  0.74722  0.41759  1.0000
  N   N17       1.0  0.26931  0.78403  0.38388  1.0000
  C   C111      1.0  0.20058  0.71564  0.35890  1.0000
  H   H65       1.0  0.22920  0.74353  0.48475  1.0000
  N   N18       1.0  0.16341  0.67870  0.39058  1.0000
  H   H66       1.0  0.16670  0.66824  0.44871  1.0000
  C   C112      1.0  0.74577  0.50970  0.41760  1.0000
  N   N19       1.0  0.78256  0.51023  0.38390  1.0000
  C   C113      1.0  0.71419  0.51061  0.35892  1.0000
  H   H67       1.0  0.74206  0.50984  0.48476  1.0000
  N   N20       1.0  0.67722  0.51078  0.39060  1.0000
  H   H68       1.0  0.66678  0.49703  0.44872  1.0000
  C   C114      1.0  0.48297  0.23466  0.41761  1.0000
  N   N21       1.0  0.48239  0.27090  0.38393  1.0000
  C   C115      1.0  0.48206  0.20219  0.35889  1.0000
  H   H69       1.0  0.48278  0.23078  0.48476  1.0000
  N   N22       1.0  0.48181  0.16500  0.39053  1.0000
  H   H70       1.0  0.49556  0.16827  0.44865  1.0000
  C   C116      1.0  0.75777  0.24671  0.41760  1.0000
  N   N23       1.0  0.72149  0.20992  0.38394  1.0000
  C   C117      1.0  0.79024  0.27827  0.35889  1.0000
  H   H71       1.0  0.76163  0.25043  0.48476  1.0000
  N   N24       1.0  0.82742  0.31522  0.39053  1.0000
  H   H72       1.0  0.82414  0.32569  0.44864  1.0000
