data_image0
_chemical_formula_structural       C8H7NC8H7NC8H7NC8H7NC8H7NC8H7NC3OHOHCHC3OHOHCHC3OHOHCHC3O2H2CHC3O2H2CHC3O2H2CHC3O2H2CHC3O2H2CHC3O2H2CHC10H5C6H3N2C10H5C6H3N2C10H5C6H3N2C10H5C6H3N2C10H5C6H3N2C10H5C6H3N2C3O2H2CHC3O2H2CHC3O2H2CHC3OHOHCHC3OHOHCHC3OHOHCHC3OHOHCHC3OHOHCHC3OHOHCH
_chemical_formula_sum              "C216 H144 N18 O36"
_cell_length_a       77.8662
_cell_length_b       77.8662
_cell_length_c       14.93
_cell_angle_alpha    90
_cell_angle_beta     90
_cell_angle_gamma    120

_space_group_name_H-M_alt    "P 1"
_space_group_IT_number       1

loop_
  _space_group_symop_operation_xyz
  'x, y, z'

loop_
  _atom_site_type_symbol
  _atom_site_label
  _atom_site_symmetry_multiplicity
  _atom_site_fract_x
  _atom_site_fract_y
  _atom_site_fract_z
  _atom_site_occupancy
  C   C1        1.0  0.12054  0.56039  0.33682  1.0000
  C   C2        1.0  0.19888  0.54260  0.29504  1.0000
  C   C3        1.0  0.18470  0.54883  0.29411  1.0000
  C   C4        1.0  0.10967  0.54245  0.28837  1.0000
  C   C5        1.0  0.08876  0.53184  0.28884  1.0000
  C   C6        1.0  0.07785  0.53868  0.33782  1.0000
  C   C7        1.0  0.21089  0.65301  0.23863  1.0000
  C   C8        1.0  0.19697  0.63260  0.24099  1.0000
  H   H1        1.0  0.19847  0.53338  0.24535  1.0000
  H   H2        1.0  0.17459  0.54419  0.24298  1.0000
  H   H3        1.0  0.11691  0.53706  0.25073  1.0000
  H   H4        1.0  0.08150  0.51897  0.25264  1.0000
  H   H5        1.0  0.22033  0.65859  0.18509  1.0000
  H   H6        1.0  0.19671  0.62384  0.18926  1.0000
  H   H7        1.0  0.14482  0.59976  0.31931  1.0000
  N   N1        1.0  0.05803  0.52761  0.33564  1.0000
  C   C9        1.0  0.44546  0.56129  0.33679  1.0000
  C   C10       1.0  0.46319  0.65741  0.29481  1.0000
  C   C11       1.0  0.45697  0.63700  0.29386  1.0000
  C   C12       1.0  0.46341  0.56837  0.28835  1.0000
  C   C13       1.0  0.47401  0.55806  0.28876  1.0000
  C   C14       1.0  0.46718  0.54032  0.33776  1.0000
  C   C15       1.0  0.35284  0.55900  0.23867  1.0000
  C   C16       1.0  0.37325  0.56549  0.24109  1.0000
  H   H8        1.0  0.47240  0.66621  0.24505  1.0000
  H   H9        1.0  0.46161  0.63153  0.24275  1.0000
  H   H10       1.0  0.46879  0.58100  0.25064  1.0000
  H   H11       1.0  0.48687  0.56366  0.25253  1.0000
  H   H12       1.0  0.34727  0.56284  0.18506  1.0000
  H   H13       1.0  0.38202  0.57396  0.18930  1.0000
  H   H14       1.0  0.40610  0.54621  0.31939  1.0000
  N   N2        1.0  0.47824  0.53156  0.33555  1.0000
  C   C17       1.0  0.44452  0.88533  0.33682  1.0000
  C   C18       1.0  0.34842  0.80699  0.29506  1.0000
  C   C19       1.0  0.36882  0.82119  0.29419  1.0000
  C   C20       1.0  0.43745  0.89619  0.28836  1.0000
  C   C21       1.0  0.44775  0.91710  0.28877  1.0000
  C   C22       1.0  0.46550  0.92802  0.33778  1.0000
  C   C23       1.0  0.44681  0.79498  0.23880  1.0000
  C   C24       1.0  0.44035  0.80892  0.24110  1.0000
  H   H15       1.0  0.33961  0.80744  0.24544  1.0000
  H   H16       1.0  0.37429  0.83130  0.24309  1.0000
  H   H17       1.0  0.42482  0.88895  0.25064  1.0000
  H   H18       1.0  0.44215  0.92436  0.25253  1.0000
  H   H19       1.0  0.44293  0.78552  0.18531  1.0000
  H   H20       1.0  0.43181  0.80915  0.18946  1.0000
  H   H21       1.0  0.45963  0.86106  0.31937  1.0000
  N   N3        1.0  0.47425  0.94783  0.33555  1.0000
  C   C25       1.0  0.88661  0.44494  0.33551  1.0000
  C   C26       1.0  0.80805  0.46227  0.29819  1.0000
  C   C27       1.0  0.82227  0.45609  0.29721  1.0000
  C   C28       1.0  0.89728  0.46383  0.29410  1.0000
  C   C29       1.0  0.91818  0.47483  0.29538  1.0000
  C   C30       1.0  0.92928  0.46721  0.33652  1.0000
  C   C31       1.0  0.79621  0.35199  0.23688  1.0000
  C   C32       1.0  0.81014  0.37239  0.23894  1.0000
  H   H22       1.0  0.80864  0.47173  0.24929  1.0000
  H   H23       1.0  0.83258  0.46103  0.24687  1.0000
  H   H24       1.0  0.88992  0.46978  0.26148  1.0000
  H   H25       1.0  0.92529  0.48846  0.26519  1.0000
  H   H26       1.0  0.78658  0.34642  0.18399  1.0000
  H   H27       1.0  0.81021  0.38117  0.18768  1.0000
  H   H28       1.0  0.86242  0.40551  0.31486  1.0000
  N   N4        1.0  0.94900  0.47857  0.33917  1.0000
  C   C33       1.0  0.56095  0.44285  0.33549  1.0000
  C   C34       1.0  0.54363  0.34698  0.29814  1.0000
  C   C35       1.0  0.54980  0.36737  0.29719  1.0000
  C   C36       1.0  0.54207  0.43464  0.29404  1.0000
  C   C37       1.0  0.53107  0.44454  0.29529  1.0000
  C   C38       1.0  0.53869  0.46326  0.33636  1.0000
  C   C39       1.0  0.65392  0.44552  0.23668  1.0000
  C   C40       1.0  0.63351  0.43903  0.23886  1.0000
  H   H29       1.0  0.53413  0.33809  0.24937  1.0000
  H   H30       1.0  0.54485  0.37274  0.24691  1.0000
  H   H31       1.0  0.53612  0.42132  0.26143  1.0000
  H   H32       1.0  0.51745  0.43802  0.26506  1.0000
  H   H33       1.0  0.65950  0.44155  0.18350  1.0000
  H   H34       1.0  0.62474  0.43040  0.18741  1.0000
  H   H35       1.0  0.60040  0.45811  0.31498  1.0000
  N   N5        1.0  0.52732  0.47162  0.33904  1.0000
  C   C41       1.0  0.56298  0.11926  0.33546  1.0000
  C   C42       1.0  0.65885  0.19786  0.29784  1.0000
  C   C43       1.0  0.63846  0.18364  0.29689  1.0000
  C   C44       1.0  0.57120  0.10859  0.29399  1.0000
  C   C45       1.0  0.56129  0.08769  0.29522  1.0000
  C   C46       1.0  0.54258  0.07659  0.33634  1.0000
  C   C47       1.0  0.56032  0.20957  0.23685  1.0000
  C   C48       1.0  0.56681  0.19565  0.23905  1.0000
  H   H36       1.0  0.66772  0.19727  0.24900  1.0000
  H   H37       1.0  0.63308  0.17332  0.24662  1.0000
  H   H38       1.0  0.58451  0.11596  0.26133  1.0000
  H   H39       1.0  0.56781  0.08059  0.26497  1.0000
  H   H40       1.0  0.56428  0.21911  0.18364  1.0000
  H   H41       1.0  0.57542  0.19549  0.18758  1.0000
  H   H42       1.0  0.54773  0.14345  0.31508  1.0000
  N   N6        1.0  0.53422  0.05686  0.33902  1.0000
  C   C49       1.0  0.98251  0.48808  0.34212  1.0000
  C   C50       1.0  0.99490  0.49477  0.26555  1.0000
  C   C51       1.0  0.01545  0.50847  0.27411  1.0000
  O   O1        1.0  0.02663  0.51533  0.19836  1.0000
  H   H43       1.0  0.03061  0.50554  0.18271  1.0000
  O   O2        1.0  0.98710  0.48867  0.18210  1.0000
  H   H44       1.0  0.98820  0.47690  0.16870  1.0000
  C   C52       1.0  0.96264  0.47385  0.33460  1.0000
  H   H45       1.0  0.95913  0.45979  0.32651  1.0000
  C   C53       1.0  0.51780  0.49561  0.34205  1.0000
  C   C54       1.0  0.51109  0.50128  0.26547  1.0000
  C   C55       1.0  0.49739  0.50812  0.27403  1.0000
  O   O3        1.0  0.49051  0.51243  0.19829  1.0000
  H   H46       1.0  0.50029  0.52619  0.18257  1.0000
  O   O4        1.0  0.51718  0.49957  0.18202  1.0000
  H   H47       1.0  0.52895  0.51245  0.16856  1.0000
  C   C56       1.0  0.53204  0.48997  0.33454  1.0000
  H   H48       1.0  0.54609  0.50053  0.32648  1.0000
  C   C57       1.0  0.51022  0.02335  0.34201  1.0000
  C   C58       1.0  0.50455  0.01097  0.26543  1.0000
  C   C59       1.0  0.49770  0.99042  0.27401  1.0000
  O   O5        1.0  0.49339  0.97924  0.19826  1.0000
  H   H49       1.0  0.47963  0.97526  0.18256  1.0000
  O   O6        1.0  0.50626  0.01877  0.18197  1.0000
  H   H50       1.0  0.49339  0.01767  0.16851  1.0000
  C   C60       1.0  0.51587  0.04323  0.33448  1.0000
  H   H51       1.0  0.50532  0.04673  0.32638  1.0000
  C   C61       1.0  0.25279  0.53759  0.32655  1.0000
  C   C62       1.0  0.26611  0.54225  0.25393  1.0000
  C   C63       1.0  0.28510  0.54447  0.26711  1.0000
  O   O7        1.0  0.26132  0.54587  0.17085  1.0000
  O   O8        1.0  0.29759  0.55028  0.19532  1.0000
  H   H52       1.0  0.25543  0.53319  0.13839  1.0000
  H   H53       1.0  0.29455  0.53810  0.16277  1.0000
  C   C64       1.0  0.23452  0.53626  0.31283  1.0000
  H   H54       1.0  0.22625  0.52844  0.26125  1.0000
  C   C65       1.0  0.46824  0.71635  0.32650  1.0000
  C   C66       1.0  0.46365  0.72507  0.25392  1.0000
  C   C67       1.0  0.46149  0.74188  0.26719  1.0000
  O   O9        1.0  0.46003  0.71670  0.17076  1.0000
  O   O10       1.0  0.45577  0.74863  0.19535  1.0000
  H   H55       1.0  0.47273  0.72345  0.13841  1.0000
  H   H56       1.0  0.46800  0.75778  0.16308  1.0000
  C   C68       1.0  0.46951  0.69938  0.31263  1.0000
  H   H57       1.0  0.47740  0.69895  0.26129  1.0000
  C   C69       1.0  0.28949  0.75308  0.32650  1.0000
  C   C70       1.0  0.28082  0.73976  0.25391  1.0000
  C   C71       1.0  0.26404  0.72077  0.26714  1.0000
  O   O11       1.0  0.28922  0.74452  0.17082  1.0000
  O   O12       1.0  0.25734  0.70828  0.19535  1.0000
  H   H58       1.0  0.28245  0.75043  0.13834  1.0000
  H   H59       1.0  0.24820  0.71134  0.16287  1.0000
  C   C72       1.0  0.30644  0.77135  0.31273  1.0000
  H   H60       1.0  0.30692  0.77961  0.26102  1.0000
  C   C73       1.0  0.75390  0.46692  0.32748  1.0000
  C   C74       1.0  0.74071  0.46233  0.25442  1.0000
  C   C75       1.0  0.72171  0.46016  0.26691  1.0000
  O   O13       1.0  0.74561  0.45874  0.17153  1.0000
  O   O14       1.0  0.70935  0.45443  0.19468  1.0000
  H   H61       1.0  0.75157  0.47143  0.13918  1.0000
  H   H62       1.0  0.71248  0.46665  0.16224  1.0000
  C   C76       1.0  0.77219  0.46826  0.31437  1.0000
  H   H63       1.0  0.78056  0.47616  0.26318  1.0000
  C   C77       1.0  0.53894  0.28817  0.32748  1.0000
  C   C78       1.0  0.54354  0.27957  0.25444  1.0000
  C   C79       1.0  0.54570  0.26273  0.26695  1.0000
  O   O15       1.0  0.54715  0.28806  0.17156  1.0000
  O   O16       1.0  0.55145  0.25611  0.19474  1.0000
  H   H64       1.0  0.53445  0.28133  0.13918  1.0000
  H   H65       1.0  0.53923  0.24701  0.16226  1.0000
  C   C80       1.0  0.53762  0.30513  0.31437  1.0000
  H   H66       1.0  0.52972  0.30560  0.26314  1.0000
  C   C81       1.0  0.71768  0.25197  0.32741  1.0000
  C   C82       1.0  0.72639  0.26515  0.25439  1.0000
  C   C83       1.0  0.74327  0.28410  0.26701  1.0000
  O   O17       1.0  0.71795  0.26028  0.17139  1.0000
  O   O18       1.0  0.75002  0.29642  0.19467  1.0000
  H   H67       1.0  0.72465  0.25426  0.13924  1.0000
  H   H68       1.0  0.75915  0.29326  0.16275  1.0000
  C   C84       1.0  0.70069  0.23372  0.31411  1.0000
  H   H69       1.0  0.70024  0.22531  0.26310  1.0000
  C   C85       1.0  0.18558  0.56273  0.35750  1.0000
  C   C86       1.0  0.18433  0.62410  0.31570  1.0000
  C   C87       1.0  0.20047  0.56950  0.42425  1.0000
  C   C88       1.0  0.21452  0.56320  0.42547  1.0000
  C   C89       1.0  0.21421  0.55002  0.35986  1.0000
  C   C90       1.0  0.08862  0.55656  0.38660  1.0000
  C   C91       1.0  0.10951  0.56718  0.38592  1.0000
  C   C92       1.0  0.18569  0.63660  0.38732  1.0000
  C   C93       1.0  0.19988  0.65699  0.38551  1.0000
  C   C94       1.0  0.21294  0.66532  0.31193  1.0000
  H   H70       1.0  0.22560  0.56908  0.47238  1.0000
  H   H71       1.0  0.11664  0.57985  0.42343  1.0000
  H   H72       1.0  0.08140  0.56201  0.42377  1.0000
  H   H73       1.0  0.17730  0.63074  0.44381  1.0000
  H   H74       1.0  0.20110  0.66556  0.43970  1.0000
  C   C95       1.0  0.17336  0.60316  0.32561  1.0000
  C   C96       1.0  0.15242  0.59228  0.32760  1.0000
  C   C97       1.0  0.14185  0.57129  0.33628  1.0000
  C   C98       1.0  0.15302  0.56148  0.34495  1.0000
  C   C99       1.0  0.17400  0.57211  0.34669  1.0000
  C   C100      1.0  0.18387  0.59289  0.33568  1.0000
  H   H75       1.0  0.14581  0.54643  0.35379  1.0000
  H   H76       1.0  0.19908  0.60075  0.33503  1.0000
  H   H77       1.0  0.20175  0.57981  0.47039  1.0000
  N   N7        1.0  0.22777  0.68400  0.30870  1.0000
  N   N8        1.0  0.22946  0.54680  0.36012  1.0000
  C   C101      1.0  0.44311  0.62398  0.35745  1.0000
  C   C102      1.0  0.38175  0.56136  0.31588  1.0000
  C   C103      1.0  0.43639  0.63211  0.42435  1.0000
  C   C104      1.0  0.44266  0.65246  0.42544  1.0000
  C   C105      1.0  0.45581  0.66532  0.35978  1.0000
  C   C106      1.0  0.44931  0.53321  0.38658  1.0000
  C   C107      1.0  0.43867  0.54348  0.38588  1.0000
  C   C108      1.0  0.36925  0.55027  0.38756  1.0000
  C   C109      1.0  0.34886  0.54406  0.38568  1.0000
  C   C110      1.0  0.34053  0.54875  0.31197  1.0000
  H   H78       1.0  0.43679  0.65765  0.47243  1.0000
  H   H79       1.0  0.42602  0.53794  0.42345  1.0000
  H   H80       1.0  0.44386  0.52054  0.42377  1.0000
  H   H81       1.0  0.37511  0.54773  0.44403  1.0000
  H   H82       1.0  0.34027  0.53670  0.43983  1.0000
  C   C111      1.0  0.40269  0.57134  0.32565  1.0000
  C   C112      1.0  0.41358  0.56128  0.32758  1.0000
  C   C113      1.0  0.43456  0.57170  0.33626  1.0000
  C   C114      1.0  0.44437  0.59268  0.34490  1.0000
  C   C115      1.0  0.43374  0.60303  0.34667  1.0000
  C   C116      1.0  0.41296  0.59212  0.33573  1.0000
  H   H83       1.0  0.45943  0.60053  0.35371  1.0000
  H   H84       1.0  0.40510  0.59947  0.33514  1.0000
  H   H85       1.0  0.42607  0.62308  0.47048  1.0000
  N   N9        1.0  0.32185  0.54490  0.30869  1.0000
  N   N10       1.0  0.45899  0.68378  0.35997  1.0000
  C   C117      1.0  0.38185  0.82027  0.35748  1.0000
  C   C118      1.0  0.44449  0.82156  0.31583  1.0000
  C   C119      1.0  0.37373  0.80537  0.42420  1.0000
  C   C120      1.0  0.35337  0.79132  0.42538  1.0000
  C   C121      1.0  0.34051  0.79165  0.35977  1.0000
  C   C122      1.0  0.47260  0.91726  0.38663  1.0000
  C   C123      1.0  0.46234  0.89636  0.38594  1.0000
  C   C124      1.0  0.45561  0.82019  0.38744  1.0000
  C   C125      1.0  0.46184  0.80602  0.38559  1.0000
  C   C126      1.0  0.45710  0.79295  0.31205  1.0000
  H   H86       1.0  0.34817  0.78023  0.47224  1.0000
  H   H87       1.0  0.46788  0.88924  0.42348  1.0000
  H   H88       1.0  0.48528  0.92448  0.42380  1.0000
  H   H89       1.0  0.45817  0.82861  0.44387  1.0000
  H   H90       1.0  0.46920  0.80480  0.43977  1.0000
  C   C127      1.0  0.43451  0.83252  0.32563  1.0000
  C   C128      1.0  0.44455  0.85346  0.32764  1.0000
  C   C129      1.0  0.43412  0.86402  0.33626  1.0000
  C   C130      1.0  0.41314  0.85284  0.34480  1.0000
  C   C131      1.0  0.40281  0.83186  0.34665  1.0000
  C   C132      1.0  0.41373  0.82200  0.33569  1.0000
  H   H91       1.0  0.40529  0.86004  0.35375  1.0000
  H   H92       1.0  0.40638  0.80679  0.33508  1.0000
  H   H93       1.0  0.38276  0.80408  0.47026  1.0000
  N   N11       1.0  0.46092  0.77810  0.30884  1.0000
  N   N12       1.0  0.32203  0.77641  0.36006  1.0000
  C   C133      1.0  0.82119  0.44187  0.35929  1.0000
  C   C134      1.0  0.82298  0.38091  0.31303  1.0000
  C   C135      1.0  0.80603  0.43472  0.42482  1.0000
  C   C136      1.0  0.79192  0.44096  0.42607  1.0000
  C   C137      1.0  0.79245  0.45445  0.36165  1.0000
  C   C138      1.0  0.91883  0.44846  0.37846  1.0000
  C   C139      1.0  0.89793  0.43757  0.37782  1.0000
  C   C140      1.0  0.82181  0.36841  0.38425  1.0000
  C   C141      1.0  0.80763  0.34802  0.38275  1.0000
  C   C142      1.0  0.79435  0.33968  0.30990  1.0000
  H   H94       1.0  0.78065  0.43480  0.47201  1.0000
  H   H95       1.0  0.89104  0.42431  0.41110  1.0000
  H   H96       1.0  0.92638  0.44277  0.41162  1.0000
  H   H97       1.0  0.83032  0.37426  0.44044  1.0000
  H   H98       1.0  0.80654  0.33945  0.43679  1.0000
  C   C143      1.0  0.83383  0.40184  0.32346  1.0000
  C   C144      1.0  0.85477  0.41288  0.32490  1.0000
  C   C145      1.0  0.86524  0.43383  0.33542  1.0000
  C   C146      1.0  0.85388  0.44340  0.34630  1.0000
  C   C147      1.0  0.83290  0.43264  0.34786  1.0000
  C   C148      1.0  0.82318  0.41191  0.33532  1.0000
  H   H99       1.0  0.86092  0.45839  0.35677  1.0000
  H   H100      1.0  0.80797  0.40395  0.33476  1.0000
  H   H101      1.0  0.80459  0.42418  0.46999  1.0000
  N   N13       1.0  0.77945  0.32103  0.30726  1.0000
  N   N14       1.0  0.77717  0.45764  0.36163  1.0000
  C   C149      1.0  0.56404  0.38051  0.35922  1.0000
  C   C150      1.0  0.62500  0.44328  0.31318  1.0000
  C   C151      1.0  0.57120  0.37250  0.42474  1.0000
  C   C152      1.0  0.56495  0.35215  0.42600  1.0000
  C   C153      1.0  0.55144  0.33919  0.36162  1.0000
  C   C154      1.0  0.55744  0.47157  0.37837  1.0000
  C   C155      1.0  0.56832  0.46155  0.37785  1.0000
  C   C156      1.0  0.63750  0.45453  0.38458  1.0000
  C   C157      1.0  0.65789  0.46075  0.38297  1.0000
  C   C158      1.0  0.66622  0.45589  0.30983  1.0000
  H   H102      1.0  0.57110  0.34704  0.47192  1.0000
  H   H103      1.0  0.58157  0.46792  0.41117  1.0000
  H   H104      1.0  0.56310  0.48479  0.41162  1.0000
  H   H105      1.0  0.63164  0.45713  0.44090  1.0000
  H   H106      1.0  0.66645  0.46817  0.43707  1.0000
  C   C159      1.0  0.60407  0.43319  0.32360  1.0000
  C   C160      1.0  0.59303  0.44309  0.32496  1.0000
  C   C161      1.0  0.57207  0.43261  0.33545  1.0000
  C   C162      1.0  0.56251  0.41167  0.34632  1.0000
  C   C163      1.0  0.57327  0.40146  0.34789  1.0000
  C   C164      1.0  0.59400  0.41247  0.33539  1.0000
  H   H107      1.0  0.54752  0.40372  0.35671  1.0000
  H   H108      1.0  0.60197  0.40523  0.33480  1.0000
  H   H109      1.0  0.58174  0.38161  0.46989  1.0000
  N   N15       1.0  0.68490  0.45970  0.30706  1.0000
  N   N16       1.0  0.54824  0.32072  0.36162  1.0000
  C   C165      1.0  0.62532  0.18469  0.35915  1.0000
  C   C166      1.0  0.56255  0.18288  0.31340  1.0000
  C   C167      1.0  0.63333  0.19982  0.42483  1.0000
  C   C168      1.0  0.65368  0.21395  0.42594  1.0000
  C   C169      1.0  0.66664  0.21343  0.36148  1.0000
  C   C170      1.0  0.53428  0.08703  0.37838  1.0000
  C   C171      1.0  0.54429  0.10793  0.37781  1.0000
  C   C172      1.0  0.55132  0.18415  0.38482  1.0000
  C   C173      1.0  0.54510  0.19832  0.38316  1.0000
  C   C174      1.0  0.54993  0.21149  0.30996  1.0000
  H   H110      1.0  0.65879  0.22520  0.47198  1.0000
  H   H111      1.0  0.53793  0.11481  0.41123  1.0000
  H   H112      1.0  0.52106  0.07948  0.41168  1.0000
  H   H113      1.0  0.54870  0.17567  0.44106  1.0000
  H   H114      1.0  0.53765  0.19945  0.43719  1.0000
  C   C175      1.0  0.57264  0.17203  0.32366  1.0000
  C   C176      1.0  0.56275  0.15110  0.32496  1.0000
  C   C177      1.0  0.57323  0.14062  0.33543  1.0000
  C   C178      1.0  0.59416  0.15200  0.34626  1.0000
  C   C179      1.0  0.60438  0.17298  0.34786  1.0000
  C   C180      1.0  0.59337  0.18269  0.33546  1.0000
  H   H115      1.0  0.60212  0.14496  0.35660  1.0000
  H   H116      1.0  0.60061  0.19790  0.33493  1.0000
  H   H117      1.0  0.62424  0.20125  0.47000  1.0000
  N   N17       1.0  0.54613  0.22636  0.30715  1.0000
  N   N18       1.0  0.68510  0.22872  0.36142  1.0000
  C   C181      1.0  0.02405  0.51558  0.35959  1.0000
  C   C182      1.0  0.01158  0.50880  0.43608  1.0000
  C   C183      1.0  0.99106  0.49510  0.42755  1.0000
  O   O19       1.0  0.01926  0.51470  0.51991  1.0000
  O   O20       1.0  0.97982  0.48833  0.50324  1.0000
  H   H118      1.0  0.01747  0.52599  0.53525  1.0000
  H   H119      1.0  0.97474  0.49742  0.51482  1.0000
  C   C184      1.0  0.04400  0.52976  0.36947  1.0000
  H   H120      1.0  0.04731  0.54161  0.40652  1.0000
  C   C185      1.0  0.49029  0.50964  0.35952  1.0000
  C   C186      1.0  0.49709  0.50396  0.43602  1.0000
  C   C187      1.0  0.51079  0.49715  0.42749  1.0000
  O   O21       1.0  0.49120  0.50575  0.51986  1.0000
  O   O22       1.0  0.51758  0.49270  0.50318  1.0000
  H   H121      1.0  0.47991  0.49267  0.53527  1.0000
  H   H122      1.0  0.50851  0.47853  0.51481  1.0000
  C   C188      1.0  0.47610  0.51539  0.36941  1.0000
  H   H123      1.0  0.46427  0.50687  0.40661  1.0000
  C   C189      1.0  0.49618  0.98181  0.35950  1.0000
  C   C190      1.0  0.50187  0.99429  0.43599  1.0000
  C   C191      1.0  0.50869  0.01481  0.42744  1.0000
  O   O23       1.0  0.50008  0.98661  0.51983  1.0000
  O   O24       1.0  0.51314  0.02604  0.50313  1.0000
  H   H124      1.0  0.51316  0.98841  0.53523  1.0000
  H   H125      1.0  0.52731  0.03114  0.51476  1.0000
  C   C192      1.0  0.49043  0.96187  0.36938  1.0000
  H   H126      1.0  0.49895  0.95856  0.40656  1.0000
  C   C193      1.0  0.29128  0.54190  0.35332  1.0000
  C   C194      1.0  0.27769  0.53690  0.42551  1.0000
  C   C195      1.0  0.25873  0.53479  0.41243  1.0000
  O   O25       1.0  0.24607  0.52953  0.48348  1.0000
  H   H127      1.0  0.24979  0.54183  0.51664  1.0000
  O   O26       1.0  0.28236  0.53357  0.50939  1.0000
  H   H128      1.0  0.28767  0.54620  0.54194  1.0000
  C   C196      1.0  0.31044  0.54530  0.37003  1.0000
  H   H129      1.0  0.31596  0.54928  0.43150  1.0000
  C   C197      1.0  0.46407  0.75061  0.35346  1.0000
  C   C198      1.0  0.46900  0.74195  0.42561  1.0000
  C   C199      1.0  0.47104  0.72506  0.41244  1.0000
  O   O27       1.0  0.47624  0.71760  0.48345  1.0000
  H   H130      1.0  0.46393  0.70905  0.51655  1.0000
  O   O28       1.0  0.47234  0.74992  0.50955  1.0000
  H   H131      1.0  0.45969  0.74264  0.54200  1.0000
  C   C200      1.0  0.46076  0.76643  0.37029  1.0000
  H   H132      1.0  0.45698  0.76810  0.43198  1.0000
  C   C201      1.0  0.25529  0.71461  0.35336  1.0000
  C   C202      1.0  0.26388  0.72822  0.42551  1.0000
  C   C203      1.0  0.28075  0.74716  0.41239  1.0000
  O   O29       1.0  0.28816  0.75983  0.48339  1.0000
  H   H133      1.0  0.29672  0.75611  0.51660  1.0000
  O   O30       1.0  0.25588  0.72356  0.50939  1.0000
  H   H134      1.0  0.26319  0.71824  0.54196  1.0000
  C   C204      1.0  0.23950  0.69547  0.37012  1.0000
  H   H135      1.0  0.23789  0.68998  0.43171  1.0000
  C   C205      1.0  0.71542  0.46271  0.35287  1.0000
  C   C206      1.0  0.72889  0.46765  0.42551  1.0000
  C   C207      1.0  0.74785  0.46970  0.41312  1.0000
  O   O31       1.0  0.76040  0.47490  0.48457  1.0000
  H   H136      1.0  0.75662  0.46258  0.51763  1.0000
  O   O32       1.0  0.72411  0.47097  0.50920  1.0000
  H   H137      1.0  0.71871  0.45832  0.54166  1.0000
  C   C208      1.0  0.69626  0.45939  0.36889  1.0000
  H   H138      1.0  0.69069  0.45552  0.43034  1.0000
  C   C209      1.0  0.54313  0.25388  0.35289  1.0000
  C   C210      1.0  0.53820  0.26242  0.42553  1.0000
  C   C211      1.0  0.53615  0.27932  0.41312  1.0000
  O   O33       1.0  0.53095  0.28668  0.48455  1.0000
  H   H139      1.0  0.54326  0.29521  0.51763  1.0000
  O   O34       1.0  0.53486  0.25431  0.50920  1.0000
  H   H140      1.0  0.54751  0.26156  0.54171  1.0000
  C   C212      1.0  0.54646  0.23805  0.36895  1.0000
  H   H141      1.0  0.55035  0.23636  0.43039  1.0000
  C   C213      1.0  0.75209  0.29037  0.35306  1.0000
  C   C214      1.0  0.74343  0.27690  0.42566  1.0000
  C   C215      1.0  0.72647  0.25799  0.41314  1.0000
  O   O35       1.0  0.71903  0.24545  0.48456  1.0000
  H   H142      1.0  0.71053  0.24929  0.51750  1.0000
  O   O36       1.0  0.75148  0.28162  0.50947  1.0000
  H   H143      1.0  0.74429  0.28712  0.54171  1.0000
  C   C216      1.0  0.76802  0.30948  0.36926  1.0000
  H   H144      1.0  0.76998  0.31490  0.43111  1.0000
