data_image0
_chemical_formula_structural       CHNC3NCHCNCHC2HCNCNCNC18H12CNCNCNC18H12NC3H3NC3H3NH2
_chemical_formula_sum              "C57 H36 N12"
_cell_length_a       29.3357
_cell_length_b       29.3357
_cell_length_c       14.9438
_cell_angle_alpha    90
_cell_angle_beta     90
_cell_angle_gamma    120

_space_group_name_H-M_alt    "P 1"
_space_group_IT_number       1

loop_
  _space_group_symop_operation_xyz
  'x, y, z'

loop_
  _atom_site_type_symbol
  _atom_site_label
  _atom_site_symmetry_multiplicity
  _atom_site_fract_x
  _atom_site_fract_y
  _atom_site_fract_z
  _atom_site_occupancy
  C   C1        1.0  0.02809  0.51451  0.42095  1.0000
  H   H1        1.0  0.02269  0.51182  0.56337  1.0000
  N   N1        1.0  0.03085  0.51590  0.26130  1.0000
  C   C2        1.0  0.05750  0.52922  0.34023  1.0000
  C   C3        1.0  0.05249  0.52672  0.51073  1.0000
  C   C4        1.0  0.53021  0.47449  0.33580  1.0000
  N   N2        1.0  0.48880  0.51590  0.26131  1.0000
  C   C5        1.0  0.51546  0.48924  0.25599  1.0000
  H   H2        1.0  0.52439  0.48031  0.19470  1.0000
  C   C6        1.0  0.53021  0.05666  0.33580  1.0000
  N   N3        1.0  0.48880  0.97385  0.26131  1.0000
  C   C7        1.0  0.51546  0.02715  0.25599  1.0000
  H   H3        1.0  0.52439  0.04501  0.19470  1.0000
  C   C8        1.0  0.94804  0.47449  0.33580  1.0000
  C   C9        1.0  0.97754  0.48924  0.25599  1.0000
  H   H4        1.0  0.95968  0.48031  0.19471  1.0000
  C   C10       1.0  0.36334  0.72292  0.33418  1.0000
  N   N4        1.0  0.38884  0.69489  0.33423  1.0000
  C   C11       1.0  0.36334  0.64136  0.33418  1.0000
  N   N5        1.0  0.30981  0.61586  0.33423  1.0000
  C   C12       1.0  0.28179  0.64136  0.33418  1.0000
  N   N6        1.0  0.30981  0.69489  0.33423  1.0000
  C   C13       1.0  0.39145  0.61325  0.33470  1.0000
  C   C14       1.0  0.44728  0.64009  0.33519  1.0000
  C   C15       1.0  0.47506  0.61248  0.33646  1.0000
  C   C16       1.0  0.44772  0.55698  0.33735  1.0000
  C   C17       1.0  0.39223  0.52964  0.33646  1.0000
  C   C18       1.0  0.36461  0.55742  0.33519  1.0000
  C   C19       1.0  0.39145  0.77915  0.33469  1.0000
  C   C20       1.0  0.44728  0.80813  0.33518  1.0000
  C   C21       1.0  0.47506  0.86353  0.33645  1.0000
  C   C22       1.0  0.44772  0.89168  0.33734  1.0000
  C   C23       1.0  0.39223  0.86353  0.33646  1.0000
  C   C24       1.0  0.36461  0.80813  0.33519  1.0000
  C   C25       1.0  0.22555  0.61325  0.33469  1.0000
  C   C26       1.0  0.19657  0.64009  0.33518  1.0000
  C   C27       1.0  0.14118  0.61248  0.33645  1.0000
  C   C28       1.0  0.11302  0.55698  0.33734  1.0000
  C   C29       1.0  0.14118  0.52964  0.33645  1.0000
  C   C30       1.0  0.19657  0.55742  0.33518  1.0000
  H   H5        1.0  0.51536  0.88311  0.33730  1.0000
  H   H6        1.0  0.46865  0.78926  0.33497  1.0000
  H   H7        1.0  0.37152  0.88311  0.33730  1.0000
  H   H8        1.0  0.32437  0.78926  0.33497  1.0000
  H   H9        1.0  0.21544  0.68033  0.33496  1.0000
  H   H10       1.0  0.12159  0.63318  0.33729  1.0000
  H   H11       1.0  0.21544  0.53605  0.33497  1.0000
  H   H12       1.0  0.12159  0.48934  0.33730  1.0000
  H   H13       1.0  0.32437  0.53605  0.33497  1.0000
  H   H14       1.0  0.37152  0.48934  0.33730  1.0000
  H   H15       1.0  0.51536  0.63318  0.33730  1.0000
  H   H16       1.0  0.46865  0.68033  0.33496  1.0000
  C   C31       1.0  0.64230  0.28085  0.33764  1.0000
  N   N7        1.0  0.61681  0.30887  0.33761  1.0000
  C   C32       1.0  0.64230  0.36240  0.33764  1.0000
  N   N8        1.0  0.69583  0.38789  0.33761  1.0000
  C   C33       1.0  0.72386  0.36240  0.33764  1.0000
  N   N9        1.0  0.69583  0.30887  0.33761  1.0000
  C   C34       1.0  0.61419  0.39051  0.33734  1.0000
  C   C35       1.0  0.55836  0.36367  0.33713  1.0000
  C   C36       1.0  0.53058  0.39129  0.33657  1.0000
  C   C37       1.0  0.55792  0.44678  0.33604  1.0000
  C   C38       1.0  0.61342  0.47412  0.33657  1.0000
  C   C39       1.0  0.64103  0.44634  0.33713  1.0000
  C   C40       1.0  0.61419  0.22462  0.33734  1.0000
  C   C41       1.0  0.55836  0.19563  0.33713  1.0000
  C   C42       1.0  0.53058  0.14023  0.33657  1.0000
  C   C43       1.0  0.55792  0.11208  0.33604  1.0000
  C   C44       1.0  0.61342  0.14023  0.33657  1.0000
  C   C45       1.0  0.64104  0.19563  0.33713  1.0000
  C   C46       1.0  0.78008  0.39051  0.33734  1.0000
  C   C47       1.0  0.80907  0.36367  0.33713  1.0000
  C   C48       1.0  0.86447  0.39129  0.33658  1.0000
  C   C49       1.0  0.89262  0.44678  0.33604  1.0000
  C   C50       1.0  0.86447  0.47412  0.33658  1.0000
  C   C51       1.0  0.80907  0.44634  0.33713  1.0000
  H   H17       1.0  0.49028  0.12064  0.33646  1.0000
  H   H18       1.0  0.53699  0.21450  0.33735  1.0000
  H   H19       1.0  0.63413  0.12064  0.33645  1.0000
  H   H20       1.0  0.68127  0.21450  0.33735  1.0000
  H   H21       1.0  0.79020  0.32343  0.33735  1.0000
  H   H22       1.0  0.88406  0.37057  0.33646  1.0000
  H   H23       1.0  0.79020  0.46771  0.33735  1.0000
  H   H24       1.0  0.88406  0.51443  0.33646  1.0000
  H   H25       1.0  0.68127  0.46771  0.33735  1.0000
  H   H26       1.0  0.63413  0.51443  0.33646  1.0000
  H   H27       1.0  0.49028  0.37057  0.33645  1.0000
  H   H28       1.0  0.53699  0.32343  0.33734  1.0000
  N   N10       1.0  0.51692  0.48779  0.41465  1.0000
  C   C52       1.0  0.49019  0.51451  0.42096  1.0000
  C   C53       1.0  0.47548  0.52922  0.34024  1.0000
  C   C54       1.0  0.47799  0.52671  0.51074  1.0000
  H   H29       1.0  0.49289  0.51181  0.56338  1.0000
  H   H30       1.0  0.43547  0.50863  0.51888  1.0000
  H   H31       1.0  0.49607  0.56923  0.51888  1.0000
  N   N11       1.0  0.51692  0.03007  0.41465  1.0000
  C   C55       1.0  0.49019  0.97662  0.42096  1.0000
  C   C56       1.0  0.47548  0.94720  0.34023  1.0000
  C   C57       1.0  0.47799  0.95221  0.51074  1.0000
  H   H32       1.0  0.49289  0.98202  0.56337  1.0000
  H   H33       1.0  0.49607  0.92778  0.51888  1.0000
  H   H34       1.0  0.43547  0.92778  0.51888  1.0000
  N   N12       1.0  0.97463  0.48779  0.41465  1.0000
  H   H35       1.0  0.07692  0.56923  0.51887  1.0000
  H   H36       1.0  0.07692  0.50863  0.51887  1.0000
