data_image0
_chemical_formula_structural       C2HCNHCNHC4H2C2NCHC2NCHC2HCNHCNHC4H2C2NCHC2NCHC2HC2HC3NHCNHC3HC4HC5H2C2NCHC2NCHC2HC2HC3NHCNHC3HC4HC5H2C2NCHC2NCHC2H2CH2C3H2C2H2CH2C3H2C2HCNHCNHC4H2C2NCHC2NCHC2HCNHCNHC4H2C2NCHC2NCHC2HC2H2CNHCNHC4H3CHC3H2C2NCHC2NCHC2HC2H2CNHCNHC4H3CHC3H2C2NCHC2NCHC2HC2HC4HCNHCNHCNHCNHC4H2C4HC3HC4H2C3NCHC2NCHC2NCHC2NCHC2HC2HC4HCNHCNHCNHCNHC4H2C4HC3HC4H2C3NCHC2NCHC2NCHC2NCH
_chemical_formula_sum              "C240 H120 N48"
_cell_length_a       46.4571
_cell_length_b       46.4571
_cell_length_c       14.7927
_cell_angle_alpha    90
_cell_angle_beta     90
_cell_angle_gamma    120

_space_group_name_H-M_alt    "P 1"
_space_group_IT_number       1

loop_
  _space_group_symop_operation_xyz
  'x, y, z'

loop_
  _atom_site_type_symbol
  _atom_site_label
  _atom_site_symmetry_multiplicity
  _atom_site_fract_x
  _atom_site_fract_y
  _atom_site_fract_z
  _atom_site_occupancy
  C   C1        1.0  0.04781  0.30162  0.34619  1.0000
  C   C2        1.0  0.08296  0.31957  0.34655  1.0000
  H   H1        1.0  0.03677  0.31576  0.34492  1.0000
  C   C3        1.0  0.14672  0.25113  0.26558  1.0000
  N   N1        1.0  0.11833  0.25272  0.27039  1.0000
  H   H2        1.0  0.15825  0.25485  0.20430  1.0000
  C   C4        1.0  0.11833  0.37079  0.26559  1.0000
  N   N2        1.0  0.14831  0.39916  0.27036  1.0000
  H   H3        1.0  0.11049  0.35926  0.20431  1.0000
  C   C5        1.0  0.02852  0.26600  0.34733  1.0000
  C   C6        1.0  0.10011  0.30179  0.34749  1.0000
  C   C7        1.0  0.08296  0.26686  0.34827  1.0000
  C   C8        1.0  0.04781  0.24967  0.34851  1.0000
  H   H4        1.0  0.12565  0.31456  0.34756  1.0000
  H   H5        1.0  0.03676  0.22449  0.34976  1.0000
  C   C9        1.0  0.10206  0.25094  0.34857  1.0000
  C   C10       1.0  0.11831  0.25098  0.42940  1.0000
  N   N3        1.0  0.14830  0.25262  0.42449  1.0000
  C   C11       1.0  0.16292  0.25097  0.34638  1.0000
  H   H6        1.0  0.11051  0.25468  0.49073  1.0000
  C   C12       1.0  0.16293  0.41548  0.34840  1.0000
  C   C13       1.0  0.14674  0.39918  0.42924  1.0000
  N   N4        1.0  0.11839  0.36919  0.42447  1.0000
  C   C14       1.0  0.10205  0.35458  0.34644  1.0000
  H   H7        1.0  0.15826  0.40697  0.49055  1.0000
  C   C15       1.0  0.04781  0.80162  0.34619  1.0000
  C   C16       1.0  0.08296  0.81957  0.34655  1.0000
  H   H8        1.0  0.03677  0.81576  0.34492  1.0000
  C   C17       1.0  0.14672  0.75113  0.26558  1.0000
  N   N5        1.0  0.11833  0.75271  0.27039  1.0000
  H   H9        1.0  0.15825  0.75485  0.20430  1.0000
  C   C18       1.0  0.11833  0.87079  0.26559  1.0000
  N   N6        1.0  0.14831  0.89916  0.27036  1.0000
  H   H10       1.0  0.11049  0.85926  0.20431  1.0000
  C   C19       1.0  0.02852  0.76600  0.34733  1.0000
  C   C20       1.0  0.10011  0.80179  0.34749  1.0000
  C   C21       1.0  0.08296  0.76686  0.34827  1.0000
  C   C22       1.0  0.04781  0.74967  0.34851  1.0000
  H   H11       1.0  0.12565  0.81456  0.34756  1.0000
  H   H12       1.0  0.03676  0.72449  0.34976  1.0000
  C   C23       1.0  0.10206  0.75094  0.34857  1.0000
  C   C24       1.0  0.11831  0.75098  0.42940  1.0000
  N   N7        1.0  0.14830  0.75262  0.42449  1.0000
  C   C25       1.0  0.16292  0.75097  0.34638  1.0000
  H   H13       1.0  0.11051  0.75468  0.49073  1.0000
  C   C26       1.0  0.16293  0.91548  0.34840  1.0000
  C   C27       1.0  0.14674  0.89918  0.42924  1.0000
  N   N8        1.0  0.11838  0.86919  0.42447  1.0000
  C   C28       1.0  0.10205  0.85458  0.34644  1.0000
  H   H14       1.0  0.15826  0.90697  0.49055  1.0000
  C   C29       1.0  0.21588  0.24966  0.34621  1.0000
  C   C30       1.0  0.19793  0.26686  0.34652  1.0000
  H   H15       1.0  0.20174  0.22448  0.34491  1.0000
  C   C31       1.0  0.27040  0.07948  0.34643  1.0000
  C   C32       1.0  0.25320  0.04434  0.34625  1.0000
  H   H16       1.0  0.22802  0.03329  0.34498  1.0000
  C   C33       1.0  0.26784  0.46974  0.34629  1.0000
  C   C34       1.0  0.25065  0.43459  0.34647  1.0000
  C   C35       1.0  0.26648  0.39913  0.26555  1.0000
  N   N9        1.0  0.26487  0.36916  0.27056  1.0000
  H   H17       1.0  0.26277  0.40690  0.20420  1.0000
  C   C36       1.0  0.25457  0.11496  0.26550  1.0000
  N   N10       1.0  0.25615  0.14492  0.27038  1.0000
  H   H18       1.0  0.25826  0.10716  0.20416  1.0000
  C   C37       1.0  0.26954  0.24798  0.34735  1.0000
  C   C38       1.0  0.25320  0.21237  0.34857  1.0000
  C   C39       1.0  0.27039  0.19442  0.34835  1.0000
  H   H19       1.0  0.22802  0.19823  0.34987  1.0000
  C   C40       1.0  0.25150  0.26599  0.34735  1.0000
  C   C41       1.0  0.21572  0.30178  0.34749  1.0000
  C   C42       1.0  0.25065  0.31955  0.34832  1.0000
  C   C43       1.0  0.26784  0.30160  0.34854  1.0000
  H   H20       1.0  0.20296  0.31457  0.34755  1.0000
  C   C44       1.0  0.26954  0.02506  0.34750  1.0000
  C   C45       1.0  0.25151  0.48902  0.34750  1.0000
  C   C46       1.0  0.21572  0.41744  0.34725  1.0000
  C   C47       1.0  0.19794  0.43458  0.34825  1.0000
  C   C48       1.0  0.21589  0.46973  0.34866  1.0000
  H   H21       1.0  0.20295  0.39190  0.34715  1.0000
  H   H22       1.0  0.20174  0.48077  0.34999  1.0000
  C   C49       1.0  0.26657  0.35454  0.34864  1.0000
  C   C50       1.0  0.26648  0.37085  0.42925  1.0000
  N   N11       1.0  0.26485  0.39920  0.42424  1.0000
  C   C51       1.0  0.26657  0.41553  0.34617  1.0000
  H   H23       1.0  0.26272  0.35937  0.49064  1.0000
  C   C52       1.0  0.25444  0.15940  0.34863  1.0000
  C   C53       1.0  0.25454  0.14320  0.42939  1.0000
  N   N12       1.0  0.25620  0.11487  0.42427  1.0000
  C   C54       1.0  0.25449  0.09856  0.34614  1.0000
  H   H24       1.0  0.25830  0.15469  0.49074  1.0000
  C   C55       1.0  0.21588  0.74966  0.34621  1.0000
  C   C56       1.0  0.19793  0.76686  0.34652  1.0000
  H   H25       1.0  0.20174  0.72448  0.34491  1.0000
  C   C57       1.0  0.27040  0.57948  0.34643  1.0000
  C   C58       1.0  0.25320  0.54434  0.34625  1.0000
  H   H26       1.0  0.22802  0.53329  0.34498  1.0000
  C   C59       1.0  0.26784  0.96974  0.34629  1.0000
  C   C60       1.0  0.25065  0.93460  0.34647  1.0000
  C   C61       1.0  0.26648  0.89913  0.26555  1.0000
  N   N13       1.0  0.26487  0.86916  0.27056  1.0000
  H   H27       1.0  0.26277  0.90690  0.20420  1.0000
  C   C62       1.0  0.25457  0.61495  0.26550  1.0000
  N   N14       1.0  0.25615  0.64492  0.27038  1.0000
  H   H28       1.0  0.25826  0.60716  0.20416  1.0000
  C   C63       1.0  0.26954  0.74798  0.34735  1.0000
  C   C64       1.0  0.25320  0.71237  0.34857  1.0000
  C   C65       1.0  0.27039  0.69442  0.34835  1.0000
  H   H29       1.0  0.22802  0.69823  0.34987  1.0000
  C   C66       1.0  0.25150  0.76599  0.34735  1.0000
  C   C67       1.0  0.21572  0.80178  0.34749  1.0000
  C   C68       1.0  0.25065  0.81955  0.34832  1.0000
  C   C69       1.0  0.26784  0.80160  0.34854  1.0000
  H   H30       1.0  0.20296  0.81457  0.34755  1.0000
  C   C70       1.0  0.26954  0.52506  0.34750  1.0000
  C   C71       1.0  0.25151  0.98901  0.34750  1.0000
  C   C72       1.0  0.21572  0.91744  0.34725  1.0000
  C   C73       1.0  0.19794  0.93458  0.34825  1.0000
  C   C74       1.0  0.21588  0.96973  0.34866  1.0000
  H   H31       1.0  0.20295  0.89190  0.34715  1.0000
  H   H32       1.0  0.20174  0.98077  0.34999  1.0000
  C   C75       1.0  0.26657  0.85454  0.34864  1.0000
  C   C76       1.0  0.26648  0.87085  0.42925  1.0000
  N   N15       1.0  0.26485  0.89920  0.42424  1.0000
  C   C77       1.0  0.26657  0.91553  0.34617  1.0000
  H   H33       1.0  0.26272  0.85937  0.49064  1.0000
  C   C78       1.0  0.25444  0.65941  0.34863  1.0000
  C   C79       1.0  0.25454  0.64320  0.42939  1.0000
  N   N16       1.0  0.25620  0.61486  0.42427  1.0000
  C   C80       1.0  0.25449  0.59856  0.34614  1.0000
  H   H34       1.0  0.25830  0.65469  0.49074  1.0000
  C   C81       1.0  0.32312  0.24711  0.34653  1.0000
  C   C82       1.0  0.30517  0.26431  0.34617  1.0000
  H   H35       1.0  0.31931  0.28949  0.34481  1.0000
  H   H36       1.0  0.29303  0.48078  0.34501  1.0000
  C   C83       1.0  0.30532  0.21218  0.34748  1.0000
  H   H37       1.0  0.31808  0.19940  0.34752  1.0000
  H   H38       1.0  0.29303  0.31574  0.34984  1.0000
  C   C84       1.0  0.30516  0.04434  0.34870  1.0000
  C   C85       1.0  0.32311  0.07949  0.34822  1.0000
  C   C86       1.0  0.30533  0.09663  0.34723  1.0000
  H   H39       1.0  0.31930  0.03330  0.35011  1.0000
  H   H40       1.0  0.31810  0.12217  0.34716  1.0000
  C   C87       1.0  0.32312  0.74711  0.34653  1.0000
  C   C88       1.0  0.30516  0.76431  0.34617  1.0000
  H   H41       1.0  0.31931  0.78949  0.34481  1.0000
  H   H42       1.0  0.29303  0.98078  0.34501  1.0000
  C   C89       1.0  0.30532  0.71218  0.34748  1.0000
  H   H43       1.0  0.31808  0.69940  0.34752  1.0000
  H   H44       1.0  0.29303  0.81574  0.34984  1.0000
  C   C90       1.0  0.30516  0.54434  0.34870  1.0000
  C   C91       1.0  0.32311  0.57949  0.34822  1.0000
  C   C92       1.0  0.30533  0.59663  0.34723  1.0000
  H   H45       1.0  0.31929  0.53330  0.35011  1.0000
  H   H46       1.0  0.31810  0.62217  0.34716  1.0000
  C   C93       1.0  0.43804  0.19443  0.34656  1.0000
  C   C94       1.0  0.47319  0.21237  0.34623  1.0000
  H   H47       1.0  0.48423  0.19823  0.34496  1.0000
  C   C95       1.0  0.37435  0.26295  0.26544  1.0000
  N   N17       1.0  0.40273  0.26136  0.27036  1.0000
  H   H48       1.0  0.36284  0.25927  0.20414  1.0000
  C   C96       1.0  0.40259  0.14323  0.26558  1.0000
  N   N18       1.0  0.37262  0.11485  0.27036  1.0000
  H   H49       1.0  0.41041  0.15478  0.20432  1.0000
  C   C97       1.0  0.49248  0.24799  0.34734  1.0000
  C   C98       1.0  0.47319  0.26433  0.34849  1.0000
  C   C99       1.0  0.43804  0.24714  0.34829  1.0000
  C   C100      1.0  0.42089  0.21221  0.34752  1.0000
  H   H50       1.0  0.48424  0.28951  0.34971  1.0000
  H   H51       1.0  0.39535  0.19944  0.34759  1.0000
  C   C101      1.0  0.41893  0.26305  0.34862  1.0000
  C   C102      1.0  0.40262  0.26292  0.42942  1.0000
  N   N19       1.0  0.37263  0.26129  0.42449  1.0000
  C   C103      1.0  0.35813  0.26302  0.34625  1.0000
  H   H52       1.0  0.41038  0.25917  0.49074  1.0000
  C   C104      1.0  0.35813  0.09857  0.34853  1.0000
  C   C105      1.0  0.37433  0.11479  0.42939  1.0000
  N   N20       1.0  0.40268  0.14479  0.42451  1.0000
  C   C106      1.0  0.41894  0.15942  0.34641  1.0000
  H   H53       1.0  0.36283  0.10698  0.49070  1.0000
  C   C107      1.0  0.43804  0.69443  0.34656  1.0000
  C   C108      1.0  0.47318  0.71237  0.34623  1.0000
  H   H54       1.0  0.48423  0.69823  0.34496  1.0000
  C   C109      1.0  0.37435  0.76295  0.26544  1.0000
  N   N21       1.0  0.40273  0.76136  0.27036  1.0000
  H   H55       1.0  0.36284  0.75927  0.20414  1.0000
  C   C110      1.0  0.40259  0.64323  0.26558  1.0000
  N   N22       1.0  0.37262  0.61486  0.27036  1.0000
  H   H56       1.0  0.41041  0.65478  0.20432  1.0000
  C   C111      1.0  0.49248  0.74799  0.34734  1.0000
  C   C112      1.0  0.47319  0.76433  0.34849  1.0000
  C   C113      1.0  0.43804  0.74713  0.34829  1.0000
  C   C114      1.0  0.42089  0.71221  0.34752  1.0000
  H   H57       1.0  0.48423  0.78951  0.34971  1.0000
  H   H58       1.0  0.39535  0.69944  0.34759  1.0000
  C   C115      1.0  0.41893  0.76305  0.34862  1.0000
  C   C116      1.0  0.40262  0.76292  0.42942  1.0000
  N   N23       1.0  0.37263  0.76129  0.42449  1.0000
  C   C117      1.0  0.35813  0.76302  0.34625  1.0000
  H   H59       1.0  0.41038  0.75917  0.49074  1.0000
  C   C118      1.0  0.35812  0.59857  0.34853  1.0000
  C   C119      1.0  0.37433  0.61479  0.42939  1.0000
  N   N24       1.0  0.40267  0.64479  0.42451  1.0000
  C   C120      1.0  0.41894  0.65942  0.34641  1.0000
  H   H60       1.0  0.36283  0.60698  0.49070  1.0000
  C   C121      1.0  0.54781  0.30162  0.34619  1.0000
  C   C122      1.0  0.58296  0.31957  0.34655  1.0000
  H   H61       1.0  0.53677  0.31576  0.34492  1.0000
  C   C123      1.0  0.71588  0.24966  0.34621  1.0000
  C   C124      1.0  0.69793  0.26686  0.34652  1.0000
  H   H62       1.0  0.70174  0.22448  0.34491  1.0000
  H   H63       1.0  0.72802  0.03329  0.34498  1.0000
  C   C125      1.0  0.64672  0.25113  0.26558  1.0000
  N   N25       1.0  0.61834  0.25272  0.27039  1.0000
  H   H64       1.0  0.65825  0.25485  0.20430  1.0000
  C   C126      1.0  0.61833  0.37079  0.26559  1.0000
  N   N26       1.0  0.64831  0.39916  0.27036  1.0000
  H   H65       1.0  0.61049  0.35926  0.20431  1.0000
  C   C127      1.0  0.52852  0.26600  0.34733  1.0000
  C   C128      1.0  0.60011  0.30179  0.34749  1.0000
  C   C129      1.0  0.58296  0.26686  0.34827  1.0000
  C   C130      1.0  0.54781  0.24967  0.34851  1.0000
  H   H66       1.0  0.62565  0.31456  0.34756  1.0000
  H   H67       1.0  0.53676  0.22449  0.34976  1.0000
  H   H68       1.0  0.72802  0.19823  0.34987  1.0000
  C   C131      1.0  0.71572  0.30178  0.34749  1.0000
  H   H69       1.0  0.70296  0.31457  0.34755  1.0000
  C   C132      1.0  0.71572  0.41744  0.34725  1.0000
  C   C133      1.0  0.69794  0.43458  0.34825  1.0000
  C   C134      1.0  0.71589  0.46973  0.34866  1.0000
  H   H70       1.0  0.70295  0.39190  0.34715  1.0000
  H   H71       1.0  0.70174  0.48077  0.34999  1.0000
  C   C135      1.0  0.60206  0.25094  0.34857  1.0000
  C   C136      1.0  0.61831  0.25098  0.42940  1.0000
  N   N27       1.0  0.64830  0.25262  0.42449  1.0000
  C   C137      1.0  0.66292  0.25097  0.34638  1.0000
  H   H72       1.0  0.61051  0.25468  0.49073  1.0000
  C   C138      1.0  0.66293  0.41548  0.34840  1.0000
  C   C139      1.0  0.64674  0.39918  0.42924  1.0000
  N   N28       1.0  0.61838  0.36919  0.42447  1.0000
  C   C140      1.0  0.60205  0.35458  0.34644  1.0000
  H   H73       1.0  0.65826  0.40697  0.49055  1.0000
  C   C141      1.0  0.54781  0.80162  0.34619  1.0000
  C   C142      1.0  0.58296  0.81957  0.34655  1.0000
  H   H74       1.0  0.53677  0.81576  0.34492  1.0000
  C   C143      1.0  0.71588  0.74966  0.34621  1.0000
  C   C144      1.0  0.69793  0.76686  0.34652  1.0000
  H   H75       1.0  0.70174  0.72448  0.34491  1.0000
  H   H76       1.0  0.72802  0.53329  0.34498  1.0000
  C   C145      1.0  0.64671  0.75113  0.26558  1.0000
  N   N29       1.0  0.61833  0.75271  0.27039  1.0000
  H   H77       1.0  0.65825  0.75485  0.20430  1.0000
  C   C146      1.0  0.61833  0.87079  0.26559  1.0000
  N   N30       1.0  0.64831  0.89916  0.27036  1.0000
  H   H78       1.0  0.61048  0.85926  0.20431  1.0000
  C   C147      1.0  0.52852  0.76600  0.34733  1.0000
  C   C148      1.0  0.60010  0.80179  0.34749  1.0000
  C   C149      1.0  0.58296  0.76686  0.34827  1.0000
  C   C150      1.0  0.54781  0.74967  0.34851  1.0000
  H   H79       1.0  0.62565  0.81456  0.34756  1.0000
  H   H80       1.0  0.53676  0.72449  0.34976  1.0000
  H   H81       1.0  0.72802  0.69823  0.34987  1.0000
  C   C151      1.0  0.71572  0.80178  0.34749  1.0000
  H   H82       1.0  0.70296  0.81457  0.34755  1.0000
  C   C152      1.0  0.71572  0.91744  0.34725  1.0000
  C   C153      1.0  0.69793  0.93458  0.34825  1.0000
  C   C154      1.0  0.71588  0.96973  0.34866  1.0000
  H   H83       1.0  0.70295  0.89190  0.34715  1.0000
  H   H84       1.0  0.70174  0.98077  0.34999  1.0000
  C   C155      1.0  0.60206  0.75094  0.34857  1.0000
  C   C156      1.0  0.61831  0.75098  0.42940  1.0000
  N   N31       1.0  0.64830  0.75262  0.42449  1.0000
  C   C157      1.0  0.66292  0.75097  0.34638  1.0000
  H   H85       1.0  0.61051  0.75468  0.49073  1.0000
  C   C158      1.0  0.66293  0.91548  0.34840  1.0000
  C   C159      1.0  0.64674  0.89918  0.42924  1.0000
  N   N32       1.0  0.61838  0.86919  0.42447  1.0000
  C   C160      1.0  0.60205  0.85458  0.34644  1.0000
  H   H86       1.0  0.65826  0.90697  0.49055  1.0000
  C   C161      1.0  0.93804  0.19443  0.34656  1.0000
  C   C162      1.0  0.97318  0.21237  0.34623  1.0000
  H   H87       1.0  0.98423  0.19823  0.34496  1.0000
  C   C163      1.0  0.82312  0.24711  0.34653  1.0000
  C   C164      1.0  0.80517  0.26431  0.34617  1.0000
  H   H88       1.0  0.81930  0.28949  0.34481  1.0000
  C   C165      1.0  0.77040  0.07948  0.34643  1.0000
  C   C166      1.0  0.75320  0.04434  0.34625  1.0000
  C   C167      1.0  0.76784  0.46974  0.34629  1.0000
  C   C168      1.0  0.75065  0.43459  0.34647  1.0000
  H   H89       1.0  0.79303  0.48078  0.34501  1.0000
  C   C169      1.0  0.76648  0.39913  0.26555  1.0000
  N   N33       1.0  0.76487  0.36916  0.27056  1.0000
  H   H90       1.0  0.76277  0.40690  0.20420  1.0000
  C   C170      1.0  0.87435  0.26295  0.26544  1.0000
  N   N34       1.0  0.90273  0.26136  0.27036  1.0000
  H   H91       1.0  0.86284  0.25927  0.20414  1.0000
  C   C171      1.0  0.75457  0.11496  0.26550  1.0000
  N   N35       1.0  0.75615  0.14492  0.27038  1.0000
  H   H92       1.0  0.75826  0.10716  0.20416  1.0000
  C   C172      1.0  0.90259  0.14323  0.26558  1.0000
  N   N36       1.0  0.87263  0.11485  0.27036  1.0000
  H   H93       1.0  0.91041  0.15478  0.20432  1.0000
  C   C173      1.0  0.99248  0.24799  0.34734  1.0000
  C   C174      1.0  0.97319  0.26433  0.34849  1.0000
  C   C175      1.0  0.93804  0.24714  0.34829  1.0000
  C   C176      1.0  0.92089  0.21221  0.34752  1.0000
  H   H94       1.0  0.98423  0.28951  0.34971  1.0000
  H   H95       1.0  0.89535  0.19944  0.34759  1.0000
  C   C177      1.0  0.76954  0.24798  0.34735  1.0000
  C   C178      1.0  0.75320  0.21237  0.34857  1.0000
  C   C179      1.0  0.77040  0.19442  0.34835  1.0000
  C   C180      1.0  0.80532  0.21218  0.34748  1.0000
  H   H96       1.0  0.81808  0.19940  0.34752  1.0000
  C   C181      1.0  0.75150  0.26599  0.34735  1.0000
  C   C182      1.0  0.75065  0.31955  0.34832  1.0000
  C   C183      1.0  0.76784  0.30160  0.34854  1.0000
  H   H97       1.0  0.79303  0.31574  0.34984  1.0000
  C   C184      1.0  0.76954  0.02506  0.34750  1.0000
  C   C185      1.0  0.80516  0.04434  0.34870  1.0000
  C   C186      1.0  0.82311  0.07949  0.34822  1.0000
  C   C187      1.0  0.80533  0.09663  0.34723  1.0000
  H   H98       1.0  0.81929  0.03330  0.35011  1.0000
  H   H99       1.0  0.81810  0.12217  0.34716  1.0000
  C   C188      1.0  0.75151  0.48902  0.34750  1.0000
  C   C189      1.0  0.76657  0.35454  0.34864  1.0000
  C   C190      1.0  0.76648  0.37085  0.42925  1.0000
  N   N37       1.0  0.76485  0.39920  0.42424  1.0000
  C   C191      1.0  0.76657  0.41553  0.34617  1.0000
  H   H100      1.0  0.76272  0.35937  0.49064  1.0000
  C   C192      1.0  0.91893  0.26305  0.34862  1.0000
  C   C193      1.0  0.90262  0.26292  0.42942  1.0000
  N   N38       1.0  0.87263  0.26129  0.42449  1.0000
  C   C194      1.0  0.85813  0.26302  0.34625  1.0000
  H   H101      1.0  0.91038  0.25917  0.49074  1.0000
  C   C195      1.0  0.75444  0.15940  0.34863  1.0000
  C   C196      1.0  0.75454  0.14320  0.42939  1.0000
  N   N39       1.0  0.75620  0.11487  0.42427  1.0000
  C   C197      1.0  0.75449  0.09856  0.34614  1.0000
  H   H102      1.0  0.75830  0.15469  0.49074  1.0000
  C   C198      1.0  0.85813  0.09857  0.34853  1.0000
  C   C199      1.0  0.87433  0.11479  0.42939  1.0000
  N   N40       1.0  0.90268  0.14479  0.42451  1.0000
  C   C200      1.0  0.91894  0.15942  0.34641  1.0000
  H   H103      1.0  0.86282  0.10698  0.49070  1.0000
  C   C201      1.0  0.93804  0.69443  0.34656  1.0000
  C   C202      1.0  0.97318  0.71237  0.34623  1.0000
  H   H104      1.0  0.98423  0.69823  0.34496  1.0000
  C   C203      1.0  0.82312  0.74711  0.34653  1.0000
  C   C204      1.0  0.80516  0.76431  0.34617  1.0000
  H   H105      1.0  0.81930  0.78949  0.34481  1.0000
  C   C205      1.0  0.77040  0.57948  0.34643  1.0000
  C   C206      1.0  0.75320  0.54434  0.34625  1.0000
  C   C207      1.0  0.76784  0.96974  0.34629  1.0000
  C   C208      1.0  0.75065  0.93460  0.34647  1.0000
  H   H106      1.0  0.79302  0.98078  0.34501  1.0000
  C   C209      1.0  0.76648  0.89913  0.26555  1.0000
  N   N41       1.0  0.76487  0.86916  0.27056  1.0000
  H   H107      1.0  0.76277  0.90690  0.20420  1.0000
  C   C210      1.0  0.87435  0.76295  0.26544  1.0000
  N   N42       1.0  0.90273  0.76136  0.27036  1.0000
  H   H108      1.0  0.86284  0.75927  0.20414  1.0000
  C   C211      1.0  0.75457  0.61495  0.26550  1.0000
  N   N43       1.0  0.75615  0.64492  0.27038  1.0000
  H   H109      1.0  0.75826  0.60716  0.20416  1.0000
  C   C212      1.0  0.90259  0.64323  0.26558  1.0000
  N   N44       1.0  0.87262  0.61486  0.27036  1.0000
  H   H110      1.0  0.91041  0.65478  0.20432  1.0000
  C   C213      1.0  0.99247  0.74799  0.34734  1.0000
  C   C214      1.0  0.97319  0.76433  0.34849  1.0000
  C   C215      1.0  0.93804  0.74713  0.34829  1.0000
  C   C216      1.0  0.92089  0.71221  0.34752  1.0000
  H   H111      1.0  0.98423  0.78951  0.34971  1.0000
  H   H112      1.0  0.89535  0.69944  0.34759  1.0000
  C   C217      1.0  0.76954  0.74798  0.34735  1.0000
  C   C218      1.0  0.75320  0.71237  0.34857  1.0000
  C   C219      1.0  0.77039  0.69442  0.34835  1.0000
  C   C220      1.0  0.80532  0.71218  0.34748  1.0000
  H   H113      1.0  0.81808  0.69940  0.34752  1.0000
  C   C221      1.0  0.75150  0.76599  0.34735  1.0000
  C   C222      1.0  0.75065  0.81955  0.34832  1.0000
  C   C223      1.0  0.76784  0.80160  0.34854  1.0000
  H   H114      1.0  0.79303  0.81574  0.34984  1.0000
  C   C224      1.0  0.76953  0.52506  0.34750  1.0000
  C   C225      1.0  0.80516  0.54434  0.34870  1.0000
  C   C226      1.0  0.82311  0.57949  0.34822  1.0000
  C   C227      1.0  0.80533  0.59663  0.34723  1.0000
  H   H115      1.0  0.81929  0.53330  0.35011  1.0000
  H   H116      1.0  0.81810  0.62217  0.34716  1.0000
  C   C228      1.0  0.75151  0.98901  0.34750  1.0000
  C   C229      1.0  0.76657  0.85454  0.34864  1.0000
  C   C230      1.0  0.76648  0.87085  0.42925  1.0000
  N   N45       1.0  0.76485  0.89920  0.42424  1.0000
  C   C231      1.0  0.76657  0.91553  0.34617  1.0000
  H   H117      1.0  0.76272  0.85937  0.49064  1.0000
  C   C232      1.0  0.91893  0.76305  0.34862  1.0000
  C   C233      1.0  0.90261  0.76292  0.42942  1.0000
  N   N46       1.0  0.87263  0.76129  0.42449  1.0000
  C   C234      1.0  0.85813  0.76302  0.34625  1.0000
  H   H118      1.0  0.91038  0.75917  0.49074  1.0000
  C   C235      1.0  0.75444  0.65941  0.34863  1.0000
  C   C236      1.0  0.75454  0.64320  0.42939  1.0000
  N   N47       1.0  0.75619  0.61486  0.42427  1.0000
  C   C237      1.0  0.75449  0.59856  0.34614  1.0000
  H   H119      1.0  0.75830  0.65469  0.49074  1.0000
  C   C238      1.0  0.85812  0.59857  0.34853  1.0000
  C   C239      1.0  0.87433  0.61479  0.42939  1.0000
  N   N48       1.0  0.90267  0.64479  0.42451  1.0000
  C   C240      1.0  0.91894  0.65942  0.34641  1.0000
  H   H120      1.0  0.86282  0.60698  0.49070  1.0000
