data_image0
_chemical_formula_structural       C15H12CNCHCNCHC2NC2NC5NC3NC17H14NC2HNC2HC15H12CNCHCNCHC2NC2NC5NC3NC17H14NC2HNC2HC15H12CNCHCNCHC2NC2NC5NC3NC17H14NC2HNC2HC15H12CNCHCNCHC2NC2NC5NC3NC17H14NC2HNC2H
_chemical_formula_sum              "C208 H120 N32"
_cell_length_a       42.6212
_cell_length_b       42.6212
_cell_length_c       14.9237
_cell_angle_alpha    90
_cell_angle_beta     90
_cell_angle_gamma    90

_space_group_name_H-M_alt    "P 1"
_space_group_IT_number       1

loop_
  _space_group_symop_operation_xyz
  'x, y, z'

loop_
  _atom_site_type_symbol
  _atom_site_label
  _atom_site_symmetry_multiplicity
  _atom_site_fract_x
  _atom_site_fract_y
  _atom_site_fract_z
  _atom_site_occupancy
  C   C1        1.0  0.43558  0.47303  0.33955  1.0000
  C   C2        1.0  0.03221  0.43475  0.33869  1.0000
  C   C3        1.0  0.50178  0.08452  0.33816  1.0000
  C   C4        1.0  0.47206  0.06938  0.33851  1.0000
  C   C5        1.0  0.41995  0.06136  0.33839  1.0000
  C   C6        1.0  0.44285  0.08425  0.33916  1.0000
  C   C7        1.0  0.33619  0.49414  0.26128  1.0000
  C   C8        1.0  0.36923  0.49439  0.26108  1.0000
  C   C9        1.0  0.50206  0.11807  0.33802  1.0000
  C   C10       1.0  0.49433  0.16808  0.26017  1.0000
  C   C11       1.0  0.49439  0.13505  0.25977  1.0000
  C   C12       1.0  0.13497  0.00756  0.25888  1.0000
  C   C13       1.0  0.16800  0.00777  0.25922  1.0000
  C   C14       1.0  0.00781  0.36925  0.25911  1.0000
  C   C15       1.0  0.00793  0.33622  0.25924  1.0000
  H   H1        1.0  0.01206  0.32499  0.19984  1.0000
  H   H2        1.0  0.01196  0.38093  0.20033  1.0000
  H   H3        1.0  0.43931  0.39727  0.34182  1.0000
  H   H4        1.0  0.12332  0.01163  0.20002  1.0000
  H   H5        1.0  0.17928  0.01192  0.19990  1.0000
  H   H6        1.0  0.06502  0.10680  0.33375  1.0000
  H   H7        1.0  0.39639  0.06576  0.33806  1.0000
  H   H8        1.0  0.43845  0.10781  0.33956  1.0000
  H   H9        1.0  0.48845  0.12345  0.20215  1.0000
  H   H10       1.0  0.48780  0.17940  0.20268  1.0000
  H   H11       1.0  0.38090  0.48863  0.20342  1.0000
  H   H12       1.0  0.32495  0.48762  0.20366  1.0000
  C   C16       1.0  0.01177  0.23686  0.26309  1.0000
  N   N1        1.0  0.01150  0.26869  0.26552  1.0000
  C   C17       1.0  0.00220  0.28536  0.33863  1.0000
  H   H13       1.0  0.01968  0.22626  0.20602  1.0000
  C   C18       1.0  0.26740  0.01154  0.26375  1.0000
  N   N2        1.0  0.23557  0.01131  0.26594  1.0000
  C   C19       1.0  0.21883  0.00197  0.33887  1.0000
  H   H14       1.0  0.27806  0.01949  0.20683  1.0000
  C   C20       1.0  0.44379  0.42082  0.34097  1.0000
  C   C21       1.0  0.42090  0.44371  0.34170  1.0000
  N   N3        1.0  0.46679  0.46675  0.33862  1.0000
  C   C22       1.0  0.47309  0.43554  0.33962  1.0000
  C   C23       1.0  0.50248  0.41964  0.33904  1.0000
  N   N4        1.0  0.03828  0.46589  0.33878  1.0000
  C   C24       1.0  0.06942  0.47195  0.33890  1.0000
  C   C25       1.0  0.08430  0.44275  0.33862  1.0000
  C   C26       1.0  0.06140  0.41986  0.33902  1.0000
  C   C27       1.0  0.08454  0.50167  0.33852  1.0000
  C   C28       1.0  0.06865  0.03106  0.33783  1.0000
  N   N5        1.0  0.03744  0.03737  0.33881  1.0000
  C   C29       1.0  0.03117  0.06859  0.33782  1.0000
  C   C30       1.0  0.06049  0.08326  0.33560  1.0000
  C   C31       1.0  0.08338  0.06035  0.33638  1.0000
  N   N6        1.0  0.46596  0.03823  0.33870  1.0000
  C   C32       1.0  0.43481  0.03215  0.33895  1.0000
  C   C33       1.0  0.41966  0.50243  0.33928  1.0000
  C   C34       1.0  0.38611  0.50216  0.33941  1.0000
  C   C35       1.0  0.36913  0.00978  0.41770  1.0000
  C   C36       1.0  0.33610  0.00983  0.41733  1.0000
  C   C37       1.0  0.31884  0.50196  0.33924  1.0000
  C   C38       1.0  0.00988  0.13495  0.41632  1.0000
  C   C39       1.0  0.01015  0.16798  0.41610  1.0000
  C   C40       1.0  0.50226  0.18534  0.33821  1.0000
  C   C41       1.0  0.11805  0.50190  0.33859  1.0000
  C   C42       1.0  0.18528  0.50198  0.33878  1.0000
  C   C43       1.0  0.16797  0.49617  0.41824  1.0000
  C   C44       1.0  0.13493  0.49628  0.41839  1.0000
  C   C45       1.0  0.50224  0.38613  0.33894  1.0000
  C   C46       1.0  0.49663  0.36921  0.41867  1.0000
  C   C47       1.0  0.49643  0.33618  0.41832  1.0000
  C   C48       1.0  0.50218  0.31890  0.33873  1.0000
  H   H15       1.0  0.49233  0.32490  0.47767  1.0000
  H   H16       1.0  0.49260  0.38085  0.47756  1.0000
  H   H17       1.0  0.39736  0.43920  0.34353  1.0000
  H   H18       1.0  0.48271  0.48267  0.33677  1.0000
  H   H19       1.0  0.02151  0.02146  0.34090  1.0000
  H   H20       1.0  0.06576  0.39627  0.33941  1.0000
  H   H21       1.0  0.10788  0.43838  0.33825  1.0000
  H   H22       1.0  0.12326  0.49210  0.47715  1.0000
  H   H23       1.0  0.17921  0.49200  0.47761  1.0000
  H   H24       1.0  0.10693  0.06483  0.33555  1.0000
  H   H25       1.0  0.01568  0.12328  0.47394  1.0000
  H   H26       1.0  0.01669  0.17922  0.47370  1.0000
  H   H27       1.0  0.32479  0.01632  0.47485  1.0000
  H   H28       1.0  0.38074  0.01568  0.47536  1.0000
  N   N7        1.0  0.99294  0.26860  0.41162  1.0000
  C   C49       1.0  0.99274  0.23677  0.41380  1.0000
  C   C50       1.0  0.00227  0.21902  0.33837  1.0000
  H   H29       1.0  0.98484  0.22611  0.47077  1.0000
  N   N8        1.0  0.23551  0.99262  0.41190  1.0000
  C   C51       1.0  0.26733  0.99236  0.41431  1.0000
  C   C52       1.0  0.28516  0.00194  0.33910  1.0000
  H   H30       1.0  0.27794  0.98441  0.47132  1.0000
  C   C53       1.0  0.43558  0.97303  0.33955  1.0000
  C   C54       1.0  0.03221  0.93475  0.33869  1.0000
  C   C55       1.0  0.50178  0.58452  0.33816  1.0000
  C   C56       1.0  0.47206  0.56938  0.33851  1.0000
  C   C57       1.0  0.41995  0.56136  0.33839  1.0000
  C   C58       1.0  0.44285  0.58425  0.33916  1.0000
  C   C59       1.0  0.33619  0.99414  0.26128  1.0000
  C   C60       1.0  0.36923  0.99439  0.26108  1.0000
  C   C61       1.0  0.50206  0.61807  0.33802  1.0000
  C   C62       1.0  0.49433  0.66808  0.26017  1.0000
  C   C63       1.0  0.49439  0.63505  0.25977  1.0000
  C   C64       1.0  0.13497  0.50756  0.25888  1.0000
  C   C65       1.0  0.16800  0.50776  0.25922  1.0000
  C   C66       1.0  0.00781  0.86925  0.25911  1.0000
  C   C67       1.0  0.00793  0.83623  0.25924  1.0000
  H   H31       1.0  0.01206  0.82499  0.19984  1.0000
  H   H32       1.0  0.01196  0.88093  0.20033  1.0000
  H   H33       1.0  0.43931  0.89727  0.34182  1.0000
  H   H34       1.0  0.12332  0.51163  0.20002  1.0000
  H   H35       1.0  0.17928  0.51192  0.19990  1.0000
  H   H36       1.0  0.06502  0.60679  0.33375  1.0000
  H   H37       1.0  0.39639  0.56576  0.33806  1.0000
  H   H38       1.0  0.43845  0.60781  0.33956  1.0000
  H   H39       1.0  0.48845  0.62345  0.20215  1.0000
  H   H40       1.0  0.48780  0.67940  0.20268  1.0000
  H   H41       1.0  0.38090  0.98863  0.20342  1.0000
  H   H42       1.0  0.32495  0.98762  0.20366  1.0000
  C   C68       1.0  0.01177  0.73686  0.26309  1.0000
  N   N9        1.0  0.01150  0.76868  0.26552  1.0000
  C   C69       1.0  0.00220  0.78536  0.33863  1.0000
  H   H43       1.0  0.01968  0.72626  0.20602  1.0000
  C   C70       1.0  0.26740  0.51153  0.26375  1.0000
  N   N10       1.0  0.23557  0.51131  0.26594  1.0000
  C   C71       1.0  0.21883  0.50197  0.33887  1.0000
  H   H44       1.0  0.27806  0.51949  0.20683  1.0000
  C   C72       1.0  0.44379  0.92082  0.34097  1.0000
  C   C73       1.0  0.42090  0.94371  0.34170  1.0000
  N   N11       1.0  0.46679  0.96675  0.33862  1.0000
  C   C74       1.0  0.47309  0.93554  0.33962  1.0000
  C   C75       1.0  0.50248  0.91964  0.33904  1.0000
  N   N12       1.0  0.03828  0.96589  0.33878  1.0000
  C   C76       1.0  0.06942  0.97195  0.33890  1.0000
  C   C77       1.0  0.08430  0.94275  0.33862  1.0000
  C   C78       1.0  0.06140  0.91985  0.33902  1.0000
  C   C79       1.0  0.08454  0.00167  0.33852  1.0000
  C   C80       1.0  0.06865  0.53106  0.33783  1.0000
  N   N13       1.0  0.03744  0.53737  0.33881  1.0000
  C   C81       1.0  0.03117  0.56859  0.33782  1.0000
  C   C82       1.0  0.06049  0.58326  0.33560  1.0000
  C   C83       1.0  0.08338  0.56036  0.33638  1.0000
  N   N14       1.0  0.46596  0.53823  0.33870  1.0000
  C   C84       1.0  0.43481  0.53215  0.33895  1.0000
  C   C85       1.0  0.41966  0.00243  0.33928  1.0000
  C   C86       1.0  0.38611  0.00216  0.33941  1.0000
  C   C87       1.0  0.36913  0.50978  0.41770  1.0000
  C   C88       1.0  0.33610  0.50983  0.41733  1.0000
  C   C89       1.0  0.31884  0.00196  0.33924  1.0000
  C   C90       1.0  0.00988  0.63495  0.41632  1.0000
  C   C91       1.0  0.01015  0.66798  0.41610  1.0000
  C   C92       1.0  0.50226  0.68534  0.33821  1.0000
  C   C93       1.0  0.11805  0.00190  0.33859  1.0000
  C   C94       1.0  0.18528  0.00198  0.33878  1.0000
  C   C95       1.0  0.16797  0.99617  0.41824  1.0000
  C   C96       1.0  0.13493  0.99628  0.41839  1.0000
  C   C97       1.0  0.50224  0.88613  0.33894  1.0000
  C   C98       1.0  0.49663  0.86921  0.41867  1.0000
  C   C99       1.0  0.49643  0.83618  0.41832  1.0000
  C   C100      1.0  0.50218  0.81890  0.33873  1.0000
  H   H45       1.0  0.49233  0.82490  0.47767  1.0000
  H   H46       1.0  0.49260  0.88085  0.47756  1.0000
  H   H47       1.0  0.39736  0.93920  0.34353  1.0000
  H   H48       1.0  0.48271  0.98267  0.33677  1.0000
  H   H49       1.0  0.02151  0.52146  0.34090  1.0000
  H   H50       1.0  0.06576  0.89628  0.33941  1.0000
  H   H51       1.0  0.10788  0.93838  0.33825  1.0000
  H   H52       1.0  0.12326  0.99210  0.47715  1.0000
  H   H53       1.0  0.17921  0.99200  0.47761  1.0000
  H   H54       1.0  0.10693  0.56483  0.33555  1.0000
  H   H55       1.0  0.01568  0.62328  0.47394  1.0000
  H   H56       1.0  0.01669  0.67922  0.47370  1.0000
  H   H57       1.0  0.32479  0.51633  0.47485  1.0000
  H   H58       1.0  0.38074  0.51568  0.47536  1.0000
  N   N15       1.0  0.99294  0.76860  0.41162  1.0000
  C   C101      1.0  0.99274  0.73677  0.41380  1.0000
  C   C102      1.0  0.00227  0.71902  0.33837  1.0000
  H   H59       1.0  0.98484  0.72611  0.47077  1.0000
  N   N16       1.0  0.23551  0.49262  0.41190  1.0000
  C   C103      1.0  0.26733  0.49236  0.41431  1.0000
  C   C104      1.0  0.28516  0.50194  0.33910  1.0000
  H   H60       1.0  0.27794  0.48440  0.47132  1.0000
  C   C105      1.0  0.93558  0.47303  0.33955  1.0000
  C   C106      1.0  0.53221  0.43475  0.33869  1.0000
  C   C107      1.0  0.00178  0.08452  0.33816  1.0000
  C   C108      1.0  0.97206  0.06938  0.33851  1.0000
  C   C109      1.0  0.91995  0.06136  0.33839  1.0000
  C   C110      1.0  0.94285  0.08425  0.33916  1.0000
  C   C111      1.0  0.83619  0.49414  0.26128  1.0000
  C   C112      1.0  0.86923  0.49439  0.26108  1.0000
  C   C113      1.0  0.00206  0.11807  0.33802  1.0000
  C   C114      1.0  0.99433  0.16808  0.26017  1.0000
  C   C115      1.0  0.99439  0.13505  0.25977  1.0000
  C   C116      1.0  0.63497  0.00756  0.25888  1.0000
  C   C117      1.0  0.66800  0.00777  0.25922  1.0000
  C   C118      1.0  0.50781  0.36925  0.25911  1.0000
  C   C119      1.0  0.50793  0.33622  0.25924  1.0000
  H   H61       1.0  0.51206  0.32499  0.19984  1.0000
  H   H62       1.0  0.51196  0.38093  0.20033  1.0000
  H   H63       1.0  0.93931  0.39727  0.34182  1.0000
  H   H64       1.0  0.62332  0.01163  0.20002  1.0000
  H   H65       1.0  0.67928  0.01192  0.19990  1.0000
  H   H66       1.0  0.56502  0.10680  0.33375  1.0000
  H   H67       1.0  0.89639  0.06576  0.33806  1.0000
  H   H68       1.0  0.93845  0.10781  0.33956  1.0000
  H   H69       1.0  0.98845  0.12345  0.20215  1.0000
  H   H70       1.0  0.98780  0.17940  0.20268  1.0000
  H   H71       1.0  0.88090  0.48863  0.20342  1.0000
  H   H72       1.0  0.82495  0.48762  0.20366  1.0000
  C   C120      1.0  0.51177  0.23686  0.26309  1.0000
  N   N17       1.0  0.51150  0.26869  0.26552  1.0000
  C   C121      1.0  0.50220  0.28536  0.33863  1.0000
  H   H73       1.0  0.51968  0.22626  0.20602  1.0000
  C   C122      1.0  0.76740  0.01154  0.26375  1.0000
  N   N18       1.0  0.73557  0.01131  0.26594  1.0000
  C   C123      1.0  0.71883  0.00197  0.33887  1.0000
  H   H74       1.0  0.77806  0.01949  0.20683  1.0000
  C   C124      1.0  0.94379  0.42082  0.34097  1.0000
  C   C125      1.0  0.92090  0.44371  0.34170  1.0000
  N   N19       1.0  0.96679  0.46675  0.33862  1.0000
  C   C126      1.0  0.97309  0.43554  0.33962  1.0000
  C   C127      1.0  0.00248  0.41964  0.33904  1.0000
  N   N20       1.0  0.53828  0.46589  0.33878  1.0000
  C   C128      1.0  0.56942  0.47195  0.33890  1.0000
  C   C129      1.0  0.58430  0.44275  0.33862  1.0000
  C   C130      1.0  0.56140  0.41986  0.33902  1.0000
  C   C131      1.0  0.58454  0.50167  0.33852  1.0000
  C   C132      1.0  0.56865  0.03106  0.33783  1.0000
  N   N21       1.0  0.53744  0.03737  0.33881  1.0000
  C   C133      1.0  0.53117  0.06859  0.33782  1.0000
  C   C134      1.0  0.56049  0.08326  0.33560  1.0000
  C   C135      1.0  0.58338  0.06035  0.33638  1.0000
  N   N22       1.0  0.96596  0.03823  0.33870  1.0000
  C   C136      1.0  0.93481  0.03215  0.33895  1.0000
  C   C137      1.0  0.91966  0.50243  0.33928  1.0000
  C   C138      1.0  0.88611  0.50216  0.33941  1.0000
  C   C139      1.0  0.86913  0.00978  0.41770  1.0000
  C   C140      1.0  0.83610  0.00983  0.41733  1.0000
  C   C141      1.0  0.81884  0.50196  0.33924  1.0000
  C   C142      1.0  0.50988  0.13495  0.41632  1.0000
  C   C143      1.0  0.51015  0.16798  0.41610  1.0000
  C   C144      1.0  0.00226  0.18534  0.33821  1.0000
  C   C145      1.0  0.61805  0.50190  0.33859  1.0000
  C   C146      1.0  0.68528  0.50198  0.33878  1.0000
  C   C147      1.0  0.66797  0.49617  0.41824  1.0000
  C   C148      1.0  0.63493  0.49628  0.41839  1.0000
  C   C149      1.0  0.00224  0.38613  0.33894  1.0000
  C   C150      1.0  0.99663  0.36921  0.41867  1.0000
  C   C151      1.0  0.99643  0.33618  0.41832  1.0000
  C   C152      1.0  0.00218  0.31890  0.33873  1.0000
  H   H75       1.0  0.99233  0.32490  0.47767  1.0000
  H   H76       1.0  0.99260  0.38085  0.47756  1.0000
  H   H77       1.0  0.89736  0.43920  0.34353  1.0000
  H   H78       1.0  0.98271  0.48267  0.33677  1.0000
  H   H79       1.0  0.52152  0.02146  0.34090  1.0000
  H   H80       1.0  0.56576  0.39627  0.33941  1.0000
  H   H81       1.0  0.60788  0.43838  0.33825  1.0000
  H   H82       1.0  0.62326  0.49210  0.47715  1.0000
  H   H83       1.0  0.67921  0.49200  0.47761  1.0000
  H   H84       1.0  0.60693  0.06483  0.33555  1.0000
  H   H85       1.0  0.51568  0.12328  0.47394  1.0000
  H   H86       1.0  0.51669  0.17922  0.47370  1.0000
  H   H87       1.0  0.82479  0.01632  0.47485  1.0000
  H   H88       1.0  0.88074  0.01568  0.47536  1.0000
  N   N23       1.0  0.49294  0.26860  0.41162  1.0000
  C   C153      1.0  0.49274  0.23677  0.41380  1.0000
  C   C154      1.0  0.50227  0.21902  0.33837  1.0000
  H   H89       1.0  0.48484  0.22611  0.47077  1.0000
  N   N24       1.0  0.73551  0.99262  0.41190  1.0000
  C   C155      1.0  0.76733  0.99236  0.41431  1.0000
  C   C156      1.0  0.78516  0.00194  0.33910  1.0000
  H   H90       1.0  0.77794  0.98441  0.47132  1.0000
  C   C157      1.0  0.93558  0.97303  0.33955  1.0000
  C   C158      1.0  0.53221  0.93475  0.33869  1.0000
  C   C159      1.0  0.00178  0.58452  0.33816  1.0000
  C   C160      1.0  0.97206  0.56938  0.33851  1.0000
  C   C161      1.0  0.91995  0.56136  0.33839  1.0000
  C   C162      1.0  0.94285  0.58425  0.33916  1.0000
  C   C163      1.0  0.83619  0.99414  0.26128  1.0000
  C   C164      1.0  0.86923  0.99439  0.26108  1.0000
  C   C165      1.0  0.00206  0.61807  0.33802  1.0000
  C   C166      1.0  0.99433  0.66808  0.26017  1.0000
  C   C167      1.0  0.99439  0.63505  0.25977  1.0000
  C   C168      1.0  0.63497  0.50756  0.25888  1.0000
  C   C169      1.0  0.66800  0.50776  0.25922  1.0000
  C   C170      1.0  0.50781  0.86925  0.25911  1.0000
  C   C171      1.0  0.50793  0.83623  0.25924  1.0000
  H   H91       1.0  0.51206  0.82499  0.19984  1.0000
  H   H92       1.0  0.51196  0.88093  0.20033  1.0000
  H   H93       1.0  0.93931  0.89727  0.34182  1.0000
  H   H94       1.0  0.62332  0.51163  0.20002  1.0000
  H   H95       1.0  0.67928  0.51192  0.19990  1.0000
  H   H96       1.0  0.56502  0.60679  0.33375  1.0000
  H   H97       1.0  0.89639  0.56576  0.33806  1.0000
  H   H98       1.0  0.93845  0.60781  0.33956  1.0000
  H   H99       1.0  0.98845  0.62345  0.20215  1.0000
  H   H100      1.0  0.98780  0.67940  0.20268  1.0000
  H   H101      1.0  0.88090  0.98863  0.20342  1.0000
  H   H102      1.0  0.82495  0.98762  0.20366  1.0000
  C   C172      1.0  0.51177  0.73686  0.26309  1.0000
  N   N25       1.0  0.51150  0.76868  0.26552  1.0000
  C   C173      1.0  0.50220  0.78536  0.33863  1.0000
  H   H103      1.0  0.51968  0.72626  0.20602  1.0000
  C   C174      1.0  0.76740  0.51153  0.26375  1.0000
  N   N26       1.0  0.73557  0.51131  0.26594  1.0000
  C   C175      1.0  0.71883  0.50197  0.33887  1.0000
  H   H104      1.0  0.77806  0.51949  0.20683  1.0000
  C   C176      1.0  0.94379  0.92082  0.34097  1.0000
  C   C177      1.0  0.92090  0.94371  0.34170  1.0000
  N   N27       1.0  0.96679  0.96675  0.33862  1.0000
  C   C178      1.0  0.97309  0.93554  0.33962  1.0000
  C   C179      1.0  0.00248  0.91964  0.33904  1.0000
  N   N28       1.0  0.53828  0.96589  0.33878  1.0000
  C   C180      1.0  0.56942  0.97195  0.33890  1.0000
  C   C181      1.0  0.58430  0.94275  0.33862  1.0000
  C   C182      1.0  0.56140  0.91985  0.33902  1.0000
  C   C183      1.0  0.58454  0.00167  0.33852  1.0000
  C   C184      1.0  0.56865  0.53106  0.33783  1.0000
  N   N29       1.0  0.53744  0.53737  0.33881  1.0000
  C   C185      1.0  0.53117  0.56859  0.33782  1.0000
  C   C186      1.0  0.56049  0.58326  0.33560  1.0000
  C   C187      1.0  0.58338  0.56036  0.33638  1.0000
  N   N30       1.0  0.96596  0.53823  0.33870  1.0000
  C   C188      1.0  0.93481  0.53215  0.33895  1.0000
  C   C189      1.0  0.91966  0.00243  0.33928  1.0000
  C   C190      1.0  0.88611  0.00216  0.33941  1.0000
  C   C191      1.0  0.86913  0.50978  0.41770  1.0000
  C   C192      1.0  0.83610  0.50983  0.41733  1.0000
  C   C193      1.0  0.81884  0.00196  0.33924  1.0000
  C   C194      1.0  0.50988  0.63495  0.41632  1.0000
  C   C195      1.0  0.51015  0.66798  0.41610  1.0000
  C   C196      1.0  0.00226  0.68534  0.33821  1.0000
  C   C197      1.0  0.61805  0.00190  0.33859  1.0000
  C   C198      1.0  0.68528  0.00198  0.33878  1.0000
  C   C199      1.0  0.66797  0.99617  0.41824  1.0000
  C   C200      1.0  0.63493  0.99628  0.41839  1.0000
  C   C201      1.0  0.00224  0.88613  0.33894  1.0000
  C   C202      1.0  0.99663  0.86921  0.41867  1.0000
  C   C203      1.0  0.99643  0.83618  0.41832  1.0000
  C   C204      1.0  0.00218  0.81890  0.33873  1.0000
  H   H105      1.0  0.99233  0.82490  0.47767  1.0000
  H   H106      1.0  0.99260  0.88085  0.47756  1.0000
  H   H107      1.0  0.89736  0.93920  0.34353  1.0000
  H   H108      1.0  0.98271  0.98267  0.33677  1.0000
  H   H109      1.0  0.52152  0.52146  0.34090  1.0000
  H   H110      1.0  0.56576  0.89628  0.33941  1.0000
  H   H111      1.0  0.60788  0.93838  0.33825  1.0000
  H   H112      1.0  0.62326  0.99210  0.47715  1.0000
  H   H113      1.0  0.67921  0.99200  0.47761  1.0000
  H   H114      1.0  0.60693  0.56483  0.33555  1.0000
  H   H115      1.0  0.51568  0.62328  0.47394  1.0000
  H   H116      1.0  0.51669  0.67922  0.47370  1.0000
  H   H117      1.0  0.82479  0.51633  0.47485  1.0000
  H   H118      1.0  0.88074  0.51568  0.47536  1.0000
  N   N31       1.0  0.49294  0.76860  0.41162  1.0000
  C   C205      1.0  0.49274  0.73677  0.41380  1.0000
  C   C206      1.0  0.50227  0.71902  0.33837  1.0000
  H   H119      1.0  0.48484  0.72611  0.47077  1.0000
  N   N32       1.0  0.73551  0.49262  0.41190  1.0000
  C   C207      1.0  0.76733  0.49236  0.41431  1.0000
  C   C208      1.0  0.78516  0.50194  0.33910  1.0000
  H   H120      1.0  0.77794  0.48440  0.47132  1.0000
