data_image0
_chemical_formula_structural       C8H7CHC8H7CHC8H7CHC8H7C8H7CHC8H7CHCNO2C3N2O4NC3N2O4NC3H2NC3H2NC3H2NC3H2NC3H2NC3H2NC10H6C6H2C2H2C10H6C6H2C2H2C10H6C6H2C2H2C10H6C6H2C2H2C10H6C6H2C2H2C10H6C6H2C2H2C2HNC3H2NC3H2NC3N2O4NC3N2O4NC3N2O4NC3N2O4NC3N2O4NC3N2O4NCHC2NO2NCH
_chemical_formula_sum              "C216 H126 N36 O36"
_cell_length_a       78.222
_cell_length_b       78.222
_cell_length_c       14.8296
_cell_angle_alpha    90
_cell_angle_beta     90
_cell_angle_gamma    120

_space_group_name_H-M_alt    "P 1"
_space_group_IT_number       1

loop_
  _space_group_symop_operation_xyz
  'x, y, z'

loop_
  _atom_site_type_symbol
  _atom_site_label
  _atom_site_symmetry_multiplicity
  _atom_site_fract_x
  _atom_site_fract_y
  _atom_site_fract_z
  _atom_site_occupancy
  C   C1        1.0  0.12540  0.56103  0.33441  1.0000
  C   C2        1.0  0.20474  0.63536  0.27005  1.0000
  C   C3        1.0  0.21765  0.65589  0.27186  1.0000
  C   C4        1.0  0.08292  0.53659  0.32221  1.0000
  C   C5        1.0  0.09573  0.53143  0.27764  1.0000
  C   C6        1.0  0.11640  0.54332  0.28358  1.0000
  C   C7        1.0  0.19825  0.56028  0.30096  1.0000
  C   C8        1.0  0.21440  0.55714  0.31126  1.0000
  H   H1        1.0  0.22961  0.66184  0.22961  1.0000
  H   H2        1.0  0.12488  0.53892  0.24919  1.0000
  H   H3        1.0  0.09011  0.51877  0.24005  1.0000
  H   H4        1.0  0.19292  0.55989  0.23749  1.0000
  H   H5        1.0  0.22008  0.55427  0.25485  1.0000
  H   H6        1.0  0.14884  0.60066  0.32313  1.0000
  H   H7        1.0  0.20785  0.62705  0.22694  1.0000
  C   C9        1.0  0.06244  0.52402  0.31555  1.0000
  H   H8        1.0  0.05760  0.51103  0.28523  1.0000
  C   C10       1.0  0.45332  0.56723  0.33437  1.0000
  C   C11       1.0  0.37901  0.57227  0.27005  1.0000
  C   C12       1.0  0.35848  0.56465  0.27187  1.0000
  C   C13       1.0  0.47775  0.54919  0.32217  1.0000
  C   C14       1.0  0.48290  0.56714  0.27749  1.0000
  C   C15       1.0  0.47101  0.57592  0.28343  1.0000
  C   C16       1.0  0.45407  0.64087  0.30070  1.0000
  C   C17       1.0  0.45726  0.66017  0.31107  1.0000
  H   H9        1.0  0.35252  0.57066  0.22963  1.0000
  H   H10       1.0  0.47541  0.58880  0.24896  1.0000
  H   H11       1.0  0.49555  0.57417  0.23981  1.0000
  H   H12       1.0  0.45450  0.63594  0.23724  1.0000
  H   H13       1.0  0.46011  0.66873  0.25469  1.0000
  H   H14       1.0  0.41368  0.55105  0.32321  1.0000
  H   H15       1.0  0.38732  0.58370  0.22699  1.0000
  C   C18       1.0  0.49034  0.54129  0.31555  1.0000
  H   H16       1.0  0.50333  0.54945  0.28526  1.0000
  C   C19       1.0  0.44712  0.88897  0.33438  1.0000
  C   C20       1.0  0.44212  0.80965  0.26998  1.0000
  C   C21       1.0  0.44972  0.79671  0.27192  1.0000
  C   C22       1.0  0.46517  0.93145  0.32221  1.0000
  C   C23       1.0  0.44721  0.91865  0.27757  1.0000
  C   C24       1.0  0.43843  0.89798  0.28351  1.0000
  C   C25       1.0  0.37349  0.81611  0.30072  1.0000
  C   C26       1.0  0.35420  0.79996  0.31110  1.0000
  H   H17       1.0  0.44373  0.78476  0.22963  1.0000
  H   H18       1.0  0.42555  0.88950  0.24905  1.0000
  H   H19       1.0  0.44018  0.92427  0.23992  1.0000
  H   H20       1.0  0.37841  0.82149  0.23728  1.0000
  H   H21       1.0  0.34560  0.79431  0.25479  1.0000
  H   H22       1.0  0.46332  0.86554  0.32320  1.0000
  H   H23       1.0  0.43070  0.80653  0.22689  1.0000
  C   C27       1.0  0.47308  0.95193  0.31557  1.0000
  H   H24       1.0  0.46492  0.95677  0.28527  1.0000
  C   C28       1.0  0.89194  0.45077  0.33710  1.0000
  C   C29       1.0  0.81264  0.37637  0.26716  1.0000
  C   C30       1.0  0.79973  0.35584  0.26906  1.0000
  C   C31       1.0  0.93444  0.47539  0.33285  1.0000
  C   C32       1.0  0.92201  0.48098  0.28796  1.0000
  C   C33       1.0  0.90131  0.46895  0.28983  1.0000
  C   C34       1.0  0.81882  0.45128  0.29899  1.0000
  C   C35       1.0  0.80265  0.45437  0.30946  1.0000
  H   H25       1.0  0.78781  0.34986  0.22662  1.0000
  H   H26       1.0  0.89309  0.47368  0.25559  1.0000
  H   H27       1.0  0.92794  0.49406  0.25341  1.0000
  H   H28       1.0  0.82412  0.45164  0.23546  1.0000
  H   H29       1.0  0.79689  0.45717  0.25310  1.0000
  H   H30       1.0  0.86849  0.41114  0.32256  1.0000
  H   H31       1.0  0.80956  0.38466  0.22380  1.0000
  C   C36       1.0  0.56362  0.44408  0.33706  1.0000
  C   C37       1.0  0.63799  0.43912  0.26730  1.0000
  C   C38       1.0  0.65852  0.44674  0.26919  1.0000
  C   C39       1.0  0.53900  0.46195  0.33289  1.0000
  C   C40       1.0  0.53342  0.44396  0.28783  1.0000
  C   C41       1.0  0.54545  0.43529  0.28966  1.0000
  C   C42       1.0  0.56311  0.37041  0.29864  1.0000
  C   C43       1.0  0.55999  0.35113  0.30915  1.0000
  H   H32       1.0  0.66450  0.44079  0.22674  1.0000
  H   H33       1.0  0.54073  0.42234  0.25534  1.0000
  H   H34       1.0  0.52035  0.43682  0.25322  1.0000
  H   H35       1.0  0.56275  0.37535  0.23512  1.0000
  H   H36       1.0  0.55723  0.34259  0.25278  1.0000
  H   H37       1.0  0.60325  0.46023  0.32273  1.0000
  H   H38       1.0  0.62969  0.42774  0.22397  1.0000
  C   C44       1.0  0.52614  0.46953  0.33285  1.0000
  H   H39       1.0  0.51185  0.46016  0.32166  1.0000
  C   C45       1.0  0.57031  0.12243  0.33708  1.0000
  C   C46       1.0  0.57522  0.20172  0.26719  1.0000
  C   C47       1.0  0.56761  0.21464  0.26917  1.0000
  C   C48       1.0  0.55243  0.07992  0.33289  1.0000
  C   C49       1.0  0.57045  0.09235  0.28795  1.0000
  C   C50       1.0  0.57912  0.11305  0.28979  1.0000
  C   C51       1.0  0.64393  0.19560  0.29886  1.0000
  C   C52       1.0  0.66321  0.21176  0.30932  1.0000
  H   H40       1.0  0.57356  0.22656  0.22672  1.0000
  H   H41       1.0  0.59208  0.12127  0.25554  1.0000
  H   H42       1.0  0.57759  0.08642  0.25341  1.0000
  H   H43       1.0  0.63899  0.19029  0.23534  1.0000
  H   H44       1.0  0.67175  0.21752  0.25292  1.0000
  H   H45       1.0  0.55414  0.14588  0.32263  1.0000
  H   H46       1.0  0.58660  0.20480  0.22388  1.0000
  C   C53       1.0  0.54486  0.05949  0.33284  1.0000
  H   H47       1.0  0.55423  0.05457  0.32176  1.0000
  C   C54       1.0  0.01915  0.51008  0.25739  1.0000
  N   N1        1.0  0.03048  0.51564  0.17701  1.0000
  O   O1        1.0  0.02848  0.50096  0.13362  1.0000
  O   O2        1.0  0.02641  0.52605  0.12673  1.0000
  C   C55       1.0  0.52038  0.49630  0.33946  1.0000
  C   C56       1.0  0.51594  0.50256  0.25693  1.0000
  C   C57       1.0  0.50428  0.51195  0.25741  1.0000
  N   N2        1.0  0.52274  0.49986  0.17247  1.0000
  N   N3        1.0  0.49873  0.51771  0.17701  1.0000
  O   O3        1.0  0.54125  0.50839  0.16872  1.0000
  O   O4        1.0  0.51341  0.53041  0.13364  1.0000
  O   O5        1.0  0.51561  0.48195  0.15301  1.0000
  O   O6        1.0  0.48833  0.50324  0.12673  1.0000
  N   N4        1.0  0.53175  0.48798  0.34226  1.0000
  C   C58       1.0  0.51809  0.02696  0.33943  1.0000
  C   C59       1.0  0.51183  0.01626  0.25691  1.0000
  C   C60       1.0  0.50243  0.99522  0.25741  1.0000
  N   N5        1.0  0.51454  0.02576  0.17243  1.0000
  N   N6        1.0  0.49667  0.98389  0.17702  1.0000
  O   O7        1.0  0.50601  0.03574  0.16864  1.0000
  O   O8        1.0  0.48398  0.98588  0.13361  1.0000
  O   O9        1.0  0.53246  0.03654  0.15301  1.0000
  O   O10       1.0  0.51115  0.98796  0.12677  1.0000
  N   N7        1.0  0.52640  0.04665  0.34222  1.0000
  C   C61       1.0  0.26445  0.55071  0.35295  1.0000
  C   C62       1.0  0.27544  0.55574  0.27230  1.0000
  C   C63       1.0  0.29377  0.55655  0.26850  1.0000
  H   H48       1.0  0.30168  0.56091  0.20968  1.0000
  H   H49       1.0  0.27044  0.55951  0.21610  1.0000
  N   N8        1.0  0.24757  0.55114  0.35118  1.0000
  C   C64       1.0  0.46365  0.71663  0.35296  1.0000
  C   C65       1.0  0.45863  0.72259  0.27231  1.0000
  C   C66       1.0  0.45782  0.74011  0.26855  1.0000
  H   H50       1.0  0.45347  0.74367  0.20972  1.0000
  H   H51       1.0  0.45488  0.71384  0.21608  1.0000
  N   N9        1.0  0.46323  0.69931  0.35116  1.0000
  C   C67       1.0  0.29774  0.74991  0.35292  1.0000
  C   C68       1.0  0.29178  0.73892  0.27229  1.0000
  C   C69       1.0  0.27426  0.72059  0.26850  1.0000
  H   H52       1.0  0.27070  0.71268  0.20969  1.0000
  H   H53       1.0  0.30054  0.74391  0.21608  1.0000
  N   N10       1.0  0.31506  0.76679  0.35112  1.0000
  C   C70       1.0  0.75253  0.46065  0.35122  1.0000
  C   C71       1.0  0.74155  0.45558  0.27055  1.0000
  C   C72       1.0  0.72321  0.45475  0.26664  1.0000
  H   H54       1.0  0.71531  0.45037  0.20780  1.0000
  H   H55       1.0  0.74655  0.45180  0.21442  1.0000
  N   N11       1.0  0.76943  0.46024  0.34950  1.0000
  C   C73       1.0  0.55372  0.29475  0.35116  1.0000
  C   C74       1.0  0.55875  0.28882  0.27045  1.0000
  C   C75       1.0  0.55958  0.27131  0.26655  1.0000
  H   H56       1.0  0.56393  0.26776  0.20767  1.0000
  H   H57       1.0  0.56249  0.29758  0.21426  1.0000
  N   N12       1.0  0.55411  0.31205  0.34939  1.0000
  C   C76       1.0  0.71962  0.26183  0.35118  1.0000
  C   C77       1.0  0.72554  0.27281  0.27049  1.0000
  C   C78       1.0  0.74305  0.29114  0.26656  1.0000
  H   H58       1.0  0.74658  0.29904  0.20771  1.0000
  H   H59       1.0  0.71677  0.26780  0.21434  1.0000
  N   N13       1.0  0.70232  0.24494  0.34946  1.0000
  C   C79       1.0  0.18834  0.62614  0.32915  1.0000
  C   C80       1.0  0.19088  0.56592  0.37531  1.0000
  C   C81       1.0  0.21463  0.66799  0.33307  1.0000
  C   C82       1.0  0.19774  0.65897  0.38922  1.0000
  C   C83       1.0  0.18481  0.63836  0.38746  1.0000
  C   C84       1.0  0.11261  0.56640  0.37775  1.0000
  C   C85       1.0  0.09185  0.55445  0.37203  1.0000
  C   C86       1.0  0.22381  0.55979  0.39595  1.0000
  C   C87       1.0  0.21586  0.56476  0.47068  1.0000
  C   C88       1.0  0.19976  0.56792  0.46048  1.0000
  H   H60       1.0  0.19518  0.66725  0.43496  1.0000
  H   H61       1.0  0.17347  0.63223  0.43301  1.0000
  H   H62       1.0  0.11833  0.57891  0.41630  1.0000
  H   H63       1.0  0.08329  0.55884  0.40580  1.0000
  H   H64       1.0  0.22247  0.56730  0.53270  1.0000
  H   H65       1.0  0.19542  0.57296  0.51460  1.0000
  C   C89       1.0  0.17889  0.57456  0.36071  1.0000
  C   C90       1.0  0.15811  0.56347  0.35489  1.0000
  C   C91       1.0  0.14658  0.57270  0.34178  1.0000
  C   C92       1.0  0.15671  0.59365  0.33470  1.0000
  C   C93       1.0  0.17760  0.60511  0.33785  1.0000
  C   C94       1.0  0.18833  0.59524  0.35204  1.0000
  H   H66       1.0  0.15133  0.54847  0.36243  1.0000
  H   H67       1.0  0.20343  0.60330  0.35710  1.0000
  C   C95       1.0  0.24152  0.55978  0.40603  1.0000
  C   C96       1.0  0.22801  0.68809  0.33928  1.0000
  H   H68       1.0  0.25035  0.56754  0.45678  1.0000
  H   H69       1.0  0.22295  0.69742  0.34681  1.0000
  C   C97       1.0  0.38822  0.56510  0.32920  1.0000
  C   C98       1.0  0.44847  0.62784  0.37501  1.0000
  C   C99       1.0  0.34638  0.54953  0.33307  1.0000
  C   C100      1.0  0.35539  0.54164  0.38915  1.0000
  C   C101      1.0  0.37600  0.54933  0.38742  1.0000
  C   C102      1.0  0.44795  0.54907  0.37777  1.0000
  C   C103      1.0  0.45991  0.54027  0.37211  1.0000
  C   C104      1.0  0.45460  0.66691  0.39579  1.0000
  C   C105      1.0  0.44965  0.65399  0.47051  1.0000
  C   C106      1.0  0.44650  0.63474  0.46023  1.0000
  H   H70       1.0  0.34712  0.53082  0.43496  1.0000
  H   H71       1.0  0.38214  0.54414  0.43303  1.0000
  H   H72       1.0  0.43546  0.54231  0.41648  1.0000
  H   H73       1.0  0.45554  0.52734  0.40597  1.0000
  H   H74       1.0  0.44707  0.65803  0.53250  1.0000
  H   H75       1.0  0.44143  0.62535  0.51433  1.0000
  C   C107      1.0  0.43982  0.60721  0.36061  1.0000
  C   C108      1.0  0.45089  0.59751  0.35478  1.0000
  C   C109      1.0  0.44165  0.57674  0.34177  1.0000
  C   C110      1.0  0.42070  0.56593  0.33487  1.0000
  C   C111      1.0  0.40925  0.57537  0.33792  1.0000
  C   C112      1.0  0.41914  0.59599  0.35197  1.0000
  H   H76       1.0  0.46590  0.60572  0.36226  1.0000
  H   H77       1.0  0.41109  0.60303  0.35698  1.0000
  C   C113      1.0  0.45460  0.68463  0.40596  1.0000
  C   C114      1.0  0.32627  0.54281  0.33928  1.0000
  H   H78       1.0  0.44682  0.68567  0.45670  1.0000
  H   H79       1.0  0.31695  0.52842  0.34684  1.0000
  C   C115      1.0  0.44929  0.82603  0.32916  1.0000
  C   C116      1.0  0.38652  0.82349  0.37497  1.0000
  C   C117      1.0  0.46483  0.79973  0.33317  1.0000
  C   C118      1.0  0.47270  0.81661  0.38935  1.0000
  C   C119      1.0  0.46501  0.82954  0.38759  1.0000
  C   C120      1.0  0.46529  0.90176  0.37776  1.0000
  C   C121      1.0  0.47409  0.92252  0.37210  1.0000
  C   C122      1.0  0.34747  0.79056  0.39580  1.0000
  C   C123      1.0  0.36041  0.79849  0.47045  1.0000
  C   C124      1.0  0.37966  0.81459  0.46016  1.0000
  H   H80       1.0  0.48354  0.81918  0.43508  1.0000
  H   H81       1.0  0.47023  0.84089  0.43307  1.0000
  H   H82       1.0  0.47205  0.89604  0.41643  1.0000
  H   H83       1.0  0.48703  0.93108  0.40595  1.0000
  H   H84       1.0  0.35636  0.79188  0.53247  1.0000
  H   H85       1.0  0.38906  0.81893  0.51424  1.0000
  C   C125      1.0  0.40715  0.83548  0.36057  1.0000
  C   C126      1.0  0.41685  0.85626  0.35480  1.0000
  C   C127      1.0  0.43761  0.86779  0.34174  1.0000
  C   C128      1.0  0.44843  0.85766  0.33472  1.0000
  C   C129      1.0  0.43900  0.83677  0.33782  1.0000
  C   C130      1.0  0.41839  0.82604  0.35191  1.0000
  H   H86       1.0  0.40863  0.86305  0.36225  1.0000
  H   H87       1.0  0.41135  0.81094  0.35691  1.0000
  C   C131      1.0  0.32973  0.77285  0.40599  1.0000
  C   C132      1.0  0.47155  0.78635  0.33942  1.0000
  H   H88       1.0  0.32867  0.76404  0.45681  1.0000
  H   H89       1.0  0.48594  0.79140  0.34691  1.0000
  C   C133      1.0  0.82899  0.38562  0.32654  1.0000
  C   C134      1.0  0.82628  0.44573  0.37333  1.0000
  C   C135      1.0  0.80270  0.34377  0.33065  1.0000
  C   C136      1.0  0.81955  0.35280  0.38704  1.0000
  C   C137      1.0  0.83246  0.37342  0.38526  1.0000
  C   C138      1.0  0.90443  0.44500  0.38052  1.0000
  C   C139      1.0  0.92521  0.45703  0.37862  1.0000
  C   C140      1.0  0.79329  0.45173  0.39428  1.0000
  C   C141      1.0  0.80133  0.44687  0.46899  1.0000
  C   C142      1.0  0.81746  0.44377  0.45864  1.0000
  H   H90       1.0  0.82206  0.34456  0.43316  1.0000
  H   H91       1.0  0.84374  0.37957  0.43109  1.0000
  H   H92       1.0  0.89845  0.43218  0.41691  1.0000
  H   H93       1.0  0.93355  0.45245  0.41300  1.0000
  H   H94       1.0  0.79476  0.44435  0.53109  1.0000
  H   H95       1.0  0.82187  0.43878  0.51275  1.0000
  C   C143      1.0  0.83831  0.43714  0.35872  1.0000
  C   C144      1.0  0.85911  0.44825  0.35460  1.0000
  C   C145      1.0  0.87071  0.43907  0.34184  1.0000
  C   C146      1.0  0.86059  0.41813  0.33365  1.0000
  C   C147      1.0  0.83969  0.40665  0.33538  1.0000
  C   C148      1.0  0.82890  0.41649  0.34901  1.0000
  H   H96       1.0  0.86585  0.46321  0.36338  1.0000
  H   H97       1.0  0.81379  0.40842  0.35322  1.0000
  C   C149      1.0  0.77557  0.45173  0.40458  1.0000
  C   C150      1.0  0.78932  0.32366  0.33695  1.0000
  H   H98       1.0  0.76680  0.44402  0.45558  1.0000
  H   H99       1.0  0.79438  0.31434  0.34450  1.0000
  C   C151      1.0  0.62874  0.44621  0.32672  1.0000
  C   C152      1.0  0.56858  0.38341  0.37297  1.0000
  C   C153      1.0  0.67059  0.46179  0.33076  1.0000
  C   C154      1.0  0.66156  0.46959  0.38719  1.0000
  C   C155      1.0  0.64094  0.46191  0.38533  1.0000
  C   C156      1.0  0.56938  0.46232  0.38056  1.0000
  C   C157      1.0  0.55734  0.47107  0.37870  1.0000
  C   C158      1.0  0.56260  0.34441  0.39400  1.0000
  C   C159      1.0  0.56746  0.35733  0.46869  1.0000
  C   C160      1.0  0.57050  0.37654  0.45836  1.0000
  H   H100      1.0  0.66981  0.48038  0.43316  1.0000
  H   H101      1.0  0.63479  0.46704  0.43115  1.0000
  H   H102      1.0  0.58218  0.46914  0.41715  1.0000
  H   H103      1.0  0.56190  0.48396  0.41329  1.0000
  H   H104      1.0  0.56997  0.35328  0.53082  1.0000
  H   H105      1.0  0.57551  0.38594  0.51244  1.0000
  C   C161      1.0  0.57720  0.40404  0.35861  1.0000
  C   C162      1.0  0.56611  0.41375  0.35449  1.0000
  C   C163      1.0  0.57530  0.43453  0.34185  1.0000
  C   C164      1.0  0.59624  0.44533  0.33381  1.0000
  C   C165      1.0  0.60771  0.43590  0.33548  1.0000
  C   C166      1.0  0.59785  0.41526  0.34897  1.0000
  H   H106      1.0  0.55114  0.40553  0.36316  1.0000
  H   H107      1.0  0.60591  0.40822  0.35316  1.0000
  C   C167      1.0  0.56265  0.32672  0.40432  1.0000
  C   C168      1.0  0.69070  0.46851  0.33702  1.0000
  H   H108      1.0  0.57038  0.32569  0.45529  1.0000
  H   H109      1.0  0.70002  0.48290  0.34453  1.0000
  C   C169      1.0  0.56813  0.18538  0.32665  1.0000
  C   C170      1.0  0.63095  0.18807  0.37325  1.0000
  C   C171      1.0  0.55257  0.21167  0.33076  1.0000
  C   C172      1.0  0.54477  0.19483  0.38719  1.0000
  C   C173      1.0  0.55248  0.18192  0.38542  1.0000
  C   C174      1.0  0.55206  0.10994  0.38050  1.0000
  C   C175      1.0  0.54331  0.08916  0.37864  1.0000
  C   C176      1.0  0.66996  0.22107  0.39419  1.0000
  C   C177      1.0  0.65706  0.21301  0.46892  1.0000
  C   C178      1.0  0.63783  0.19687  0.45858  1.0000
  H   H110      1.0  0.53399  0.19231  0.43322  1.0000
  H   H111      1.0  0.54732  0.17062  0.43114  1.0000
  H   H112      1.0  0.54523  0.11592  0.41703  1.0000
  H   H113      1.0  0.53041  0.08083  0.41316  1.0000
  H   H114      1.0  0.66113  0.21954  0.53107  1.0000
  H   H115      1.0  0.62845  0.19244  0.51275  1.0000
  C   C179      1.0  0.61033  0.17605  0.35866  1.0000
  C   C180      1.0  0.60062  0.15525  0.35458  1.0000
  C   C181      1.0  0.57985  0.14366  0.34184  1.0000
  C   C182      1.0  0.56904  0.15378  0.33364  1.0000
  C   C183      1.0  0.57846  0.17468  0.33540  1.0000
  C   C184      1.0  0.59909  0.18546  0.34897  1.0000
  H   H116      1.0  0.60885  0.14851  0.36334  1.0000
  H   H117      1.0  0.60613  0.20057  0.35323  1.0000
  C   C185      1.0  0.68767  0.23880  0.40450  1.0000
  C   C186      1.0  0.54585  0.22506  0.33704  1.0000
  H   H118      1.0  0.68872  0.24756  0.45553  1.0000
  H   H119      1.0  0.53147  0.22000  0.34460  1.0000
  C   C187      1.0  0.02956  0.51691  0.34025  1.0000
  C   C188      1.0  0.01868  0.51250  0.42117  1.0000
  H   H120      1.0  0.02586  0.51738  0.48152  1.0000
  N   N14       1.0  0.04932  0.52798  0.34556  1.0000
  C   C189      1.0  0.49745  0.51552  0.34026  1.0000
  C   C190      1.0  0.50186  0.50905  0.42118  1.0000
  C   C191      1.0  0.51333  0.49978  0.42094  1.0000
  H   H121      1.0  0.51651  0.49553  0.48099  1.0000
  H   H122      1.0  0.49697  0.51135  0.48153  1.0000
  N   N15       1.0  0.48637  0.52420  0.34555  1.0000
  C   C192      1.0  0.49885  0.98481  0.34027  1.0000
  C   C193      1.0  0.50531  0.99569  0.42119  1.0000
  C   C194      1.0  0.51459  0.01643  0.42092  1.0000
  H   H123      1.0  0.51883  0.02386  0.48098  1.0000
  H   H124      1.0  0.50301  0.98851  0.48155  1.0000
  N   N16       1.0  0.49016  0.96505  0.34557  1.0000
  C   C195      1.0  0.30140  0.55184  0.34458  1.0000
  C   C196      1.0  0.29046  0.54656  0.42661  1.0000
  C   C197      1.0  0.27181  0.54570  0.43020  1.0000
  N   N17       1.0  0.29755  0.54262  0.50734  1.0000
  N   N18       1.0  0.25988  0.53977  0.50875  1.0000
  O   O11       1.0  0.31386  0.55686  0.53182  1.0000
  O   O12       1.0  0.26821  0.55114  0.57427  1.0000
  O   O13       1.0  0.29873  0.52723  0.50219  1.0000
  O   O14       1.0  0.25473  0.52237  0.53128  1.0000
  N   N19       1.0  0.31973  0.55498  0.33806  1.0000
  C   C198      1.0  0.46252  0.75245  0.34465  1.0000
  C   C199      1.0  0.46778  0.74677  0.42669  1.0000
  C   C200      1.0  0.46865  0.72898  0.43026  1.0000
  N   N20       1.0  0.47171  0.75780  0.50745  1.0000
  N   N21       1.0  0.47456  0.72297  0.50881  1.0000
  O   O15       1.0  0.45747  0.75986  0.53190  1.0000
  O   O16       1.0  0.46318  0.71993  0.57429  1.0000
  O   O17       1.0  0.48710  0.77436  0.50235  1.0000
  O   O18       1.0  0.49196  0.73522  0.53140  1.0000
  N   N22       1.0  0.45938  0.76763  0.33816  1.0000
  C   C201      1.0  0.26191  0.71296  0.34458  1.0000
  C   C202      1.0  0.26757  0.72390  0.42660  1.0000
  C   C203      1.0  0.28537  0.74255  0.43017  1.0000
  N   N23       1.0  0.25654  0.71682  0.50734  1.0000
  N   N24       1.0  0.29137  0.75449  0.50871  1.0000
  O   O19       1.0  0.25447  0.70051  0.53184  1.0000
  O   O20       1.0  0.29440  0.74616  0.57424  1.0000
  O   O21       1.0  0.23998  0.71564  0.50217  1.0000
  O   O22       1.0  0.27913  0.75965  0.53122  1.0000
  N   N25       1.0  0.24673  0.69464  0.33808  1.0000
  C   C204      1.0  0.71557  0.45948  0.34259  1.0000
  C   C205      1.0  0.72650  0.46480  0.42465  1.0000
  C   C206      1.0  0.74516  0.46568  0.42835  1.0000
  N   N26       1.0  0.71940  0.46877  0.50528  1.0000
  N   N27       1.0  0.75709  0.47165  0.50691  1.0000
  O   O23       1.0  0.70309  0.45454  0.52980  1.0000
  O   O24       1.0  0.74876  0.46031  0.57253  1.0000
  O   O25       1.0  0.71822  0.48415  0.49995  1.0000
  O   O26       1.0  0.76223  0.48906  0.52923  1.0000
  N   N28       1.0  0.69724  0.45634  0.33596  1.0000
  C   C207      1.0  0.55489  0.25895  0.34257  1.0000
  C   C208      1.0  0.54961  0.26460  0.42467  1.0000
  C   C209      1.0  0.54873  0.28237  0.42837  1.0000
  N   N29       1.0  0.54569  0.25355  0.50536  1.0000
  N   N30       1.0  0.54280  0.28835  0.50698  1.0000
  O   O27       1.0  0.55994  0.25149  0.52975  1.0000
  O   O28       1.0  0.55417  0.29139  0.57246  1.0000
  O   O29       1.0  0.53031  0.23698  0.50019  1.0000
  O   O30       1.0  0.52540  0.27609  0.52950  1.0000
  N   N31       1.0  0.55803  0.24377  0.33594  1.0000
  C   C210      1.0  0.75543  0.29880  0.34254  1.0000
  C   C211      1.0  0.74980  0.28788  0.42462  1.0000
  C   C212      1.0  0.73202  0.26922  0.42835  1.0000
  N   N32       1.0  0.76086  0.29499  0.50527  1.0000
  N   N33       1.0  0.72606  0.25730  0.50693  1.0000
  O   O31       1.0  0.76293  0.31130  0.52972  1.0000
  O   O32       1.0  0.72304  0.26564  0.57249  1.0000
  O   O33       1.0  0.77742  0.29617  0.50001  1.0000
  O   O34       1.0  0.73832  0.25216  0.52933  1.0000
  N   N34       1.0  0.77061  0.31713  0.33589  1.0000
  C   C213      1.0  0.95488  0.48824  0.33273  1.0000
  H   H125      1.0  0.95980  0.50253  0.32153  1.0000
  C   C214      1.0  0.98740  0.49400  0.33942  1.0000
  C   C215      1.0  0.99811  0.49844  0.25691  1.0000
  N   N35       1.0  0.98861  0.49164  0.17243  1.0000
  O   O35       1.0  0.97862  0.47313  0.16867  1.0000
  O   O36       1.0  0.97783  0.49878  0.15297  1.0000
  N   N36       1.0  0.96772  0.48263  0.34223  1.0000
  C   C216      1.0  0.99794  0.50104  0.42091  1.0000
  H   H126      1.0  0.99051  0.49786  0.48097  1.0000
