data_image0
_chemical_formula_structural       C13H9C13H9C13H9C13H9CNCHCNCHCNCHNC2HNC2HNC2HC17H12C17H12C17H12C17H12NC2HNC2HNC2HCNCHCNCHCNCH
_chemical_formula_sum              "C144 H96 N12"
_cell_length_a       56.9225
_cell_length_b       56.906
_cell_length_c       14.9836
_cell_angle_alpha    90
_cell_angle_beta     90
_cell_angle_gamma    120.005

_space_group_name_H-M_alt    "P 1"
_space_group_IT_number       1

loop_
  _space_group_symop_operation_xyz
  'x, y, z'

loop_
  _atom_site_type_symbol
  _atom_site_label
  _atom_site_symmetry_multiplicity
  _atom_site_fract_x
  _atom_site_fract_y
  _atom_site_fract_z
  _atom_site_occupancy
  C   C1        1.0  0.90959  0.83625  0.33262  1.0000
  C   C2        1.0  0.93526  0.89422  0.32917  1.0000
  C   C3        1.0  0.90675  0.87801  0.33521  1.0000
  C   C4        1.0  0.89417  0.84952  0.33726  1.0000
  C   C5        1.0  0.94726  0.92227  0.32537  1.0000
  C   C6        1.0  0.06565  0.02639  0.32423  1.0000
  C   C7        1.0  0.10961  0.02934  0.31960  1.0000
  C   C8        1.0  0.15181  0.07327  0.33322  1.0000
  C   C9        1.0  0.13812  0.04472  0.32228  1.0000
  C   C10       1.0  0.96177  0.03975  0.32455  1.0000
  C   C11       1.0  0.91765  0.03728  0.33840  1.0000
  C   C12       1.0  0.91489  0.07905  0.33264  1.0000
  C   C13       1.0  0.90231  0.05047  0.34041  1.0000
  H   H1        1.0  0.87353  0.83856  0.34362  1.0000
  H   H2        1.0  0.89488  0.88681  0.33899  1.0000
  H   H3        1.0  0.90775  0.01658  0.34352  1.0000
  H   H4        1.0  0.10053  0.00878  0.31095  1.0000
  H   H5        1.0  0.14880  0.03481  0.31396  1.0000
  H   H6        1.0  0.88178  0.03889  0.34892  1.0000
  H   H7        1.0  0.05782  0.01271  0.27549  1.0000
  H   H8        1.0  0.94016  0.92993  0.28005  1.0000
  H   H9        1.0  0.97555  0.04568  0.27610  1.0000
  C   C14       1.0  0.52116  0.36549  0.30764  1.0000
  C   C15       1.0  0.47611  0.31123  0.31866  1.0000
  C   C16       1.0  0.49469  0.31921  0.24705  1.0000
  C   C17       1.0  0.51675  0.34585  0.24160  1.0000
  C   C18       1.0  0.45637  0.28403  0.32726  1.0000
  C   C19       1.0  0.35330  0.18091  0.33971  1.0000
  C   C20       1.0  0.30969  0.17683  0.30640  1.0000
  C   C21       1.0  0.26689  0.13478  0.33890  1.0000
  C   C22       1.0  0.28115  0.16167  0.30538  1.0000
  C   C23       1.0  0.45828  0.17269  0.34345  1.0000
  C   C24       1.0  0.50365  0.18709  0.29343  1.0000
  C   C25       1.0  0.52446  0.15880  0.31827  1.0000
  C   C26       1.0  0.52583  0.18282  0.28569  1.0000
  H   H10       1.0  0.53026  0.35028  0.19057  1.0000
  H   H11       1.0  0.49305  0.30538  0.20016  1.0000
  H   H12       1.0  0.50558  0.20490  0.27014  1.0000
  H   H13       1.0  0.31913  0.19620  0.28171  1.0000
  H   H14       1.0  0.27093  0.17069  0.28005  1.0000
  H   H15       1.0  0.54331  0.19793  0.25802  1.0000
  H   H16       1.0  0.36198  0.19173  0.28497  1.0000
  H   H17       1.0  0.44683  0.27406  0.27207  1.0000
  H   H18       1.0  0.44625  0.16897  0.29083  1.0000
  C   C27       1.0  0.62261  0.15638  0.30808  1.0000
  C   C28       1.0  0.67690  0.16569  0.31845  1.0000
  C   C29       1.0  0.66882  0.17624  0.24694  1.0000
  C   C30       1.0  0.64216  0.17163  0.24186  1.0000
  C   C31       1.0  0.70413  0.17324  0.32670  1.0000
  C   C32       1.0  0.80730  0.17298  0.33884  1.0000
  C   C33       1.0  0.81143  0.13350  0.30493  1.0000
  C   C34       1.0  0.85340  0.13265  0.33801  1.0000
  C   C35       1.0  0.82659  0.12011  0.30391  1.0000
  C   C36       1.0  0.81567  0.28626  0.34326  1.0000
  C   C37       1.0  0.80138  0.31732  0.29297  1.0000
  C   C38       1.0  0.82942  0.36636  0.31991  1.0000
  C   C39       1.0  0.80559  0.34377  0.28593  1.0000
  H   H19       1.0  0.63767  0.18069  0.19094  1.0000
  H   H20       1.0  0.68259  0.18847  0.19998  1.0000
  H   H21       1.0  0.78370  0.30149  0.26878  1.0000
  H   H22       1.0  0.79212  0.12362  0.27981  1.0000
  H   H23       1.0  0.81761  0.10091  0.27813  1.0000
  H   H24       1.0  0.79057  0.34618  0.25774  1.0000
  H   H25       1.0  0.79657  0.17094  0.28395  1.0000
  H   H26       1.0  0.71408  0.17374  0.27139  1.0000
  H   H27       1.0  0.81912  0.27794  0.29012  1.0000
  C   C40       1.0  0.83180  0.46697  0.31152  1.0000
  C   C41       1.0  0.82258  0.51203  0.32185  1.0000
  C   C42       1.0  0.81242  0.49366  0.24954  1.0000
  C   C43       1.0  0.81701  0.47159  0.24445  1.0000
  C   C44       1.0  0.81508  0.53176  0.32972  1.0000
  C   C45       1.0  0.82110  0.63539  0.34195  1.0000
  C   C46       1.0  0.85990  0.67959  0.37327  1.0000
  C   C47       1.0  0.85869  0.72130  0.33886  1.0000
  C   C48       1.0  0.87236  0.70808  0.37245  1.0000
  C   C49       1.0  0.70188  0.52993  0.33925  1.0000
  C   C50       1.0  0.67084  0.48445  0.29037  1.0000
  C   C51       1.0  0.62179  0.46363  0.31615  1.0000
  C   C52       1.0  0.64440  0.46223  0.28336  1.0000
  H   H28       1.0  0.80823  0.45824  0.19284  1.0000
  H   H29       1.0  0.80051  0.49543  0.20184  1.0000
  H   H30       1.0  0.68669  0.48249  0.26698  1.0000
  H   H31       1.0  0.87050  0.67080  0.39759  1.0000
  H   H32       1.0  0.89180  0.71904  0.39583  1.0000
  H   H33       1.0  0.64199  0.44469  0.25604  1.0000
  H   H34       1.0  0.82852  0.62716  0.30009  1.0000
  H   H35       1.0  0.81506  0.54145  0.27436  1.0000
  H   H36       1.0  0.71030  0.54149  0.28573  1.0000
  C   C53       1.0  0.19546  0.11428  0.29189  1.0000
  N   N1        1.0  0.22296  0.12841  0.29430  1.0000
  C   C54       1.0  0.23794  0.11939  0.33780  1.0000
  H   H37       1.0  0.18574  0.12223  0.25640  1.0000
  C   C55       1.0  0.87398  0.08178  0.29062  1.0000
  N   N2        1.0  0.85985  0.09517  0.29299  1.0000
  C   C56       1.0  0.86878  0.11909  0.33693  1.0000
  H   H38       1.0  0.86609  0.06418  0.25481  1.0000
  C   C57       1.0  0.87217  0.79049  0.28858  1.0000
  N   N3        1.0  0.86058  0.76308  0.29135  1.0000
  C   C58       1.0  0.87147  0.75020  0.33737  1.0000
  H   H39       1.0  0.86295  0.79858  0.25121  1.0000
  N   N4        1.0  0.58811  0.16304  0.23668  1.0000
  C   C59       1.0  0.56459  0.16358  0.23643  1.0000
  C   C60       1.0  0.54764  0.15538  0.31258  1.0000
  H   H40       1.0  0.55982  0.17064  0.18060  1.0000
  N   N5        1.0  0.82539  0.42600  0.23929  1.0000
  C   C61       1.0  0.82486  0.40193  0.23861  1.0000
  C   C62       1.0  0.83276  0.39294  0.31488  1.0000
  H   H41       1.0  0.81802  0.39028  0.18234  1.0000
  N   N6        1.0  0.56228  0.39987  0.23570  1.0000
  C   C63       1.0  0.58635  0.42338  0.23506  1.0000
  C   C64       1.0  0.59520  0.44042  0.31099  1.0000
  H   H42       1.0  0.59812  0.42806  0.17912  1.0000
  C   C65       1.0  0.93816  0.85267  0.32582  1.0000
  C   C66       1.0  0.95081  0.88117  0.32381  1.0000
  C   C67       1.0  0.96706  0.93921  0.38109  1.0000
  C   C68       1.0  0.97910  0.96731  0.37796  1.0000
  C   C69       1.0  0.96343  0.98032  0.37927  1.0000
  C   C70       1.0  0.97589  0.00892  0.37923  1.0000
  C   C71       1.0  0.00454  0.02461  0.38004  1.0000
  C   C72       1.0  0.02067  0.01215  0.37894  1.0000
  C   C73       1.0  0.00770  0.98349  0.37875  1.0000
  C   C74       1.0  0.04873  0.02807  0.38325  1.0000
  C   C75       1.0  0.09377  0.04197  0.32884  1.0000
  C   C76       1.0  0.10729  0.07048  0.33916  1.0000
  C   C77       1.0  0.13581  0.08582  0.34145  1.0000
  C   C78       1.0  0.95998  0.02107  0.38343  1.0000
  C   C79       1.0  0.94619  0.05229  0.32887  1.0000
  C   C80       1.0  0.95883  0.08078  0.32004  1.0000
  C   C81       1.0  0.94345  0.09392  0.32239  1.0000
  H   H43       1.0  0.95010  0.84403  0.32013  1.0000
  H   H44       1.0  0.97146  0.89229  0.31745  1.0000
  H   H45       1.0  0.01925  0.97429  0.38008  1.0000
  H   H46       1.0  0.94268  0.96880  0.38106  1.0000
  H   H47       1.0  0.01376  0.04536  0.38228  1.0000
  H   H48       1.0  0.14475  0.10634  0.35052  1.0000
  H   H49       1.0  0.09649  0.08038  0.34462  1.0000
  H   H50       1.0  0.95338  0.11453  0.31447  1.0000
  H   H51       1.0  0.97941  0.09228  0.31194  1.0000
  H   H52       1.0  0.05642  0.04161  0.43239  1.0000
  H   H53       1.0  0.97406  0.93144  0.42639  1.0000
  H   H54       1.0  0.94633  0.01513  0.43227  1.0000
  C   C82       1.0  0.50181  0.35763  0.37729  1.0000
  C   C83       1.0  0.47960  0.33101  0.38258  1.0000
  C   C84       1.0  0.45351  0.26978  0.40213  1.0000
  C   C85       1.0  0.43952  0.24170  0.40361  1.0000
  C   C86       1.0  0.45452  0.22811  0.40810  1.0000
  C   C87       1.0  0.44140  0.19949  0.41025  1.0000
  C   C88       1.0  0.41276  0.18439  0.40952  1.0000
  C   C89       1.0  0.39735  0.19763  0.40531  1.0000
  C   C90       1.0  0.41089  0.22633  0.40245  1.0000
  C   C91       1.0  0.36930  0.18244  0.40817  1.0000
  C   C92       1.0  0.32509  0.16570  0.34125  1.0000
  C   C93       1.0  0.31102  0.13874  0.37361  1.0000
  C   C94       1.0  0.28248  0.12368  0.37300  1.0000
  C   C95       1.0  0.45721  0.18728  0.41227  1.0000
  C   C96       1.0  0.47941  0.16746  0.33463  1.0000
  C   C97       1.0  0.47766  0.14336  0.36713  1.0000
  C   C98       1.0  0.49999  0.13917  0.35927  1.0000
  H   H55       1.0  0.50405  0.37101  0.42664  1.0000
  H   H56       1.0  0.46655  0.32593  0.43544  1.0000
  H   H57       1.0  0.39989  0.23610  0.40072  1.0000
  H   H58       1.0  0.47533  0.23921  0.40851  1.0000
  H   H59       1.0  0.40311  0.16361  0.41200  1.0000
  H   H60       1.0  0.27327  0.10425  0.39690  1.0000
  H   H61       1.0  0.32142  0.12970  0.39737  1.0000
  H   H62       1.0  0.49810  0.12148  0.38328  1.0000
  H   H63       1.0  0.46031  0.12887  0.39742  1.0000
  H   H64       1.0  0.36099  0.17189  0.46359  1.0000
  H   H65       1.0  0.46510  0.27914  0.45483  1.0000
  H   H66       1.0  0.47113  0.19313  0.46034  1.0000
  C   C99       1.0  0.63058  0.14495  0.37760  1.0000
  C   C100      1.0  0.65721  0.14941  0.38260  1.0000
  C   C101      1.0  0.71842  0.18438  0.40169  1.0000
  C   C102      1.0  0.74650  0.19843  0.40300  1.0000
  C   C103      1.0  0.76013  0.22703  0.40754  1.0000
  C   C104      1.0  0.78873  0.24249  0.40961  1.0000
  C   C105      1.0  0.80380  0.22891  0.40879  1.0000
  C   C106      1.0  0.79052  0.20025  0.40457  1.0000
  C   C107      1.0  0.76183  0.18513  0.40171  1.0000
  C   C108      1.0  0.80567  0.18735  0.40747  1.0000
  C   C109      1.0  0.82249  0.15996  0.34037  1.0000
  C   C110      1.0  0.84938  0.17277  0.37333  1.0000
  C   C111      1.0  0.86443  0.15929  0.37269  1.0000
  C   C112      1.0  0.80098  0.27052  0.41178  1.0000
  C   C113      1.0  0.82085  0.31263  0.33495  1.0000
  C   C114      1.0  0.84476  0.33492  0.36884  1.0000
  C   C115      1.0  0.84890  0.36143  0.36158  1.0000
  H   H67       1.0  0.61725  0.13377  0.42702  1.0000
  H   H68       1.0  0.66236  0.14144  0.43528  1.0000
  H   H69       1.0  0.75203  0.16436  0.40003  1.0000
  H   H70       1.0  0.74905  0.23678  0.40805  1.0000
  H   H71       1.0  0.82456  0.24000  0.41128  1.0000
  H   H72       1.0  0.88380  0.16944  0.39707  1.0000
  H   H73       1.0  0.85837  0.19217  0.39755  1.0000
  H   H74       1.0  0.86645  0.37718  0.38657  1.0000
  H   H75       1.0  0.85915  0.33201  0.39966  1.0000
  H   H76       1.0  0.81611  0.18948  0.46303  1.0000
  H   H77       1.0  0.70912  0.18650  0.45474  1.0000
  H   H78       1.0  0.79533  0.27862  0.46033  1.0000
  C   C116      1.0  0.84283  0.48610  0.38197  1.0000
  C   C117      1.0  0.83841  0.50831  0.38696  1.0000
  C   C118      1.0  0.80340  0.53468  0.40373  1.0000
  C   C119      1.0  0.78946  0.54882  0.40393  1.0000
  C   C120      1.0  0.76087  0.53396  0.40837  1.0000
  C   C121      1.0  0.74549  0.54717  0.40715  1.0000
  C   C122      1.0  0.75914  0.57580  0.40255  1.0000
  C   C123      1.0  0.78782  0.59123  0.39842  1.0000
  C   C124      1.0  0.80279  0.57744  0.39962  1.0000
  C   C125      1.0  0.80053  0.61943  0.39685  1.0000
  C   C126      1.0  0.83313  0.66338  0.34175  1.0000
  C   C127      1.0  0.81925  0.67625  0.30805  1.0000
  C   C128      1.0  0.83190  0.70475  0.30650  1.0000
  C   C129      1.0  0.71745  0.53145  0.40893  1.0000
  C   C130      1.0  0.67551  0.50878  0.33108  1.0000
  C   C131      1.0  0.65321  0.51055  0.36394  1.0000
  C   C132      1.0  0.62669  0.48818  0.35674  1.0000
  H   H79       1.0  0.85365  0.48370  0.43209  1.0000
  H   H80       1.0  0.84604  0.52119  0.44035  1.0000
  H   H81       1.0  0.82356  0.58825  0.39822  1.0000
  H   H82       1.0  0.75108  0.51315  0.41085  1.0000
  H   H83       1.0  0.74800  0.58544  0.40198  1.0000
  H   H84       1.0  0.82109  0.71324  0.28185  1.0000
  H   H85       1.0  0.79990  0.66500  0.28401  1.0000
  H   H86       1.0  0.61093  0.49010  0.38088  1.0000
  H   H87       1.0  0.65611  0.52797  0.39389  1.0000
  H   H88       1.0  0.79330  0.62812  0.43771  1.0000
  H   H89       1.0  0.80092  0.52309  0.45669  1.0000
  H   H90       1.0  0.70927  0.51796  0.45819  1.0000
  N   N7        1.0  0.22412  0.09501  0.38002  1.0000
  C   C133      1.0  0.19666  0.07979  0.37996  1.0000
  C   C134      1.0  0.18079  0.08886  0.33511  1.0000
  H   H91       1.0  0.18784  0.06189  0.41434  1.0000
  N   N8        1.0  0.89307  0.12956  0.37965  1.0000
  C   C135      1.0  0.90828  0.11732  0.37966  1.0000
  C   C136      1.0  0.89930  0.09245  0.33437  1.0000
  H   H92       1.0  0.92610  0.12632  0.41445  1.0000
  N   N9        1.0  0.89510  0.76606  0.38179  1.0000
  C   C137      1.0  0.90781  0.79356  0.38158  1.0000
  C   C138      1.0  0.89675  0.80728  0.33424  1.0000
  H   H93       1.0  0.92525  0.80397  0.41782  1.0000
  C   C139      1.0  0.55627  0.14561  0.38495  1.0000
  N   N10       1.0  0.58015  0.14571  0.38082  1.0000
  C   C140      1.0  0.59655  0.15429  0.30769  1.0000
  H   H94       1.0  0.54565  0.13987  0.44346  1.0000
  C   C141      1.0  0.84225  0.41113  0.38787  1.0000
  N   N11       1.0  0.84215  0.43493  0.38413  1.0000
  C   C142      1.0  0.83386  0.44298  0.31087  1.0000
  H   H95       1.0  0.84777  0.40607  0.44647  1.0000
  C   C143      1.0  0.57685  0.43192  0.38352  1.0000
  N   N12       1.0  0.55306  0.40804  0.37976  1.0000
  C   C144      1.0  0.54515  0.39154  0.30688  1.0000
  H   H96       1.0  0.58181  0.44264  0.44186  1.0000
