data_image0
_chemical_formula_structural       C16H16C2NOCH3CHC2NOCH3CHC3NC3NC5NC5NC36H26N4C2NHCHC2NHCH
_chemical_formula_sum              "C82 H54 N12 O2"
_cell_length_a       34.267
_cell_length_b       34.265
_cell_length_c       14.7084
_cell_angle_alpha    90
_cell_angle_beta     90
_cell_angle_gamma    89.934

_space_group_name_H-M_alt    "P 1"
_space_group_IT_number       1

loop_
  _space_group_symop_operation_xyz
  'x, y, z'

loop_
  _atom_site_type_symbol
  _atom_site_label
  _atom_site_symmetry_multiplicity
  _atom_site_fract_x
  _atom_site_fract_y
  _atom_site_fract_z
  _atom_site_occupancy
  C   C1        1.0  0.17885  0.00954  0.28688  1.0000
  C   C2        1.0  0.21997  0.00981  0.28531  1.0000
  C   C3        1.0  0.34618  0.03311  0.29830  1.0000
  C   C4        1.0  0.30506  0.03291  0.30062  1.0000
  C   C5        1.0  0.01245  0.17506  0.29321  1.0000
  C   C6        1.0  0.01245  0.21619  0.29409  1.0000
  C   C7        1.0  0.98990  0.30115  0.31850  1.0000
  C   C8        1.0  0.98961  0.34228  0.31930  1.0000
  C   C9        1.0  0.80716  0.00849  0.29414  1.0000
  C   C10       1.0  0.84828  0.00803  0.29320  1.0000
  C   C11       1.0  0.72209  0.98662  0.31864  1.0000
  C   C12       1.0  0.68096  0.98658  0.31964  1.0000
  C   C13       1.0  0.01421  0.84455  0.28665  1.0000
  C   C14       1.0  0.01438  0.80342  0.28497  1.0000
  C   C15       1.0  0.03660  0.67695  0.29767  1.0000
  C   C16       1.0  0.03676  0.71808  0.30019  1.0000
  H   H1        1.0  0.05331  0.66294  0.25005  1.0000
  H   H2        1.0  0.05420  0.73254  0.25492  1.0000
  H   H3        1.0  0.01406  0.78988  0.22299  1.0000
  H   H4        1.0  0.01436  0.85954  0.22645  1.0000
  H   H5        1.0  0.86255  0.00652  0.23215  1.0000
  H   H6        1.0  0.79284  0.00785  0.23312  1.0000
  H   H7        1.0  0.01112  0.16075  0.23218  1.0000
  H   H8        1.0  0.01163  0.23048  0.23305  1.0000
  H   H9        1.0  0.97079  0.35661  0.27692  1.0000
  H   H10       1.0  0.97107  0.28714  0.27554  1.0000
  H   H11       1.0  0.29045  0.05013  0.25508  1.0000
  H   H12       1.0  0.36005  0.04983  0.25053  1.0000
  H   H13       1.0  0.23355  0.00949  0.22338  1.0000
  H   H14       1.0  0.16389  0.00968  0.22663  1.0000
  H   H15       1.0  0.73599  0.96772  0.27558  1.0000
  H   H16       1.0  0.66653  0.96786  0.27729  1.0000
  C   C17       1.0  0.99931  0.53464  0.29811  1.0000
  C   C18       1.0  0.00772  0.46867  0.34796  1.0000
  N   N1        1.0  0.99836  0.49544  0.28333  1.0000
  O   O1        1.0  0.98712  0.55868  0.22936  1.0000
  C   C19       1.0  0.01486  0.56214  0.15645  1.0000
  H   H17       1.0  0.04278  0.57355  0.18062  1.0000
  H   H18       1.0  0.00313  0.58255  0.10660  1.0000
  H   H19       1.0  0.01957  0.53414  0.12255  1.0000
  C   C20       1.0  0.00542  0.42931  0.32749  1.0000
  H   H20       1.0  0.99643  0.42178  0.26566  1.0000
  C   C21       1.0  0.48873  0.99767  0.29836  1.0000
  C   C22       1.0  0.55472  0.00542  0.34853  1.0000
  N   N2        1.0  0.52793  0.99681  0.28344  1.0000
  O   O2        1.0  0.46471  0.98631  0.22887  1.0000
  C   C23       1.0  0.46086  0.01512  0.15832  1.0000
  H   H21       1.0  0.44916  0.04254  0.18485  1.0000
  H   H22       1.0  0.44052  0.00397  0.10764  1.0000
  H   H23       1.0  0.48876  0.02061  0.12469  1.0000
  C   C24       1.0  0.59407  0.00318  0.32790  1.0000
  H   H24       1.0  0.60158  0.99466  0.26568  1.0000
  C   C25       1.0  0.08640  0.90801  0.37088  1.0000
  C   C26       1.0  0.11497  0.93643  0.37090  1.0000
  C   C27       1.0  0.09678  0.97295  0.37188  1.0000
  N   N3        1.0  0.05792  0.96521  0.37257  1.0000
  C   C28       1.0  0.04997  0.92640  0.37177  1.0000
  C   C29       1.0  0.01335  0.90670  0.37177  1.0000
  C   C30       1.0  0.97642  0.92568  0.37258  1.0000
  N   N4        1.0  0.96890  0.96447  0.37315  1.0000
  C   C31       1.0  0.93017  0.97221  0.37372  1.0000
  C   C32       1.0  0.91160  0.93594  0.37364  1.0000
  C   C33       1.0  0.94004  0.90733  0.37280  1.0000
  C   C34       1.0  0.91140  0.00925  0.37444  1.0000
  C   C35       1.0  0.93131  0.04575  0.37463  1.0000
  N   N5        1.0  0.97016  0.05348  0.37421  1.0000
  C   C36       1.0  0.97811  0.09229  0.37460  1.0000
  C   C37       1.0  0.94169  0.11070  0.37529  1.0000
  C   C38       1.0  0.91312  0.08229  0.37516  1.0000
  C   C39       1.0  0.01473  0.11198  0.37453  1.0000
  C   C40       1.0  0.05165  0.09299  0.37391  1.0000
  N   N6        1.0  0.05916  0.05421  0.37351  1.0000
  C   C41       1.0  0.09789  0.04649  0.37267  1.0000
  C   C42       1.0  0.11646  0.08276  0.37253  1.0000
  C   C43       1.0  0.08802  0.11136  0.37327  1.0000
  C   C44       1.0  0.11667  0.00945  0.37187  1.0000
  C   C45       1.0  0.15842  0.00905  0.37023  1.0000
  C   C46       1.0  0.24221  0.00968  0.36668  1.0000
  C   C47       1.0  0.22126  0.00908  0.44988  1.0000
  C   C48       1.0  0.18013  0.00881  0.45181  1.0000
  C   C49       1.0  0.28421  0.01019  0.36491  1.0000
  C   C50       1.0  0.30659  0.98772  0.42693  1.0000
  C   C51       1.0  0.34773  0.98804  0.42503  1.0000
  C   C52       1.0  0.36818  0.01106  0.36105  1.0000
  C   C53       1.0  0.01452  0.15373  0.37521  1.0000
  C   C54       1.0  0.01458  0.23749  0.37664  1.0000
  C   C55       1.0  0.01666  0.21567  0.45846  1.0000
  C   C56       1.0  0.01662  0.17454  0.45792  1.0000
  C   C57       1.0  0.01449  0.27947  0.37735  1.0000
  C   C58       1.0  0.01414  0.36346  0.37886  1.0000
  C   C59       1.0  0.03835  0.34211  0.43846  1.0000
  C   C60       1.0  0.03868  0.30096  0.43741  1.0000
  C   C61       1.0  0.86966  0.00975  0.37518  1.0000
  C   C62       1.0  0.84889  0.01205  0.45793  1.0000
  C   C63       1.0  0.80776  0.01260  0.45853  1.0000
  C   C64       1.0  0.78589  0.01078  0.37674  1.0000
  C   C65       1.0  0.74392  0.01102  0.37753  1.0000
  C   C66       1.0  0.65993  0.01117  0.37944  1.0000
  C   C67       1.0  0.68142  0.03521  0.43903  1.0000
  C   C68       1.0  0.72257  0.03530  0.43779  1.0000
  C   C69       1.0  0.01358  0.86494  0.37006  1.0000
  C   C70       1.0  0.01309  0.84318  0.45156  1.0000
  C   C71       1.0  0.01393  0.78113  0.36626  1.0000
  C   C72       1.0  0.01325  0.80205  0.44952  1.0000
  C   C73       1.0  0.01409  0.73913  0.36434  1.0000
  C   C74       1.0  0.99129  0.71693  0.42596  1.0000
  C   C75       1.0  0.99126  0.67579  0.42389  1.0000
  C   C76       1.0  0.01424  0.65514  0.36007  1.0000
  H   H25       1.0  0.97366  0.66106  0.46826  1.0000
  H   H26       1.0  0.97349  0.73057  0.47193  1.0000
  H   H27       1.0  0.01364  0.78747  0.51020  1.0000
  H   H28       1.0  0.01276  0.85716  0.51306  1.0000
  H   H29       1.0  0.09186  0.87868  0.37012  1.0000
  H   H30       1.0  0.14427  0.93081  0.37015  1.0000
  H   H31       1.0  0.03815  0.98509  0.37326  1.0000
  H   H32       1.0  0.98993  0.03359  0.37374  1.0000
  H   H33       1.0  0.93460  0.87801  0.37255  1.0000
  H   H34       1.0  0.88225  0.93067  0.37408  1.0000
  H   H35       1.0  0.86360  0.01318  0.51844  1.0000
  H   H36       1.0  0.79389  0.01349  0.52008  1.0000
  H   H37       1.0  0.88383  0.08793  0.37547  1.0000
  H   H38       1.0  0.93623  0.14003  0.37578  1.0000
  H   H39       1.0  0.14580  0.08804  0.37186  1.0000
  H   H40       1.0  0.09346  0.14068  0.37311  1.0000
  H   H41       1.0  0.01802  0.15985  0.51845  1.0000
  H   H42       1.0  0.01750  0.22956  0.51998  1.0000
  H   H43       1.0  0.05740  0.28682  0.48046  1.0000
  H   H44       1.0  0.05632  0.35647  0.48286  1.0000
  H   H45       1.0  0.16612  0.00875  0.51327  1.0000
  H   H46       1.0  0.23580  0.00976  0.51061  1.0000
  H   H47       1.0  0.36261  0.97069  0.46973  1.0000
  H   H48       1.0  0.29311  0.96993  0.47308  1.0000
  H   H49       1.0  0.73682  0.05387  0.48091  1.0000
  H   H50       1.0  0.66716  0.05320  0.48363  1.0000
  N   N7        1.0  0.40702  0.01155  0.35308  1.0000
  N   N8        1.0  0.01446  0.61629  0.35204  1.0000
  N   N9        1.0  0.62098  0.01188  0.38558  1.0000
  N   N10       1.0  0.01470  0.40243  0.38479  1.0000
  C   C77       1.0  0.00911  0.54920  0.38548  1.0000
  C   C78       1.0  0.01867  0.52078  0.45180  1.0000
  N   N11       1.0  0.01774  0.48208  0.43176  1.0000
  H   H51       1.0  0.02596  0.52880  0.51659  1.0000
  C   C79       1.0  0.00765  0.58861  0.40909  1.0000
  H   H52       1.0  0.00172  0.59548  0.47334  1.0000
  C   C80       1.0  0.47420  0.00654  0.38632  1.0000
  C   C81       1.0  0.50265  0.01536  0.45309  1.0000
  N   N12       1.0  0.54134  0.01456  0.43291  1.0000
  H   H53       1.0  0.49466  0.02197  0.51831  1.0000
  C   C82       1.0  0.43480  0.00487  0.41002  1.0000
  H   H54       1.0  0.42799  0.99878  0.47420  1.0000
