data_image0
_chemical_formula_structural       C3HCH3C3HCH3C3HCH3C3HCH3C3HCH3C3HCH3C3HCH3C3HCH3C3HCH3NC18H12NC18H12NC18H12NC18H12NC18H12NC18H12C3HCH3C3HCH3C3HCH3C3HCH3C3HCH3C3HCH3C3HCH3C3HCH3C3HCH3
_chemical_formula_sum              "C180 H144 N6"
_cell_length_a       52.7571
_cell_length_b       52.7571
_cell_length_c       14.9211
_cell_angle_alpha    90
_cell_angle_beta     90
_cell_angle_gamma    120

_space_group_name_H-M_alt    "P 1"
_space_group_IT_number       1

loop_
  _space_group_symop_operation_xyz
  'x, y, z'

loop_
  _atom_site_type_symbol
  _atom_site_label
  _atom_site_symmetry_multiplicity
  _atom_site_fract_x
  _atom_site_fract_y
  _atom_site_fract_z
  _atom_site_occupancy
  C   C1        1.0  0.97205  0.48887  0.33327  1.0000
  C   C2        1.0  0.98937  0.49899  0.25371  1.0000
  C   C3        1.0  0.02022  0.51200  0.25969  1.0000
  H   H1        1.0  0.03173  0.51683  0.20094  1.0000
  C   C4        1.0  0.97748  0.49885  0.16285  1.0000
  H   H2        1.0  0.95596  0.49696  0.16552  1.0000
  H   H3        1.0  0.97618  0.48081  0.12342  1.0000
  H   H4        1.0  0.99165  0.51931  0.12759  1.0000
  C   C5        1.0  0.51774  0.48450  0.33331  1.0000
  C   C6        1.0  0.50762  0.49170  0.25375  1.0000
  C   C7        1.0  0.49460  0.50954  0.25973  1.0000
  H   H5        1.0  0.48977  0.51621  0.20098  1.0000
  C   C8        1.0  0.50776  0.47996  0.16289  1.0000
  H   H6        1.0  0.50965  0.46033  0.16556  1.0000
  H   H7        1.0  0.52580  0.49669  0.12345  1.0000
  H   H8        1.0  0.48730  0.47367  0.12762  1.0000
  C   C9        1.0  0.52208  0.03455  0.33328  1.0000
  C   C10       1.0  0.51488  0.01723  0.25371  1.0000
  C   C11       1.0  0.49705  0.98638  0.25967  1.0000
  H   H9        1.0  0.49037  0.97487  0.20091  1.0000
  C   C12       1.0  0.52662  0.02913  0.16285  1.0000
  H   H10       1.0  0.54625  0.05064  0.16553  1.0000
  H   H11       1.0  0.50989  0.03045  0.12345  1.0000
  H   H12       1.0  0.53289  0.01495  0.12753  1.0000
  C   C13       1.0  0.25151  0.54976  0.32517  1.0000
  C   C14       1.0  0.26754  0.54747  0.25184  1.0000
  C   C15       1.0  0.29507  0.54980  0.26815  1.0000
  H   H13       1.0  0.30711  0.55021  0.21375  1.0000
  C   C16       1.0  0.25679  0.54166  0.15751  1.0000
  H   H14       1.0  0.23375  0.53518  0.15152  1.0000
  H   H15       1.0  0.25905  0.52374  0.12968  1.0000
  H   H16       1.0  0.26970  0.56119  0.11685  1.0000
  C   C17       1.0  0.45684  0.70307  0.32511  1.0000
  C   C18       1.0  0.45913  0.72138  0.25174  1.0000
  C   C19       1.0  0.45680  0.74658  0.26802  1.0000
  H   H17       1.0  0.45638  0.75821  0.21360  1.0000
  C   C20       1.0  0.46491  0.71642  0.15742  1.0000
  H   H18       1.0  0.47140  0.69987  0.15146  1.0000
  H   H19       1.0  0.48282  0.73659  0.12953  1.0000
  H   H20       1.0  0.44537  0.70978  0.11679  1.0000
  C   C21       1.0  0.30354  0.75508  0.32510  1.0000
  C   C22       1.0  0.28521  0.73904  0.25178  1.0000
  C   C23       1.0  0.26001  0.71152  0.26810  1.0000
  H   H21       1.0  0.24837  0.69947  0.21371  1.0000
  C   C24       1.0  0.29015  0.74979  0.15745  1.0000
  H   H22       1.0  0.30671  0.77283  0.15147  1.0000
  H   H23       1.0  0.26997  0.74755  0.12965  1.0000
  H   H24       1.0  0.29676  0.73689  0.11678  1.0000
  C   C25       1.0  0.75713  0.45535  0.32398  1.0000
  C   C26       1.0  0.74110  0.45757  0.25052  1.0000
  C   C27       1.0  0.71379  0.45574  0.26685  1.0000
  H   H25       1.0  0.70171  0.45524  0.21245  1.0000
  C   C28       1.0  0.75164  0.46279  0.15596  1.0000
  H   H26       1.0  0.77458  0.46893  0.14975  1.0000
  H   H27       1.0  0.74962  0.48075  0.12727  1.0000
  H   H28       1.0  0.73844  0.44311  0.11618  1.0000
  C   C29       1.0  0.55132  0.30312  0.32402  1.0000
  C   C30       1.0  0.54911  0.28488  0.25055  1.0000
  C   C31       1.0  0.55094  0.25940  0.26689  1.0000
  H   H29       1.0  0.55145  0.24782  0.21249  1.0000
  C   C32       1.0  0.54391  0.29021  0.15598  1.0000
  H   H30       1.0  0.53777  0.30701  0.14977  1.0000
  H   H31       1.0  0.52596  0.27024  0.12727  1.0000
  H   H32       1.0  0.56359  0.29669  0.11624  1.0000
  C   C33       1.0  0.70347  0.24950  0.32402  1.0000
  C   C34       1.0  0.72172  0.26552  0.25052  1.0000
  C   C35       1.0  0.74720  0.29283  0.26682  1.0000
  H   H33       1.0  0.75878  0.30491  0.21240  1.0000
  C   C36       1.0  0.71638  0.25498  0.15597  1.0000
  H   H34       1.0  0.69958  0.23203  0.14979  1.0000
  H   H35       1.0  0.73635  0.25699  0.12726  1.0000
  H   H36       1.0  0.70990  0.26817  0.11621  1.0000
  N   N1        1.0  0.16245  0.57978  0.33905  1.0000
  C   C37       1.0  0.17949  0.61053  0.35925  1.0000
  C   C38       1.0  0.13106  0.56423  0.33865  1.0000
  C   C39       1.0  0.17908  0.56572  0.31870  1.0000
  C   C40       1.0  0.20127  0.57785  0.25260  1.0000
  C   C41       1.0  0.22470  0.57219  0.25361  1.0000
  C   C42       1.0  0.22564  0.55224  0.31533  1.0000
  C   C43       1.0  0.20164  0.53777  0.37482  1.0000
  C   C44       1.0  0.17934  0.54499  0.37814  1.0000
  C   C45       1.0  0.17850  0.63180  0.30405  1.0000
  C   C46       1.0  0.20028  0.66151  0.30854  1.0000
  C   C47       1.0  0.22518  0.67112  0.36429  1.0000
  C   C48       1.0  0.22571  0.64988  0.42124  1.0000
  C   C49       1.0  0.20273  0.62057  0.42181  1.0000
  C   C50       1.0  0.11516  0.56845  0.26982  1.0000
  C   C51       1.0  0.08439  0.55484  0.27267  1.0000
  C   C52       1.0  0.06759  0.53440  0.34058  1.0000
  C   C53       1.0  0.08374  0.52844  0.40493  1.0000
  C   C54       1.0  0.11461  0.54401  0.40668  1.0000
  H   H37       1.0  0.19881  0.67577  0.26530  1.0000
  H   H38       1.0  0.16297  0.62582  0.25569  1.0000
  H   H39       1.0  0.20507  0.60581  0.46025  1.0000
  H   H40       1.0  0.24372  0.65513  0.45969  1.0000
  H   H41       1.0  0.20281  0.59415  0.21186  1.0000
  H   H42       1.0  0.24213  0.58440  0.21240  1.0000
  H   H43       1.0  0.12587  0.58179  0.21693  1.0000
  H   H44       1.0  0.07441  0.56029  0.22375  1.0000
  H   H45       1.0  0.07316  0.51290  0.45310  1.0000
  H   H46       1.0  0.12491  0.54035  0.45860  1.0000
  H   H47       1.0  0.16475  0.53666  0.42953  1.0000
  H   H48       1.0  0.20138  0.52348  0.42168  1.0000
  N   N2        1.0  0.42680  0.58396  0.33904  1.0000
  C   C55       1.0  0.39606  0.57025  0.35930  1.0000
  C   C56       1.0  0.44236  0.56813  0.33867  1.0000
  C   C57       1.0  0.44087  0.61466  0.31878  1.0000
  C   C58       1.0  0.42867  0.62471  0.25288  1.0000
  C   C59       1.0  0.43440  0.65382  0.25357  1.0000
  C   C60       1.0  0.45434  0.67471  0.31529  1.0000
  C   C61       1.0  0.46880  0.66519  0.37483  1.0000
  C   C62       1.0  0.46164  0.63568  0.37810  1.0000
  C   C63       1.0  0.37478  0.54799  0.30411  1.0000
  C   C64       1.0  0.34508  0.54010  0.30848  1.0000
  C   C65       1.0  0.33548  0.55537  0.36432  1.0000
  C   C66       1.0  0.35671  0.57712  0.42132  1.0000
  C   C67       1.0  0.38602  0.58345  0.42187  1.0000
  C   C68       1.0  0.43814  0.54800  0.26985  1.0000
  C   C69       1.0  0.45175  0.53085  0.27273  1.0000
  C   C70       1.0  0.47221  0.53451  0.34063  1.0000
  C   C71       1.0  0.47817  0.55663  0.40493  1.0000
  C   C72       1.0  0.46259  0.57191  0.40667  1.0000
  H   H49       1.0  0.33080  0.52432  0.26538  1.0000
  H   H50       1.0  0.38076  0.53842  0.25577  1.0000
  H   H51       1.0  0.40077  0.60053  0.46033  1.0000
  H   H52       1.0  0.35146  0.58987  0.45981  1.0000
  H   H53       1.0  0.41246  0.60995  0.21183  1.0000
  H   H54       1.0  0.42221  0.65904  0.21228  1.0000
  H   H55       1.0  0.42479  0.54535  0.21698  1.0000
  H   H56       1.0  0.44629  0.51540  0.22383  1.0000
  H   H57       1.0  0.49372  0.56160  0.45309  1.0000
  H   H58       1.0  0.46626  0.58590  0.45856  1.0000
  H   H59       1.0  0.46993  0.62943  0.42963  1.0000
  H   H60       1.0  0.48309  0.67922  0.42168  1.0000
  N   N3        1.0  0.42263  0.84414  0.33888  1.0000
  C   C73       1.0  0.43634  0.82710  0.35907  1.0000
  C   C74       1.0  0.43846  0.87553  0.33852  1.0000
  C   C75       1.0  0.39192  0.82749  0.31870  1.0000
  C   C76       1.0  0.38189  0.80529  0.25270  1.0000
  C   C77       1.0  0.35279  0.78188  0.25354  1.0000
  C   C78       1.0  0.33190  0.78094  0.31525  1.0000
  C   C79       1.0  0.34142  0.80493  0.37480  1.0000
  C   C80       1.0  0.37093  0.82726  0.37810  1.0000
  C   C81       1.0  0.45860  0.82811  0.30382  1.0000
  C   C82       1.0  0.46649  0.80630  0.30823  1.0000
  C   C83       1.0  0.45124  0.78144  0.36414  1.0000
  C   C84       1.0  0.42952  0.78094  0.42125  1.0000
  C   C85       1.0  0.42318  0.80391  0.42180  1.0000
  C   C86       1.0  0.45857  0.89144  0.26969  1.0000
  C   C87       1.0  0.47573  0.92221  0.27258  1.0000
  C   C88       1.0  0.47208  0.93900  0.34052  1.0000
  C   C89       1.0  0.44997  0.92284  0.40486  1.0000
  C   C90       1.0  0.43469  0.89197  0.40658  1.0000
  H   H61       1.0  0.48226  0.80779  0.26510  1.0000
  H   H62       1.0  0.46814  0.84364  0.25544  1.0000
  H   H63       1.0  0.40611  0.80160  0.46031  1.0000
  H   H64       1.0  0.41679  0.76294  0.45981  1.0000
  H   H65       1.0  0.39664  0.80385  0.21158  1.0000
  H   H66       1.0  0.34754  0.76450  0.21207  1.0000
  H   H67       1.0  0.46121  0.88074  0.21679  1.0000
  H   H68       1.0  0.49117  0.93220  0.22366  1.0000
  H   H69       1.0  0.44502  0.93342  0.45306  1.0000
  H   H70       1.0  0.42072  0.88166  0.45849  1.0000
  H   H71       1.0  0.37719  0.84179  0.42965  1.0000
  H   H72       1.0  0.32741  0.80518  0.42174  1.0000
  N   N4        1.0  0.84539  0.42399  0.33796  1.0000
  C   C91       1.0  0.82840  0.39329  0.35835  1.0000
  C   C92       1.0  0.87677  0.43967  0.33761  1.0000
  C   C93       1.0  0.82871  0.43806  0.31803  1.0000
  C   C94       1.0  0.80629  0.42582  0.25270  1.0000
  C   C95       1.0  0.78314  0.43190  0.25346  1.0000
  C   C96       1.0  0.78268  0.45230  0.31434  1.0000
  C   C97       1.0  0.80687  0.46678  0.37316  1.0000
  C   C98       1.0  0.82892  0.45921  0.37666  1.0000
  C   C99       1.0  0.82918  0.37208  0.30232  1.0000
  C   C100      1.0  0.80727  0.34241  0.30659  1.0000
  C   C101      1.0  0.78256  0.33285  0.36311  1.0000
  C   C102      1.0  0.78233  0.35404  0.42103  1.0000
  C   C103      1.0  0.80542  0.38329  0.42177  1.0000
  C   C104      1.0  0.89287  0.43590  0.26843  1.0000
  C   C105      1.0  0.92372  0.45072  0.26967  1.0000
  C   C106      1.0  0.94024  0.47245  0.33463  1.0000
  C   C107      1.0  0.92380  0.47636  0.40315  1.0000
  C   C108      1.0  0.89299  0.45966  0.40637  1.0000
  H   H73       1.0  0.80851  0.32817  0.26265  1.0000
  H   H74       1.0  0.84454  0.37813  0.25333  1.0000
  H   H75       1.0  0.80328  0.39809  0.46056  1.0000
  H   H76       1.0  0.76444  0.34882  0.46003  1.0000
  H   H77       1.0  0.80455  0.40942  0.21204  1.0000
  H   H78       1.0  0.76561  0.41978  0.21250  1.0000
  H   H79       1.0  0.88228  0.42220  0.21614  1.0000
  H   H80       1.0  0.93403  0.44569  0.22075  1.0000
  H   H81       1.0  0.93409  0.49161  0.45237  1.0000
  H   H82       1.0  0.88252  0.46248  0.45955  1.0000
  H   H83       1.0  0.84368  0.46767  0.42756  1.0000
  H   H84       1.0  0.80747  0.48138  0.41949  1.0000
  N   N5        1.0  0.58264  0.42274  0.33799  1.0000
  C   C109      1.0  0.61334  0.43648  0.35843  1.0000
  C   C110      1.0  0.56695  0.43843  0.33764  1.0000
  C   C111      1.0  0.56860  0.39201  0.31801  1.0000
  C   C112      1.0  0.58085  0.38182  0.25276  1.0000
  C   C113      1.0  0.57478  0.35259  0.25352  1.0000
  C   C114      1.0  0.55437  0.33172  0.31437  1.0000
  C   C115      1.0  0.53990  0.34144  0.37321  1.0000
  C   C116      1.0  0.54744  0.37105  0.37663  1.0000
  C   C117      1.0  0.63455  0.45849  0.30246  1.0000
  C   C118      1.0  0.66422  0.46623  0.30667  1.0000
  C   C119      1.0  0.67378  0.45108  0.36322  1.0000
  C   C120      1.0  0.65259  0.42967  0.42114  1.0000
  C   C121      1.0  0.62335  0.42350  0.42187  1.0000
  C   C122      1.0  0.57073  0.45831  0.26847  1.0000
  C   C123      1.0  0.55589  0.47433  0.26968  1.0000
  C   C124      1.0  0.53417  0.46912  0.33465  1.0000
  C   C125      1.0  0.53025  0.44876  0.40317  1.0000
  C   C126      1.0  0.54696  0.43466  0.40638  1.0000
  H   H85       1.0  0.67844  0.48168  0.26268  1.0000
  H   H86       1.0  0.62850  0.46774  0.25329  1.0000
  H   H87       1.0  0.60854  0.40655  0.46064  1.0000
  H   H88       1.0  0.65781  0.41699  0.46014  1.0000
  H   H89       1.0  0.59726  0.39649  0.21212  1.0000
  H   H90       1.0  0.58691  0.34719  0.21258  1.0000
  H   H91       1.0  0.58443  0.46143  0.21619  1.0000
  H   H92       1.0  0.56093  0.48968  0.22079  1.0000
  H   H93       1.0  0.51500  0.44381  0.45239  1.0000
  H   H94       1.0  0.54414  0.42137  0.45956  1.0000
  H   H95       1.0  0.53897  0.37735  0.42749  1.0000
  H   H96       1.0  0.52527  0.32744  0.41945  1.0000
  N   N6        1.0  0.58387  0.16120  0.33802  1.0000
  C   C127      1.0  0.57014  0.17818  0.35848  1.0000
  C   C128      1.0  0.56817  0.12982  0.33766  1.0000
  C   C129      1.0  0.61462  0.17789  0.31808  1.0000
  C   C130      1.0  0.62479  0.20030  0.25269  1.0000
  C   C131      1.0  0.65400  0.22347  0.25354  1.0000
  C   C132      1.0  0.67488  0.22395  0.31441  1.0000
  C   C133      1.0  0.66516  0.19978  0.37332  1.0000
  C   C134      1.0  0.63556  0.17768  0.37669  1.0000
  C   C135      1.0  0.54814  0.17739  0.30251  1.0000
  C   C136      1.0  0.54041  0.19932  0.30674  1.0000
  C   C137      1.0  0.55557  0.22404  0.36328  1.0000
  C   C138      1.0  0.57697  0.22424  0.42122  1.0000
  C   C139      1.0  0.58313  0.20115  0.42192  1.0000
  C   C140      1.0  0.54829  0.11373  0.26849  1.0000
  C   C141      1.0  0.53226  0.08288  0.26969  1.0000
  C   C142      1.0  0.53746  0.06636  0.33466  1.0000
  C   C143      1.0  0.55783  0.08279  0.40316  1.0000
  C   C144      1.0  0.57194  0.11360  0.40639  1.0000
  H   H97       1.0  0.52497  0.19812  0.26272  1.0000
  H   H98       1.0  0.53889  0.16209  0.25333  1.0000
  H   H99       1.0  0.60007  0.20329  0.46068  1.0000
  H   H100      1.0  0.58966  0.24215  0.46018  1.0000
  H   H101      1.0  0.61007  0.20202  0.21220  1.0000
  H   H102      1.0  0.65940  0.24100  0.21258  1.0000
  H   H103      1.0  0.54517  0.12432  0.21622  1.0000
  H   H104      1.0  0.51691  0.07257  0.22081  1.0000
  H   H105      1.0  0.56279  0.07249  0.45237  1.0000
  H   H106      1.0  0.58524  0.12406  0.45956  1.0000
  H   H107      1.0  0.62925  0.16292  0.42759  1.0000
  H   H108      1.0  0.67918  0.19915  0.41949  1.0000
  C   C145      1.0  0.03580  0.51976  0.34203  1.0000
  C   C146      1.0  0.01852  0.51269  0.42169  1.0000
  C   C147      1.0  0.98759  0.49577  0.41558  1.0000
  H   H109      1.0  0.97603  0.48908  0.47424  1.0000
  C   C148      1.0  0.03065  0.52359  0.51297  1.0000
  H   H110      1.0  0.05226  0.54310  0.51075  1.0000
  H   H111      1.0  0.03183  0.50642  0.55030  1.0000
  H   H112      1.0  0.01674  0.52979  0.55019  1.0000
  C   C149      1.0  0.48685  0.51736  0.34207  1.0000
  C   C150      1.0  0.49393  0.50717  0.42173  1.0000
  C   C151      1.0  0.51085  0.49316  0.41561  1.0000
  H   H113      1.0  0.51754  0.48829  0.47427  1.0000
  C   C152      1.0  0.48305  0.50841  0.51302  1.0000
  H   H114      1.0  0.46353  0.51051  0.51081  1.0000
  H   H115      1.0  0.50022  0.52677  0.55031  1.0000
  H   H116      1.0  0.47686  0.48831  0.55027  1.0000
  C   C153      1.0  0.48923  0.97079  0.34199  1.0000
  C   C154      1.0  0.49944  0.98806  0.42166  1.0000
  C   C155      1.0  0.51344  0.01900  0.41557  1.0000
  H   H117      1.0  0.51831  0.03055  0.47425  1.0000
  C   C156      1.0  0.49821  0.97593  0.51293  1.0000
  H   H118      1.0  0.49611  0.95432  0.51070  1.0000
  H   H119      1.0  0.47986  0.97475  0.55027  1.0000
  H   H120      1.0  0.51832  0.98984  0.55016  1.0000
  C   C157      1.0  0.30649  0.55147  0.35548  1.0000
  C   C158      1.0  0.28902  0.55083  0.42926  1.0000
  C   C159      1.0  0.26292  0.55146  0.41249  1.0000
  H   H121      1.0  0.25184  0.55310  0.46651  1.0000
  C   C160      1.0  0.29573  0.54842  0.52490  1.0000
  H   H122      1.0  0.31269  0.54256  0.53274  1.0000
  H   H123      1.0  0.27626  0.53132  0.55846  1.0000
  H   H124      1.0  0.30266  0.56916  0.55912  1.0000
  C   C161      1.0  0.45516  0.75636  0.35534  1.0000
  C   C162      1.0  0.45582  0.73955  0.42914  1.0000
  C   C163      1.0  0.45517  0.71281  0.41242  1.0000
  H   H125      1.0  0.45353  0.70010  0.46646  1.0000
  C   C164      1.0  0.45826  0.74870  0.52476  1.0000
  H   H126      1.0  0.46414  0.77153  0.53255  1.0000
  H   H127      1.0  0.47537  0.74634  0.55828  1.0000
  H   H128      1.0  0.43753  0.73490  0.55906  1.0000
  C   C165      1.0  0.25026  0.70010  0.35544  1.0000
  C   C166      1.0  0.26711  0.71756  0.42921  1.0000
  C   C167      1.0  0.29384  0.74366  0.41242  1.0000
  H   H129      1.0  0.30658  0.75473  0.46643  1.0000
  C   C168      1.0  0.25800  0.71084  0.52486  1.0000
  H   H130      1.0  0.23518  0.69389  0.53273  1.0000
  H   H131      1.0  0.26038  0.73031  0.55844  1.0000
  H   H132      1.0  0.27182  0.70391  0.55903  1.0000
  C   C169      1.0  0.70264  0.45468  0.35422  1.0000
  C   C170      1.0  0.72017  0.45543  0.42800  1.0000
  C   C171      1.0  0.74600  0.45428  0.41135  1.0000
  H   H133      1.0  0.75709  0.45272  0.46548  1.0000
  C   C172      1.0  0.71377  0.45846  0.52349  1.0000
  H   H134      1.0  0.69700  0.46460  0.53098  1.0000
  H   H135      1.0  0.73342  0.47562  0.55616  1.0000
  H   H136      1.0  0.70673  0.43788  0.55880  1.0000
  C   C173      1.0  0.55200  0.24932  0.35426  1.0000
  C   C174      1.0  0.55122  0.26607  0.42804  1.0000
  C   C175      1.0  0.55237  0.29305  0.41139  1.0000
  H   H137      1.0  0.55393  0.30570  0.46552  1.0000
  C   C176      1.0  0.54818  0.25664  0.52353  1.0000
  H   H138      1.0  0.54204  0.23373  0.53101  1.0000
  H   H139      1.0  0.53102  0.25913  0.55617  1.0000
  H   H140      1.0  0.56876  0.27018  0.55886  1.0000
  C   C177      1.0  0.75729  0.30398  0.35418  1.0000
  C   C178      1.0  0.74053  0.28647  0.42799  1.0000
  C   C179      1.0  0.71355  0.26064  0.41136  1.0000
  H   H141      1.0  0.70090  0.24956  0.46552  1.0000
  C   C180      1.0  0.74997  0.29288  0.52346  1.0000
  H   H142      1.0  0.77288  0.30965  0.53091  1.0000
  H   H143      1.0  0.74748  0.27323  0.55614  1.0000
  H   H144      1.0  0.73643  0.29992  0.55878  1.0000
