data_image0
_chemical_formula_structural       C4HCNHNH2C4HCNHNH2C4HCNHNH2CNC4H2NH2CNC4H2NH2CNC4H2NH2NC18H12NC18H12NC18H12NC18H12CNC4H2NH2CNC4H2NH2CNC4H2NH2C4HCNHNH2C4HCNHNH2C4HCNHNH2
_chemical_formula_sum              "C132 H96 N28"
_cell_length_a       50.523
_cell_length_b       50.523
_cell_length_c       14.7718
_cell_angle_alpha    90
_cell_angle_beta     90
_cell_angle_gamma    120

_space_group_name_H-M_alt    "P 1"
_space_group_IT_number       1

loop_
  _space_group_symop_operation_xyz
  'x, y, z'

loop_
  _atom_site_type_symbol
  _atom_site_label
  _atom_site_symmetry_multiplicity
  _atom_site_fract_x
  _atom_site_fract_y
  _atom_site_fract_z
  _atom_site_occupancy
  C   C1        1.0  0.13875  0.07200  0.33970  1.0000
  C   C2        1.0  0.20400  0.10660  0.34408  1.0000
  C   C3        1.0  0.18764  0.11771  0.29305  1.0000
  C   C4        1.0  0.15523  0.09996  0.29194  1.0000
  H   H1        1.0  0.14330  0.10835  0.25818  1.0000
  C   C5        1.0  0.28418  0.14422  0.27107  1.0000
  N   N1        1.0  0.25321  0.12987  0.27450  1.0000
  H   H2        1.0  0.29426  0.15003  0.20878  1.0000
  N   N2        1.0  0.20148  0.14496  0.24865  1.0000
  H   H3        1.0  0.18964  0.15218  0.21561  1.0000
  H   H4        1.0  0.22338  0.15880  0.25189  1.0000
  C   C6        1.0  0.94033  0.07094  0.33580  1.0000
  C   C7        1.0  0.90376  0.10030  0.33984  1.0000
  C   C8        1.0  0.90336  0.08361  0.26148  1.0000
  C   C9        1.0  0.92231  0.07021  0.26079  1.0000
  H   H5        1.0  0.92243  0.05924  0.20301  1.0000
  C   C10       1.0  0.87252  0.14965  0.27482  1.0000
  N   N3        1.0  0.88629  0.13249  0.27690  1.0000
  H   H6        1.0  0.87202  0.15898  0.21408  1.0000
  N   N4        1.0  0.88482  0.07872  0.18892  1.0000
  H   H7        1.0  0.88427  0.06615  0.13824  1.0000
  H   H8        1.0  0.86882  0.08398  0.19039  1.0000
  C   C11       1.0  0.94113  0.87326  0.34468  1.0000
  C   C12       1.0  0.91085  0.80733  0.34852  1.0000
  C   C13       1.0  0.92680  0.82343  0.26901  1.0000
  C   C14       1.0  0.94063  0.85581  0.26849  1.0000
  H   H9        1.0  0.95098  0.86682  0.20993  1.0000
  C   C15       1.0  0.86034  0.72695  0.28357  1.0000
  N   N5        1.0  0.87770  0.75784  0.28602  1.0000
  H   H10       1.0  0.85054  0.71731  0.22308  1.0000
  N   N6        1.0  0.93074  0.80963  0.19511  1.0000
  H   H11       1.0  0.94264  0.82151  0.14326  1.0000
  H   H12       1.0  0.92510  0.78826  0.19556  1.0000
  C   C16       1.0  0.54899  0.19912  0.28142  1.0000
  N   N7        1.0  0.57463  0.19691  0.28292  1.0000
  C   C17       1.0  0.60960  0.18314  0.34188  1.0000
  C   C18       1.0  0.61726  0.16982  0.26893  1.0000
  C   C19       1.0  0.64669  0.17275  0.26937  1.0000
  C   C20       1.0  0.66819  0.18826  0.33916  1.0000
  H   H13       1.0  0.65228  0.16269  0.21842  1.0000
  H   H14       1.0  0.54633  0.21076  0.22898  1.0000
  N   N8        1.0  0.59745  0.15395  0.20096  1.0000
  H   H15       1.0  0.57667  0.15030  0.20023  1.0000
  H   H16       1.0  0.60313  0.14464  0.15264  1.0000
  C   C21       1.0  0.80929  0.35279  0.28446  1.0000
  N   N9        1.0  0.81137  0.38058  0.28589  1.0000
  C   C22       1.0  0.82550  0.42951  0.34391  1.0000
  C   C23       1.0  0.83844  0.45031  0.27037  1.0000
  C   C24       1.0  0.83561  0.47686  0.27115  1.0000
  C   C25       1.0  0.82054  0.48307  0.34179  1.0000
  H   H17       1.0  0.84546  0.49241  0.21986  1.0000
  H   H18       1.0  0.79730  0.33827  0.23277  1.0000
  N   N10       1.0  0.85389  0.44617  0.20156  1.0000
  H   H19       1.0  0.85735  0.42891  0.20027  1.0000
  H   H20       1.0  0.86284  0.46096  0.15262  1.0000
  C   C26       1.0  0.65672  0.46122  0.28691  1.0000
  N   N11       1.0  0.62887  0.43559  0.28769  1.0000
  C   C27       1.0  0.57984  0.40070  0.34485  1.0000
  C   C28       1.0  0.55935  0.39292  0.27052  1.0000
  C   C29       1.0  0.53288  0.36347  0.27033  1.0000
  C   C30       1.0  0.52646  0.34207  0.34076  1.0000
  H   H21       1.0  0.51757  0.35780  0.21836  1.0000
  H   H22       1.0  0.67128  0.46385  0.23527  1.0000
  N   N12       1.0  0.56370  0.41261  0.20181  1.0000
  H   H23       1.0  0.58086  0.43338  0.20122  1.0000
  H   H24       1.0  0.54911  0.40680  0.15234  1.0000
  N   N13       1.0  0.00747  0.00566  0.34668  1.0000
  C   C31       1.0  0.04007  0.02194  0.34477  1.0000
  C   C32       1.0  0.99128  0.97297  0.34765  1.0000
  C   C33       1.0  0.99146  0.02229  0.34188  1.0000
  C   C34       1.0  0.99665  0.04491  0.40659  1.0000
  C   C35       1.0  0.98078  0.06124  0.40271  1.0000
  C   C36       1.0  0.95785  0.05506  0.33670  1.0000
  C   C37       1.0  0.95275  0.03177  0.27306  1.0000
  C   C38       1.0  0.96948  0.01626  0.27424  1.0000
  C   C39       1.0  0.05608  0.03650  0.26496  1.0000
  C   C40       1.0  0.08830  0.05256  0.26310  1.0000
  C   C41       1.0  0.10580  0.05488  0.34097  1.0000
  C   C42       1.0  0.08936  0.04005  0.42068  1.0000
  C   C43       1.0  0.05712  0.02381  0.42254  1.0000
  C   C44       1.0  0.99709  0.95634  0.28165  1.0000
  C   C45       1.0  0.98125  0.92414  0.28209  1.0000
  C   C46       1.0  0.95764  0.90661  0.34544  1.0000
  C   C47       1.0  0.95173  0.92391  0.41022  1.0000
  C   C48       1.0  0.96846  0.95617  0.41250  1.0000
  H   H25       1.0  0.09889  0.06227  0.20325  1.0000
  H   H26       1.0  0.04424  0.03524  0.20742  1.0000
  H   H27       1.0  0.04604  0.01363  0.48142  1.0000
  H   H28       1.0  0.10073  0.04149  0.47940  1.0000
  H   H29       1.0  0.01253  0.04999  0.45645  1.0000
  H   H30       1.0  0.98668  0.07802  0.44983  1.0000
  H   H31       1.0  0.01357  0.96770  0.23372  1.0000
  H   H32       1.0  0.98794  0.91386  0.23516  1.0000
  H   H33       1.0  0.93470  0.91334  0.45683  1.0000
  H   H34       1.0  0.96330  0.96748  0.46049  1.0000
  H   H35       1.0  0.96479  0.99967  0.22703  1.0000
  H   H36       1.0  0.93612  0.02492  0.22501  1.0000
  N   N14       1.0  0.43355  0.21724  0.34466  1.0000
  C   C49       1.0  0.45114  0.24971  0.34033  1.0000
  C   C50       1.0  0.40096  0.20091  0.34651  1.0000
  C   C51       1.0  0.45111  0.20236  0.35039  1.0000
  C   C52       1.0  0.46585  0.20299  0.43221  1.0000
  C   C53       1.0  0.48998  0.19660  0.43341  1.0000
  C   C54       1.0  0.50038  0.18953  0.35272  1.0000
  C   C55       1.0  0.48440  0.18747  0.27171  1.0000
  C   C56       1.0  0.46039  0.19401  0.27041  1.0000
  C   C57       1.0  0.46024  0.26713  0.42076  1.0000
  C   C58       1.0  0.48399  0.29779  0.42019  1.0000
  C   C59       1.0  0.49995  0.31206  0.33948  1.0000
  C   C60       1.0  0.48987  0.29476  0.25843  1.0000
  C   C61       1.0  0.46595  0.26413  0.25889  1.0000
  C   C62       1.0  0.38470  0.20492  0.41780  1.0000
  C   C63       1.0  0.35248  0.18910  0.41881  1.0000
  C   C64       1.0  0.33494  0.16805  0.34966  1.0000
  C   C65       1.0  0.35160  0.16406  0.27874  1.0000
  C   C66       1.0  0.38385  0.18028  0.27681  1.0000
  H   H37       1.0  0.49029  0.30925  0.48052  1.0000
  H   H38       1.0  0.45104  0.25698  0.48145  1.0000
  H   H39       1.0  0.46083  0.25170  0.20038  1.0000
  H   H40       1.0  0.50125  0.30358  0.19889  1.0000
  H   H41       1.0  0.46058  0.21033  0.49038  1.0000
  H   H42       1.0  0.50140  0.19950  0.49307  1.0000
  H   H43       1.0  0.39625  0.21972  0.46933  1.0000
  H   H44       1.0  0.34199  0.19374  0.47057  1.0000
  H   H45       1.0  0.34040  0.14884  0.22768  1.0000
  H   H46       1.0  0.39483  0.17676  0.22410  1.0000
  H   H47       1.0  0.45118  0.19478  0.20952  1.0000
  H   H48       1.0  0.49093  0.18241  0.21162  1.0000
  N   N15       1.0  0.79292  0.21996  0.34597  1.0000
  C   C67       1.0  0.76043  0.20505  0.34094  1.0000
  C   C68       1.0  0.80939  0.20379  0.34837  1.0000
  C   C69       1.0  0.80758  0.25239  0.35200  1.0000
  C   C70       1.0  0.80721  0.26648  0.43414  1.0000
  C   C71       1.0  0.81326  0.29689  0.43541  1.0000
  C   C72       1.0  0.81978  0.31424  0.35464  1.0000
  C   C73       1.0  0.82162  0.30035  0.27330  1.0000
  C   C74       1.0  0.81537  0.26990  0.27186  1.0000
  C   C75       1.0  0.74301  0.19729  0.42131  1.0000
  C   C76       1.0  0.71238  0.19043  0.42005  1.0000
  C   C77       1.0  0.69816  0.19165  0.33867  1.0000
  C   C78       1.0  0.71545  0.19828  0.25774  1.0000
  C   C79       1.0  0.74607  0.20495  0.25887  1.0000
  C   C80       1.0  0.80282  0.18091  0.41359  1.0000
  C   C81       1.0  0.81850  0.16437  0.41416  1.0000
  C   C82       1.0  0.84240  0.17054  0.35198  1.0000
  C   C83       1.0  0.84911  0.19408  0.28790  1.0000
  C   C84       1.0  0.83272  0.20994  0.28513  1.0000
  H   H49       1.0  0.70091  0.18569  0.48032  1.0000
  H   H50       1.0  0.75315  0.19858  0.48231  1.0000
  H   H51       1.0  0.75853  0.21188  0.20035  1.0000
  H   H52       1.0  0.70664  0.20048  0.19769  1.0000
  H   H53       1.0  0.80028  0.25391  0.49247  1.0000
  H   H54       1.0  0.81066  0.30546  0.49540  1.0000
  H   H55       1.0  0.78589  0.17549  0.46001  1.0000
  H   H56       1.0  0.81146  0.14709  0.46027  1.0000
  H   H57       1.0  0.86641  0.20039  0.24219  1.0000
  H   H58       1.0  0.83830  0.22644  0.23705  1.0000
  H   H59       1.0  0.81442  0.25989  0.21085  1.0000
  H   H60       1.0  0.82628  0.31186  0.21314  1.0000
  N   N16       1.0  0.78979  0.57681  0.35114  1.0000
  C   C85       1.0  0.80446  0.55902  0.34515  1.0000
  C   C86       1.0  0.80616  0.60944  0.35414  1.0000
  C   C87       1.0  0.75735  0.55922  0.35708  1.0000
  C   C88       1.0  0.74314  0.54448  0.43879  1.0000
  C   C89       1.0  0.71264  0.52029  0.43949  1.0000
  C   C90       1.0  0.69534  0.50992  0.35852  1.0000
  C   C91       1.0  0.70935  0.52594  0.27766  1.0000
  C   C92       1.0  0.73988  0.54996  0.27679  1.0000
  C   C93       1.0  0.81229  0.54922  0.42514  1.0000
  C   C94       1.0  0.81892  0.52529  0.42333  1.0000
  C   C95       1.0  0.81734  0.50977  0.34178  1.0000
  C   C96       1.0  0.81062  0.52054  0.26124  1.0000
  C   C97       1.0  0.80425  0.54470  0.26289  1.0000
  C   C98       1.0  0.82922  0.62551  0.41906  1.0000
  C   C99       1.0  0.84590  0.65772  0.42034  1.0000
  C   C100      1.0  0.83971  0.67571  0.35925  1.0000
  C   C101      1.0  0.81598  0.65911  0.29546  1.0000
  C   C102      1.0  0.80000  0.62688  0.29190  1.0000
  H   H61       1.0  0.82371  0.51849  0.48338  1.0000
  H   H62       1.0  0.81117  0.55807  0.48633  1.0000
  H   H63       1.0  0.79723  0.55030  0.20468  1.0000
  H   H64       1.0  0.80817  0.50951  0.20108  1.0000
  H   H65       1.0  0.75566  0.54977  0.49713  1.0000
  H   H66       1.0  0.70397  0.50889  0.49909  1.0000
  H   H67       1.0  0.83465  0.61383  0.46485  1.0000
  H   H68       1.0  0.86330  0.66776  0.46617  1.0000
  H   H69       1.0  0.80961  0.67026  0.25053  1.0000
  H   H70       1.0  0.78336  0.61616  0.24409  1.0000
  H   H71       1.0  0.74996  0.55920  0.21601  1.0000
  H   H72       1.0  0.69788  0.51938  0.21737  1.0000
  C   C103      1.0  0.15664  0.06231  0.38757  1.0000
  N   N17       1.0  0.18760  0.07939  0.38767  1.0000
  C   C104      1.0  0.23652  0.12180  0.35219  1.0000
  C   C105      1.0  0.25259  0.12856  0.43595  1.0000
  C   C106      1.0  0.28498  0.14313  0.43316  1.0000
  C   C107      1.0  0.30188  0.15186  0.35119  1.0000
  H   H73       1.0  0.29651  0.14750  0.49321  1.0000
  H   H74       1.0  0.14670  0.04213  0.42233  1.0000
  N   N18       1.0  0.23849  0.12282  0.51795  1.0000
  H   H75       1.0  0.21666  0.11492  0.52344  1.0000
  H   H76       1.0  0.25017  0.12846  0.57403  1.0000
  C   C108      1.0  0.93925  0.08794  0.41074  1.0000
  N   N19       1.0  0.92206  0.10167  0.40919  1.0000
  C   C109      1.0  0.88760  0.11683  0.35004  1.0000
  C   C110      1.0  0.87401  0.11943  0.43176  1.0000
  C   C111      1.0  0.86051  0.13828  0.43144  1.0000
  C   C112      1.0  0.85842  0.15334  0.35289  1.0000
  H   H77       1.0  0.85162  0.14069  0.49093  1.0000
  H   H78       1.0  0.95065  0.08991  0.46942  1.0000
  N   N20       1.0  0.87198  0.10376  0.50891  1.0000
  H   H79       1.0  0.87750  0.08796  0.51032  1.0000
  H   H80       1.0  0.86167  0.10541  0.56249  1.0000
  C   C113      1.0  0.92478  0.85545  0.42069  1.0000
  N   N21       1.0  0.91058  0.82450  0.41904  1.0000
  C   C114      1.0  0.89401  0.77464  0.35862  1.0000
  C   C115      1.0  0.89184  0.75824  0.43954  1.0000
  C   C116      1.0  0.87278  0.72591  0.43895  1.0000
  C   C117      1.0  0.85708  0.70894  0.36078  1.0000
  H   H81       1.0  0.87070  0.71449  0.49796  1.0000
  H   H82       1.0  0.92377  0.86520  0.48000  1.0000
  N   N22       1.0  0.90812  0.77165  0.51604  1.0000
  H   H83       1.0  0.92406  0.79292  0.51733  1.0000
  H   H84       1.0  0.90675  0.75955  0.56898  1.0000
  C   C118      1.0  0.52726  0.18665  0.35212  1.0000
  C   C119      1.0  0.58147  0.18284  0.34972  1.0000
  C   C120      1.0  0.56097  0.16997  0.42394  1.0000
  C   C121      1.0  0.53408  0.17220  0.42327  1.0000
  H   H85       1.0  0.51878  0.16246  0.47521  1.0000
  C   C122      1.0  0.65890  0.20114  0.40858  1.0000
  N   N23       1.0  0.63077  0.19828  0.40729  1.0000
  H   H86       1.0  0.67335  0.21351  0.45998  1.0000
  N   N24       1.0  0.56571  0.15515  0.49340  1.0000
  H   H87       1.0  0.55112  0.14625  0.54282  1.0000
  H   H88       1.0  0.58322  0.15209  0.49467  1.0000
  C   C123      1.0  0.82240  0.34388  0.35422  1.0000
  C   C124      1.0  0.82590  0.40174  0.35177  1.0000
  C   C125      1.0  0.83939  0.39445  0.42510  1.0000
  C   C126      1.0  0.83728  0.36538  0.42449  1.0000
  H   H89       1.0  0.84747  0.36006  0.47571  1.0000
  C   C127      1.0  0.80797  0.46104  0.41168  1.0000
  N   N25       1.0  0.81076  0.43574  0.41012  1.0000
  H   H90       1.0  0.79590  0.46327  0.46371  1.0000
  N   N26       1.0  0.85469  0.41429  0.49355  1.0000
  H   H91       1.0  0.86402  0.40883  0.54233  1.0000
  H   H92       1.0  0.85767  0.43482  0.49468  1.0000
  C   C128      1.0  0.66562  0.48301  0.35734  1.0000
  C   C129      1.0  0.60763  0.42883  0.35341  1.0000
  C   C130      1.0  0.61491  0.44940  0.42731  1.0000
  C   C131      1.0  0.64406  0.47627  0.42748  1.0000
  H   H93       1.0  0.64938  0.49162  0.47916  1.0000
  C   C132      1.0  0.54815  0.35149  0.41159  1.0000
  N   N27       1.0  0.57340  0.37963  0.41089  1.0000
  H   H94       1.0  0.54578  0.33710  0.46349  1.0000
  N   N28       1.0  0.59500  0.44473  0.49568  1.0000
  H   H95       1.0  0.60041  0.45944  0.54466  1.0000
  H   H96       1.0  0.57437  0.42733  0.49605  1.0000
