data_image0
_chemical_formula_structural       C8HC7HCH4C4O3C3H2NHC3H2NHC3H2NHC3H2NHC3H2NHC3H2NHOC8HC7HCH4C4O4C8HC7HCH4C4O4C3HOHNHC3HOHNHC3HOHNHC3HOHNHC3HOHNHC3HOHNH
_chemical_formula_sum              "C96 H54 O18 N12"
_cell_length_a       29.9904
_cell_length_b       29.9904
_cell_length_c       15.1709
_cell_angle_alpha    89.9992
_cell_angle_beta     90.0008
_cell_angle_gamma    120

_space_group_name_H-M_alt    "P 1"
_space_group_IT_number       1

loop_
  _space_group_symop_operation_xyz
  'x, y, z'

loop_
  _atom_site_type_symbol
  _atom_site_label
  _atom_site_symmetry_multiplicity
  _atom_site_fract_x
  _atom_site_fract_y
  _atom_site_fract_z
  _atom_site_occupancy
  C   C1        1.0  0.02094  0.52899  0.32074  1.0000
  C   C2        1.0  0.97352  0.48113  0.32056  1.0000
  C   C3        1.0  0.97373  0.43375  0.31803  1.0000
  C   C4        1.0  0.02120  0.43507  0.32236  1.0000
  C   C5        1.0  0.06854  0.48140  0.32578  1.0000
  C   C6        1.0  0.06852  0.52883  0.32125  1.0000
  C   C7        1.0  0.92730  0.48273  0.31764  1.0000
  C   C8        1.0  0.11460  0.57683  0.32253  1.0000
  H   H1        1.0  0.02131  0.40090  0.32326  1.0000
  C   C9        1.0  0.02079  0.57681  0.32075  1.0000
  C   C10       1.0  0.97322  0.57696  0.32124  1.0000
  C   C11       1.0  0.97318  0.62439  0.32581  1.0000
  C   C12       1.0  0.02052  0.67073  0.32236  1.0000
  C   C13       1.0  0.06799  0.67205  0.31803  1.0000
  C   C14       1.0  0.06821  0.62468  0.32060  1.0000
  C   C15       1.0  0.92713  0.52897  0.32239  1.0000
  H   H2        1.0  0.02041  0.70489  0.32328  1.0000
  C   C16       1.0  0.11443  0.62307  0.31777  1.0000
  H   H3        1.0  0.89186  0.52603  0.32593  1.0000
  H   H4        1.0  0.89217  0.45029  0.31293  1.0000
  H   H5        1.0  0.14956  0.65552  0.31317  1.0000
  H   H6        1.0  0.14987  0.57979  0.32629  1.0000
  C   C17       1.0  0.11326  0.47767  0.33837  1.0000
  C   C18       1.0  0.92908  0.38498  0.30800  1.0000
  C   C19       1.0  0.92843  0.62800  0.33868  1.0000
  C   C20       1.0  0.11262  0.72084  0.30806  1.0000
  O   O1        1.0  0.10935  0.43757  0.38631  1.0000
  O   O2        1.0  0.93291  0.34779  0.26312  1.0000
  O   O3        1.0  0.10880  0.75791  0.26277  1.0000
  C   C21       1.0  0.20240  0.50858  0.30607  1.0000
  C   C22       1.0  0.23529  0.51235  0.23657  1.0000
  C   C23       1.0  0.27989  0.50994  0.25438  1.0000
  H   H7        1.0  0.30172  0.51037  0.20221  1.0000
  H   H8        1.0  0.22448  0.51161  0.17233  1.0000
  N   N1        1.0  0.15592  0.50393  0.28747  1.0000
  H   H9        1.0  0.15106  0.51524  0.22961  1.0000
  C   C24       1.0  0.56529  0.77890  0.30615  1.0000
  C   C25       1.0  0.56146  0.80799  0.23663  1.0000
  C   C26       1.0  0.56380  0.85496  0.25442  1.0000
  H   H10       1.0  0.56338  0.87636  0.20223  1.0000
  H   H11       1.0  0.56220  0.79790  0.17240  1.0000
  N   N2        1.0  0.57001  0.73711  0.28753  1.0000
  H   H12       1.0  0.55858  0.72087  0.22976  1.0000
  C   C27       1.0  0.29480  0.87151  0.30618  1.0000
  C   C28       1.0  0.26564  0.83866  0.23666  1.0000
  C   C29       1.0  0.21875  0.79393  0.25439  1.0000
  H   H13       1.0  0.19739  0.77208  0.20219  1.0000
  H   H14       1.0  0.27587  0.84938  0.17243  1.0000
  N   N3        1.0  0.33660  0.91801  0.28759  1.0000
  H   H15       1.0  0.35282  0.92283  0.22979  1.0000
  C   C30       1.0  0.83935  0.59743  0.30616  1.0000
  C   C31       1.0  0.80649  0.59375  0.23665  1.0000
  C   C32       1.0  0.76178  0.59595  0.25440  1.0000
  H   H16       1.0  0.73995  0.59549  0.20222  1.0000
  H   H17       1.0  0.81721  0.59424  0.17242  1.0000
  N   N4        1.0  0.88582  0.60208  0.28755  1.0000
  H   H18       1.0  0.89063  0.59068  0.22974  1.0000
  C   C33       1.0  0.47635  0.32699  0.30611  1.0000
  C   C34       1.0  0.48007  0.29784  0.23661  1.0000
  C   C35       1.0  0.47784  0.25092  0.25439  1.0000
  H   H19       1.0  0.47829  0.22953  0.20220  1.0000
  H   H20       1.0  0.47947  0.30803  0.17239  1.0000
  N   N5        1.0  0.47167  0.36880  0.28752  1.0000
  H   H21       1.0  0.48300  0.38498  0.22967  1.0000
  C   C36       1.0  0.74684  0.23438  0.30605  1.0000
  C   C37       1.0  0.77602  0.26722  0.23653  1.0000
  C   C38       1.0  0.82298  0.31188  0.25430  1.0000
  H   H22       1.0  0.84438  0.33369  0.20211  1.0000
  H   H23       1.0  0.76583  0.25642  0.17232  1.0000
  N   N6        1.0  0.70498  0.18791  0.28749  1.0000
  H   H24       1.0  0.68882  0.18309  0.22964  1.0000
  O   O4        1.0  0.93251  0.66822  0.38653  1.0000
  C   C39       1.0  0.54477  0.57696  0.32069  1.0000
  C   C40       1.0  0.59262  0.57737  0.32055  1.0000
  C   C41       1.0  0.64001  0.62495  0.31804  1.0000
  C   C42       1.0  0.63871  0.67111  0.32242  1.0000
  C   C43       1.0  0.59239  0.67214  0.32582  1.0000
  C   C44       1.0  0.54495  0.62469  0.32119  1.0000
  C   C45       1.0  0.59098  0.52953  0.31758  1.0000
  C   C46       1.0  0.49697  0.62281  0.32244  1.0000
  H   H25       1.0  0.67289  0.70538  0.32338  1.0000
  C   C47       1.0  0.49693  0.52898  0.32069  1.0000
  C   C48       1.0  0.49675  0.48125  0.32119  1.0000
  C   C49       1.0  0.44931  0.43379  0.32580  1.0000
  C   C50       1.0  0.40299  0.43482  0.32245  1.0000
  C   C51       1.0  0.40169  0.48098  0.31806  1.0000
  C   C52       1.0  0.44908  0.52857  0.32056  1.0000
  C   C53       1.0  0.54473  0.48312  0.32235  1.0000
  H   H26       1.0  0.36881  0.40056  0.32345  1.0000
  C   C54       1.0  0.45071  0.57641  0.31767  1.0000
  H   H27       1.0  0.54766  0.45080  0.32599  1.0000
  H   H28       1.0  0.62341  0.52683  0.31295  1.0000
  H   H29       1.0  0.41828  0.57911  0.31309  1.0000
  H   H30       1.0  0.49403  0.65513  0.32617  1.0000
  C   C55       1.0  0.59613  0.72058  0.33852  1.0000
  C   C56       1.0  0.68876  0.62904  0.30810  1.0000
  C   C57       1.0  0.44562  0.38539  0.33857  1.0000
  C   C58       1.0  0.35292  0.47690  0.30816  1.0000
  O   O5        1.0  0.63621  0.75671  0.38660  1.0000
  O   O6        1.0  0.72598  0.67006  0.26326  1.0000
  O   O7        1.0  0.40542  0.34914  0.38630  1.0000
  O   O8        1.0  0.31588  0.43595  0.26292  1.0000
  C   C59       1.0  0.49686  0.05289  0.32077  1.0000
  C   C60       1.0  0.49646  0.10033  0.32064  1.0000
  C   C61       1.0  0.44888  0.10015  0.31810  1.0000
  C   C62       1.0  0.40271  0.05269  0.32251  1.0000
  C   C63       1.0  0.40168  0.00534  0.32595  1.0000
  C   C64       1.0  0.44912  0.00534  0.32127  1.0000
  C   C65       1.0  0.54430  0.14654  0.31771  1.0000
  C   C66       1.0  0.45099  0.95923  0.32242  1.0000
  H   H31       1.0  0.36845  0.05260  0.32350  1.0000
  C   C67       1.0  0.54483  0.05301  0.32075  1.0000
  C   C68       1.0  0.59257  0.10057  0.32124  1.0000
  C   C69       1.0  0.64002  0.10057  0.32584  1.0000
  C   C70       1.0  0.63898  0.05321  0.32244  1.0000
  C   C71       1.0  0.59281  0.00575  0.31805  1.0000
  C   C72       1.0  0.54524  0.00558  0.32060  1.0000
  C   C73       1.0  0.59070  0.14667  0.32247  1.0000
  H   H32       1.0  0.67324  0.05330  0.32338  1.0000
  C   C74       1.0  0.49739  0.95937  0.31761  1.0000
  H   H33       1.0  0.62303  0.18193  0.32613  1.0000
  H   H34       1.0  0.54701  0.18167  0.31308  1.0000
  H   H35       1.0  0.49468  0.92424  0.31294  1.0000
  H   H36       1.0  0.41866  0.92398  0.32600  1.0000
  C   C75       1.0  0.35330  0.96060  0.33876  1.0000
  C   C76       1.0  0.44475  0.14480  0.30820  1.0000
  C   C77       1.0  0.68843  0.14528  0.33854  1.0000
  C   C78       1.0  0.59690  0.96108  0.30816  1.0000
  O   O9        1.0  0.31706  0.96463  0.38640  1.0000
  O   O10       1.0  0.40388  0.14096  0.26279  1.0000
  O   O11       1.0  0.72470  0.14133  0.38622  1.0000
  O   O12       1.0  0.63793  0.96487  0.26336  1.0000
  C   C79       1.0  0.29526  0.50833  0.34215  1.0000
  C   C80       1.0  0.26633  0.51252  0.41211  1.0000
  C   C81       1.0  0.21956  0.51081  0.39381  1.0000
  H   H37       1.0  0.19823  0.51191  0.44552  1.0000
  O   O13       1.0  0.28010  0.51366  0.49798  1.0000
  H   H38       1.0  0.26549  0.47758  0.51650  1.0000
  N   N7        1.0  0.33743  0.50392  0.35910  1.0000
  H   H39       1.0  0.35499  0.51654  0.41552  1.0000
  C   C82       1.0  0.56545  0.87197  0.34216  1.0000
  C   C83       1.0  0.56134  0.83890  0.41215  1.0000
  C   C84       1.0  0.56308  0.79385  0.39387  1.0000
  H   H40       1.0  0.56205  0.77147  0.44561  1.0000
  O   O14       1.0  0.56023  0.85156  0.49800  1.0000
  H   H41       1.0  0.59631  0.87305  0.51647  1.0000
  N   N8        1.0  0.56980  0.91853  0.35906  1.0000
  H   H42       1.0  0.55731  0.92355  0.41554  1.0000
  C   C85       1.0  0.20173  0.77855  0.34213  1.0000
  C   C86       1.0  0.23477  0.80752  0.41213  1.0000
  C   C87       1.0  0.27983  0.85431  0.39390  1.0000
  H   H43       1.0  0.30220  0.87566  0.44565  1.0000
  O   O15       1.0  0.22209  0.79374  0.49799  1.0000
  H   H44       1.0  0.20058  0.80832  0.51643  1.0000
  N   N9        1.0  0.15515  0.73637  0.35903  1.0000
  H   H45       1.0  0.15021  0.71879  0.41543  1.0000
  C   C88       1.0  0.74643  0.59761  0.34216  1.0000
  C   C89       1.0  0.77538  0.59349  0.41215  1.0000
  C   C90       1.0  0.82217  0.59523  0.39389  1.0000
  H   H46       1.0  0.84351  0.59418  0.44563  1.0000
  O   O16       1.0  0.76166  0.59246  0.49801  1.0000
  H   H47       1.0  0.77621  0.62856  0.51635  1.0000
  N   N10       1.0  0.70425  0.60199  0.35905  1.0000
  H   H48       1.0  0.68670  0.58946  0.41551  1.0000
  C   C91       1.0  0.47622  0.23392  0.34214  1.0000
  C   C92       1.0  0.48037  0.26701  0.41212  1.0000
  C   C93       1.0  0.47859  0.31204  0.39384  1.0000
  H   H49       1.0  0.47963  0.33444  0.44557  1.0000
  O   O17       1.0  0.48143  0.25434  0.49800  1.0000
  H   H50       1.0  0.44533  0.23279  0.51637  1.0000
  N   N11       1.0  0.47183  0.18736  0.35907  1.0000
  H   H51       1.0  0.48445  0.18239  0.41548  1.0000
  C   C94       1.0  0.83996  0.32727  0.34205  1.0000
  C   C95       1.0  0.80685  0.29836  0.41203  1.0000
  C   C96       1.0  0.76178  0.25158  0.39378  1.0000
  H   H52       1.0  0.73936  0.23027  0.44551  1.0000
  O   O18       1.0  0.81949  0.31211  0.49790  1.0000
  H   H53       1.0  0.84101  0.29755  0.51635  1.0000
  N   N12       1.0  0.88655  0.36942  0.35900  1.0000
  H   H54       1.0  0.89148  0.38702  0.41537  1.0000
