data_image0
_chemical_formula_structural       C5H3NO2C5H3NO2C5H3NO2C24H15C24H15C3H2C4HNO2C3H2C4HNO2C3H2C4HNO2
_chemical_formula_sum              "C84 H48 N6 O12"
_cell_length_a       37.2542
_cell_length_b       37.2542
_cell_length_c       14.8177
_cell_angle_alpha    90
_cell_angle_beta     90
_cell_angle_gamma    120

_space_group_name_H-M_alt    "P 1"
_space_group_IT_number       1

loop_
  _space_group_symop_operation_xyz
  'x, y, z'

loop_
  _atom_site_type_symbol
  _atom_site_label
  _atom_site_symmetry_multiplicity
  _atom_site_fract_x
  _atom_site_fract_y
  _atom_site_fract_z
  _atom_site_occupancy
  C   C1        1.0  0.45397  0.56153  0.34588  1.0000
  C   C2        1.0  0.43312  0.51802  0.33316  1.0000
  C   C3        1.0  0.45493  0.49619  0.33267  1.0000
  C   C4        1.0  0.53424  0.48711  0.26336  1.0000
  C   C5        1.0  0.55611  0.46508  0.26459  1.0000
  H   H1        1.0  0.56530  0.45887  0.20433  1.0000
  H   H2        1.0  0.40178  0.50184  0.32244  1.0000
  H   H3        1.0  0.43896  0.46479  0.32274  1.0000
  N   N1        1.0  0.52628  0.50130  0.18111  1.0000
  O   O1        1.0  0.50482  0.47179  0.12840  1.0000
  O   O2        1.0  0.55937  0.52635  0.14179  1.0000
  C   C6        1.0  0.45384  0.89551  0.34588  1.0000
  C   C7        1.0  0.49735  0.91817  0.33318  1.0000
  C   C8        1.0  0.51919  0.96182  0.33269  1.0000
  C   C9        1.0  0.52826  0.05021  0.26336  1.0000
  C   C10       1.0  0.55029  0.09410  0.26459  1.0000
  H   H4        1.0  0.55650  0.10951  0.20433  1.0000
  H   H5        1.0  0.51354  0.90302  0.32248  1.0000
  H   H6        1.0  0.55059  0.97725  0.32278  1.0000
  N   N2        1.0  0.51406  0.02805  0.18111  1.0000
  O   O3        1.0  0.54357  0.03611  0.12839  1.0000
  O   O4        1.0  0.48901  0.03609  0.14180  1.0000
  C   C11       1.0  0.11987  0.56141  0.34589  1.0000
  C   C12       1.0  0.09722  0.58227  0.33318  1.0000
  C   C13       1.0  0.05356  0.56045  0.33270  1.0000
  C   C14       1.0  0.96517  0.48114  0.26337  1.0000
  C   C15       1.0  0.92128  0.45927  0.26460  1.0000
  H   H7        1.0  0.90587  0.45007  0.20434  1.0000
  H   H8        1.0  0.11237  0.61360  0.32249  1.0000
  H   H9        1.0  0.03813  0.57643  0.32280  1.0000
  N   N3        1.0  0.98733  0.48910  0.18112  1.0000
  O   O5        1.0  0.97926  0.51055  0.12840  1.0000
  O   O6        1.0  0.97929  0.45601  0.14180  1.0000
  C   C16       1.0  0.29808  0.65056  0.34590  1.0000
  C   C17       1.0  0.32090  0.62947  0.34590  1.0000
  C   C18       1.0  0.36482  0.65059  0.34590  1.0000
  C   C19       1.0  0.38591  0.69451  0.34589  1.0000
  C   C20       1.0  0.36479  0.71730  0.34589  1.0000
  C   C21       1.0  0.32088  0.69448  0.34589  1.0000
  C   C22       1.0  0.38714  0.62830  0.34590  1.0000
  C   C23       1.0  0.37354  0.59176  0.39774  1.0000
  C   C24       1.0  0.39521  0.56978  0.39734  1.0000
  C   C25       1.0  0.43180  0.58369  0.34590  1.0000
  C   C26       1.0  0.44569  0.62028  0.29447  1.0000
  C   C27       1.0  0.42369  0.64193  0.29408  1.0000
  C   C28       1.0  0.25347  0.62824  0.34591  1.0000
  C   C29       1.0  0.23055  0.59169  0.29409  1.0000
  C   C30       1.0  0.18689  0.56968  0.29450  1.0000
  C   C31       1.0  0.16419  0.58358  0.34590  1.0000
  C   C32       1.0  0.18688  0.62017  0.39734  1.0000
  C   C33       1.0  0.23053  0.64184  0.39775  1.0000
  C   C34       1.0  0.38708  0.76190  0.34588  1.0000
  C   C35       1.0  0.37346  0.78483  0.29403  1.0000
  C   C36       1.0  0.39510  0.82849  0.29446  1.0000
  C   C37       1.0  0.43169  0.85119  0.34588  1.0000
  C   C38       1.0  0.44561  0.82851  0.39730  1.0000
  C   C39       1.0  0.42362  0.78485  0.39771  1.0000
  H   H10       1.0  0.17177  0.54381  0.25490  1.0000
  H   H11       1.0  0.24545  0.58101  0.25365  1.0000
  H   H12       1.0  0.17173  0.63092  0.43688  1.0000
  H   H13       1.0  0.24542  0.66745  0.43814  1.0000
  H   H14       1.0  0.34786  0.76993  0.25366  1.0000
  H   H15       1.0  0.38434  0.84361  0.25489  1.0000
  H   H16       1.0  0.43432  0.76996  0.43815  1.0000
  H   H17       1.0  0.47149  0.84365  0.43688  1.0000
  H   H18       1.0  0.43437  0.66752  0.25366  1.0000
  H   H19       1.0  0.47158  0.63104  0.25492  1.0000
  H   H20       1.0  0.38445  0.54388  0.43687  1.0000
  H   H21       1.0  0.34793  0.58104  0.43813  1.0000
  H   H22       1.0  0.30506  0.59777  0.34590  1.0000
  H   H23       1.0  0.30502  0.71032  0.34589  1.0000
  H   H24       1.0  0.41760  0.71036  0.34589  1.0000
  C   C40       1.0  0.72028  0.36166  0.34585  1.0000
  C   C41       1.0  0.69761  0.38288  0.34585  1.0000
  C   C42       1.0  0.65372  0.36169  0.34585  1.0000
  C   C43       1.0  0.63250  0.31780  0.34584  1.0000
  C   C44       1.0  0.65369  0.29510  0.34584  1.0000
  C   C45       1.0  0.69758  0.31777  0.34585  1.0000
  C   C46       1.0  0.63149  0.38394  0.34584  1.0000
  C   C47       1.0  0.64381  0.41905  0.29003  1.0000
  C   C48       1.0  0.62198  0.44088  0.29001  1.0000
  C   C49       1.0  0.58688  0.42860  0.34585  1.0000
  C   C50       1.0  0.57458  0.39349  0.40168  1.0000
  C   C51       1.0  0.59638  0.37164  0.40165  1.0000
  C   C52       1.0  0.76475  0.38389  0.34585  1.0000
  C   C53       1.0  0.78757  0.41900  0.40165  1.0000
  C   C54       1.0  0.83121  0.44079  0.40171  1.0000
  C   C55       1.0  0.85403  0.42850  0.34586  1.0000
  C   C56       1.0  0.83120  0.39339  0.29003  1.0000
  C   C57       1.0  0.78755  0.37157  0.29005  1.0000
  C   C58       1.0  0.63144  0.25063  0.34584  1.0000
  C   C59       1.0  0.64374  0.22781  0.40163  1.0000
  C   C60       1.0  0.62189  0.18417  0.40166  1.0000
  C   C61       1.0  0.58677  0.16135  0.34584  1.0000
  C   C62       1.0  0.57451  0.18419  0.28999  1.0000
  C   C63       1.0  0.59632  0.22783  0.29004  1.0000
  H   H25       1.0  0.84621  0.46631  0.44234  1.0000
  H   H26       1.0  0.77257  0.42881  0.44419  1.0000
  H   H27       1.0  0.84618  0.38286  0.24938  1.0000
  H   H28       1.0  0.77254  0.34676  0.24753  1.0000
  H   H29       1.0  0.66855  0.24281  0.44418  1.0000
  H   H30       1.0  0.63240  0.16917  0.44234  1.0000
  H   H31       1.0  0.58652  0.24284  0.24752  1.0000
  H   H32       1.0  0.54898  0.16920  0.24938  1.0000
  H   H33       1.0  0.58657  0.34684  0.44419  1.0000
  H   H34       1.0  0.54908  0.38298  0.44235  1.0000
  H   H35       1.0  0.63252  0.46639  0.24937  1.0000
  H   H36       1.0  0.66862  0.42885  0.24752  1.0000
  H   H37       1.0  0.71347  0.41460  0.34585  1.0000
  H   H38       1.0  0.71343  0.30191  0.34585  1.0000
  H   H39       1.0  0.60078  0.30195  0.34584  1.0000
  C   C64       1.0  0.49826  0.51727  0.34586  1.0000
  C   C65       1.0  0.51933  0.56059  0.35907  1.0000
  C   C66       1.0  0.49748  0.58240  0.35861  1.0000
  H   H40       1.0  0.55073  0.57658  0.36900  1.0000
  H   H41       1.0  0.51365  0.61373  0.36932  1.0000
  C   C67       1.0  0.52030  0.49524  0.34586  1.0000
  C   C68       1.0  0.56466  0.45085  0.34586  1.0000
  C   C69       1.0  0.55044  0.45942  0.42713  1.0000
  C   C70       1.0  0.52843  0.48129  0.42837  1.0000
  H   H42       1.0  0.55666  0.45022  0.48738  1.0000
  N   N4        1.0  0.51424  0.48926  0.51062  1.0000
  O   O7        1.0  0.48919  0.45618  0.54994  1.0000
  O   O8        1.0  0.54376  0.51071  0.56333  1.0000
  C   C71       1.0  0.49810  0.98406  0.34586  1.0000
  C   C72       1.0  0.45478  0.96180  0.35904  1.0000
  C   C73       1.0  0.43297  0.91815  0.35857  1.0000
  H   H43       1.0  0.43879  0.97722  0.36894  1.0000
  H   H44       1.0  0.40164  0.90299  0.36927  1.0000
  C   C74       1.0  0.52013  0.02813  0.34586  1.0000
  C   C75       1.0  0.56452  0.11688  0.34585  1.0000
  C   C76       1.0  0.55597  0.09410  0.42712  1.0000
  C   C77       1.0  0.53409  0.05021  0.42836  1.0000
  H   H45       1.0  0.56517  0.10951  0.48738  1.0000
  N   N5        1.0  0.52613  0.02806  0.51061  1.0000
  O   O9        1.0  0.55921  0.03608  0.54992  1.0000
  O   O10       1.0  0.50468  0.03613  0.56333  1.0000
  C   C78       1.0  0.03132  0.51713  0.34587  1.0000
  C   C79       1.0  0.05357  0.49605  0.35904  1.0000
  C   C80       1.0  0.09723  0.51790  0.35858  1.0000
  H   H46       1.0  0.03815  0.46465  0.36895  1.0000
  H   H47       1.0  0.11239  0.50173  0.36928  1.0000
  C   C81       1.0  0.98725  0.49508  0.34587  1.0000
  C   C82       1.0  0.89850  0.45072  0.34587  1.0000
  C   C83       1.0  0.92128  0.46494  0.42714  1.0000
  C   C84       1.0  0.96517  0.48696  0.42837  1.0000
  H   H48       1.0  0.90587  0.45874  0.48739  1.0000
  N   N6        1.0  0.98733  0.50115  0.51063  1.0000
  O   O11       1.0  0.97930  0.52621  0.54994  1.0000
  O   O12       1.0  0.97926  0.47164  0.56333  1.0000
