data_image0
_chemical_formula_structural       C2HC2HC4HCNC8HC7HCH4N3C8HC7HCH4N4C3H2CHC3H2CHC3H2C4H2CHC3H2CHC3H2CHC7H4N4C3HCH3CHC3HCH3CHC3HCH3CHC3HCH3CHC3HCH3CHC3HCH3CH
_chemical_formula_sum              "C102 H66 N12"
_cell_length_a       30.6711
_cell_length_b       30.671
_cell_length_c       14.871
_cell_angle_alpha    90.0004
_cell_angle_beta     89.9996
_cell_angle_gamma    120

_space_group_name_H-M_alt    "P 1"
_space_group_IT_number       1

loop_
  _space_group_symop_operation_xyz
  'x, y, z'

loop_
  _atom_site_type_symbol
  _atom_site_label
  _atom_site_symmetry_multiplicity
  _atom_site_fract_x
  _atom_site_fract_y
  _atom_site_fract_z
  _atom_site_occupancy
  C   C1        1.0  0.04760  0.55351  0.34264  1.0000
  C   C2        1.0  0.04348  0.45925  0.33825  1.0000
  H   H1        1.0  0.04193  0.42518  0.34132  1.0000
  C   C3        1.0  0.04918  0.60120  0.34262  1.0000
  C   C4        1.0  0.05329  0.69546  0.33816  1.0000
  H   H2        1.0  0.05486  0.72954  0.34122  1.0000
  C   C5        1.0  0.09100  0.50353  0.34321  1.0000
  C   C6        1.0  0.09293  0.55107  0.34164  1.0000
  C   C7        1.0  0.09880  0.69439  0.33911  1.0000
  C   C8        1.0  0.09637  0.64686  0.33980  1.0000
  H   H3        1.0  0.13658  0.79766  0.31600  1.0000
  C   C9        1.0  0.13843  0.59687  0.32931  1.0000
  N   N1        1.0  0.13044  0.49498  0.35243  1.0000
  C   C10       1.0  0.57223  0.60042  0.34263  1.0000
  C   C11       1.0  0.61790  0.59888  0.33982  1.0000
  C   C12       1.0  0.66542  0.64398  0.33917  1.0000
  C   C13       1.0  0.66650  0.69056  0.33821  1.0000
  C   C14       1.0  0.62222  0.69380  0.34310  1.0000
  C   C15       1.0  0.57468  0.64820  0.34163  1.0000
  C   C16       1.0  0.61437  0.55148  0.32985  1.0000
  C   C17       1.0  0.52887  0.64789  0.32943  1.0000
  H   H4        1.0  0.70056  0.72307  0.34128  1.0000
  C   C18       1.0  0.52455  0.55430  0.34264  1.0000
  C   C19       1.0  0.52210  0.50652  0.34163  1.0000
  C   C20       1.0  0.47456  0.46092  0.34315  1.0000
  C   C21       1.0  0.43028  0.46416  0.33834  1.0000
  C   C22       1.0  0.43136  0.51074  0.33925  1.0000
  C   C23       1.0  0.47888  0.55584  0.33992  1.0000
  C   C24       1.0  0.56790  0.50683  0.32925  1.0000
  H   H5        1.0  0.39622  0.43164  0.34130  1.0000
  C   C25       1.0  0.48242  0.60324  0.32994  1.0000
  H   H6        1.0  0.56849  0.47493  0.31284  1.0000
  H   H7        1.0  0.64553  0.54879  0.31683  1.0000
  H   H8        1.0  0.45126  0.60594  0.31683  1.0000
  H   H9        1.0  0.52828  0.67976  0.31276  1.0000
  N   N2        1.0  0.63076  0.74179  0.35238  1.0000
  N   N3        1.0  0.38841  0.51351  0.34505  1.0000
  N   N4        1.0  0.46602  0.41292  0.35242  1.0000
  C   C26       1.0  0.52533  0.07814  0.34290  1.0000
  C   C27       1.0  0.52687  0.12535  0.34005  1.0000
  C   C28       1.0  0.48177  0.12777  0.33931  1.0000
  C   C29       1.0  0.43519  0.08227  0.33838  1.0000
  C   C30       1.0  0.43195  0.03475  0.34331  1.0000
  C   C31       1.0  0.47755  0.03282  0.34191  1.0000
  C   C32       1.0  0.57427  0.16922  0.33016  1.0000
  C   C33       1.0  0.47786  0.98732  0.32960  1.0000
  H   H10       1.0  0.40268  0.08384  0.34126  1.0000
  C   C34       1.0  0.57144  0.07657  0.34293  1.0000
  C   C35       1.0  0.61923  0.12190  0.34193  1.0000
  C   C36       1.0  0.66483  0.11997  0.34338  1.0000
  C   C37       1.0  0.66158  0.07245  0.33851  1.0000
  C   C38       1.0  0.61501  0.02695  0.33940  1.0000
  C   C39       1.0  0.56991  0.02937  0.34015  1.0000
  C   C40       1.0  0.61892  0.16740  0.32958  1.0000
  H   H11       1.0  0.69410  0.07089  0.34129  1.0000
  C   C41       1.0  0.52250  0.98549  0.33024  1.0000
  H   H12       1.0  0.65079  0.19984  0.31286  1.0000
  H   H13       1.0  0.57695  0.20304  0.31679  1.0000
  H   H14       1.0  0.51982  0.95168  0.31683  1.0000
  H   H15       1.0  0.44600  0.95487  0.31285  1.0000
  N   N5        1.0  0.38395  0.99530  0.35247  1.0000
  N   N6        1.0  0.48454  0.17349  0.34511  1.0000
  N   N7        1.0  0.61224  0.98123  0.34518  1.0000
  N   N8        1.0  0.71283  0.15942  0.35253  1.0000
  C   C42       1.0  0.29995  0.49278  0.35458  1.0000
  C   C43       1.0  0.25065  0.45787  0.32407  1.0000
  C   C44       1.0  0.21013  0.46695  0.33293  1.0000
  H   H16       1.0  0.24378  0.42558  0.29167  1.0000
  H   H17       1.0  0.17580  0.44120  0.30731  1.0000
  C   C45       1.0  0.33832  0.48049  0.33920  1.0000
  H   H18       1.0  0.32809  0.44525  0.31609  1.0000
  C   C46       1.0  0.63296  0.91350  0.35461  1.0000
  C   C47       1.0  0.66787  0.89911  0.32407  1.0000
  C   C48       1.0  0.65878  0.84951  0.33290  1.0000
  H   H19       1.0  0.70016  0.92453  0.29168  1.0000
  H   H20       1.0  0.68453  0.84093  0.30728  1.0000
  C   C49       1.0  0.64527  0.96417  0.33931  1.0000
  H   H21       1.0  0.68049  0.98917  0.31612  1.0000
  C   C50       1.0  0.21225  0.82580  0.35451  1.0000
  C   C51       1.0  0.22663  0.87510  0.32407  1.0000
  C   C52       1.0  0.27624  0.91560  0.33288  1.0000
  H   H22       1.0  0.20123  0.88197  0.29157  1.0000
  H   H23       1.0  0.28482  0.94994  0.30728  1.0000
  C   C53       1.0  0.16158  0.78742  0.33911  1.0000
  C   C54       1.0  0.79684  0.66195  0.35454  1.0000
  C   C55       1.0  0.84614  0.69686  0.32404  1.0000
  C   C56       1.0  0.88665  0.68777  0.33289  1.0000
  H   H24       1.0  0.85300  0.72914  0.29162  1.0000
  H   H25       1.0  0.92098  0.71352  0.30727  1.0000
  C   C57       1.0  0.75845  0.67423  0.33916  1.0000
  H   H26       1.0  0.76869  0.70947  0.31604  1.0000
  C   C58       1.0  0.46381  0.24122  0.35458  1.0000
  C   C59       1.0  0.42890  0.25561  0.32406  1.0000
  C   C60       1.0  0.43800  0.30521  0.33290  1.0000
  H   H27       1.0  0.39662  0.23019  0.29164  1.0000
  H   H28       1.0  0.41225  0.31379  0.30728  1.0000
  C   C61       1.0  0.45151  0.19054  0.33926  1.0000
  H   H29       1.0  0.41629  0.16556  0.31606  1.0000
  C   C62       1.0  0.88454  0.32892  0.35459  1.0000
  C   C63       1.0  0.87014  0.27962  0.32408  1.0000
  C   C64       1.0  0.82054  0.23911  0.33294  1.0000
  H   H30       1.0  0.89555  0.27275  0.29166  1.0000
  H   H31       1.0  0.81195  0.20478  0.30732  1.0000
  C   C65       1.0  0.93520  0.36730  0.33920  1.0000
  H   H32       1.0  0.96019  0.35705  0.31605  1.0000
  C   C66       1.0  0.00040  0.50785  0.33987  1.0000
  C   C67       1.0  0.99798  0.46033  0.33919  1.0000
  C   C68       1.0  0.95653  0.51138  0.32989  1.0000
  C   C69       1.0  0.00384  0.60365  0.34163  1.0000
  C   C70       1.0  0.00577  0.65118  0.34309  1.0000
  C   C71       1.0  0.95832  0.55784  0.32949  1.0000
  C   C72       1.0  0.14025  0.64333  0.32989  1.0000
  H   H33       1.0  0.92588  0.55725  0.31276  1.0000
  H   H34       1.0  0.92268  0.48022  0.31681  1.0000
  H   H35       1.0  0.17409  0.67449  0.31674  1.0000
  H   H36       1.0  0.17090  0.59745  0.31282  1.0000
  N   N9        1.0  0.95226  0.41738  0.34503  1.0000
  N   N10       1.0  0.14452  0.73733  0.34495  1.0000
  N   N11       1.0  0.96633  0.65973  0.35236  1.0000
  N   N12       1.0  0.70837  0.64121  0.34500  1.0000
  C   C73       1.0  0.21676  0.51099  0.37526  1.0000
  C   C74       1.0  0.26519  0.54492  0.40915  1.0000
  C   C75       1.0  0.30665  0.53687  0.39990  1.0000
  H   H37       1.0  0.27064  0.57701  0.44052  1.0000
  C   C76       1.0  0.35496  0.57460  0.44219  1.0000
  H   H38       1.0  0.35145  0.60184  0.48434  1.0000
  H   H39       1.0  0.38198  0.59575  0.38973  1.0000
  H   H40       1.0  0.36959  0.55593  0.48492  1.0000
  C   C77       1.0  0.17827  0.52334  0.38283  1.0000
  H   H41       1.0  0.18661  0.55551  0.41686  1.0000
  C   C78       1.0  0.61475  0.81210  0.37524  1.0000
  C   C79       1.0  0.58081  0.82659  0.40913  1.0000
  C   C80       1.0  0.58887  0.87610  0.39992  1.0000
  H   H42       1.0  0.54873  0.79994  0.44054  1.0000
  C   C81       1.0  0.55116  0.88669  0.44228  1.0000
  H   H43       1.0  0.52391  0.85593  0.48440  1.0000
  H   H44       1.0  0.53001  0.89258  0.38987  1.0000
  H   H45       1.0  0.56984  0.91997  0.48505  1.0000
  C   C82       1.0  0.60240  0.76125  0.38281  1.0000
  H   H46       1.0  0.57023  0.73742  0.41681  1.0000
  C   C83       1.0  0.31364  0.90897  0.37524  1.0000
  C   C84       1.0  0.29914  0.86054  0.40912  1.0000
  C   C85       1.0  0.24963  0.81909  0.39985  1.0000
  H   H47       1.0  0.32577  0.85510  0.44054  1.0000
  C   C86       1.0  0.23903  0.77077  0.44216  1.0000
  H   H48       1.0  0.26977  0.77428  0.48433  1.0000
  H   H49       1.0  0.23318  0.74376  0.38972  1.0000
  H   H50       1.0  0.20573  0.75615  0.48488  1.0000
  C   C87       1.0  0.36448  0.94747  0.38285  1.0000
  H   H51       1.0  0.38830  0.93912  0.41688  1.0000
  C   C88       1.0  0.88002  0.64374  0.37524  1.0000
  C   C89       1.0  0.83159  0.60981  0.40913  1.0000
  C   C90       1.0  0.79014  0.61787  0.39989  1.0000
  H   H52       1.0  0.82615  0.57773  0.44054  1.0000
  C   C91       1.0  0.74183  0.58014  0.44220  1.0000
  H   H53       1.0  0.74534  0.55291  0.48437  1.0000
  H   H54       1.0  0.71481  0.55898  0.38976  1.0000
  H   H55       1.0  0.72720  0.59882  0.48492  1.0000
  C   C92       1.0  0.91851  0.63137  0.38279  1.0000
  H   H56       1.0  0.91017  0.59921  0.41682  1.0000
  C   C93       1.0  0.48202  0.34261  0.37528  1.0000
  C   C94       1.0  0.51595  0.32812  0.40917  1.0000
  C   C95       1.0  0.50790  0.27861  0.39992  1.0000
  H   H57       1.0  0.54804  0.35476  0.44055  1.0000
  C   C96       1.0  0.54562  0.26802  0.44224  1.0000
  H   H58       1.0  0.57287  0.29878  0.48437  1.0000
  H   H59       1.0  0.56677  0.26214  0.38980  1.0000
  H   H60       1.0  0.52695  0.23473  0.48499  1.0000
  C   C97       1.0  0.49438  0.39347  0.38282  1.0000
  H   H61       1.0  0.52655  0.41729  0.41686  1.0000
  C   C98       1.0  0.78314  0.24574  0.37531  1.0000
  C   C99       1.0  0.79764  0.29418  0.40919  1.0000
  C   C100      1.0  0.84715  0.33563  0.39991  1.0000
  H   H62       1.0  0.77100  0.29963  0.44056  1.0000
  C   C101      1.0  0.85774  0.38394  0.44222  1.0000
  H   H63       1.0  0.82700  0.38044  0.48438  1.0000
  H   H64       1.0  0.86359  0.41096  0.38977  1.0000
  H   H65       1.0  0.89105  0.39857  0.48493  1.0000
  C   C102      1.0  0.73229  0.20726  0.38289  1.0000
  H   H66       1.0  0.70847  0.21560  0.41693  1.0000
