data_image0
_chemical_formula_structural       C8H7CHC8H7CHC8H7CHC8H7CHC8H7CHC8H7CHC4H3CH3NC4H3CH3NC4H3CH3NC4H3CH3NC4H3CH3NC4H3CH3NC4H3CH3NC4H3CH3NC4H3CH3NC10H6C6H2C2H2C10H6C6H2C2H2C10H6C6H2C2H2C10H6C6H2C2H2C10H6C6H2C2H2C10H6C6H2C2H2C4H3CH3NC4H3CH3NC4H3CH3NC4H3CH3NC4H3CH3NC4H3CH3NC4H3CH3NC4H3CH3NC4H3CH3N
_chemical_formula_sum              "C252 H216 N18"
_cell_length_a       78.5147
_cell_length_b       78.5147
_cell_length_c       14.8551
_cell_angle_alpha    90
_cell_angle_beta     90
_cell_angle_gamma    120

_space_group_name_H-M_alt    "P 1"
_space_group_IT_number       1

loop_
  _space_group_symop_operation_xyz
  'x, y, z'

loop_
  _atom_site_type_symbol
  _atom_site_label
  _atom_site_symmetry_multiplicity
  _atom_site_fract_x
  _atom_site_fract_y
  _atom_site_fract_z
  _atom_site_occupancy
  C   C1        1.0  0.12399  0.56002  0.33784  1.0000
  C   C2        1.0  0.20338  0.63418  0.27747  1.0000
  C   C3        1.0  0.21666  0.65451  0.28302  1.0000
  C   C4        1.0  0.08146  0.53587  0.33414  1.0000
  C   C5        1.0  0.09365  0.53037  0.28720  1.0000
  C   C6        1.0  0.11432  0.54217  0.28857  1.0000
  C   C7        1.0  0.19327  0.55733  0.26967  1.0000
  C   C8        1.0  0.20960  0.55456  0.26081  1.0000
  H   H1        1.0  0.22827  0.66061  0.23919  1.0000
  H   H2        1.0  0.12227  0.53746  0.25250  1.0000
  H   H3        1.0  0.08757  0.51747  0.25164  1.0000
  H   H4        1.0  0.18532  0.55633  0.21329  1.0000
  H   H5        1.0  0.21276  0.55122  0.19865  1.0000
  H   H6        1.0  0.14789  0.59967  0.33531  1.0000
  H   H7        1.0  0.20592  0.62621  0.23033  1.0000
  C   C9        1.0  0.06107  0.52297  0.33612  1.0000
  H   H8        1.0  0.05625  0.50863  0.33016  1.0000
  C   C10       1.0  0.45218  0.56641  0.33785  1.0000
  C   C11       1.0  0.37802  0.57163  0.27736  1.0000
  C   C12       1.0  0.35769  0.56459  0.28292  1.0000
  C   C13       1.0  0.47634  0.54804  0.33417  1.0000
  C   C14       1.0  0.48184  0.56574  0.28722  1.0000
  C   C15       1.0  0.47003  0.57459  0.28858  1.0000
  C   C16       1.0  0.45494  0.63843  0.26992  1.0000
  C   C17       1.0  0.45776  0.65755  0.26114  1.0000
  H   H9        1.0  0.35159  0.57011  0.23910  1.0000
  H   H10       1.0  0.47473  0.58726  0.25253  1.0000
  H   H11       1.0  0.49473  0.57254  0.25162  1.0000
  H   H12       1.0  0.45607  0.63153  0.21365  1.0000
  H   H13       1.0  0.46117  0.66409  0.19906  1.0000
  H   H14       1.0  0.41253  0.55066  0.33525  1.0000
  H   H15       1.0  0.38600  0.58216  0.23027  1.0000
  C   C18       1.0  0.48923  0.54055  0.33607  1.0000
  H   H16       1.0  0.50357  0.55006  0.33002  1.0000
  C   C19       1.0  0.44578  0.88820  0.33785  1.0000
  C   C20       1.0  0.44060  0.80885  0.27737  1.0000
  C   C21       1.0  0.44761  0.79554  0.28301  1.0000
  C   C22       1.0  0.46415  0.93073  0.33412  1.0000
  C   C23       1.0  0.44645  0.91853  0.28722  1.0000
  C   C24       1.0  0.43760  0.89787  0.28861  1.0000
  C   C25       1.0  0.37378  0.81895  0.26995  1.0000
  C   C26       1.0  0.35467  0.80262  0.26115  1.0000
  H   H17       1.0  0.44211  0.78393  0.23916  1.0000
  H   H18       1.0  0.42492  0.88991  0.25258  1.0000
  H   H19       1.0  0.43964  0.92462  0.25167  1.0000
  H   H20       1.0  0.38068  0.82699  0.21373  1.0000
  H   H21       1.0  0.34810  0.79953  0.19914  1.0000
  H   H22       1.0  0.46155  0.86432  0.33529  1.0000
  H   H23       1.0  0.43006  0.80629  0.23030  1.0000
  C   C27       1.0  0.47164  0.95112  0.33609  1.0000
  H   H24       1.0  0.46212  0.95594  0.33013  1.0000
  C   C28       1.0  0.89058  0.44962  0.33673  1.0000
  C   C29       1.0  0.81124  0.37548  0.27930  1.0000
  C   C30       1.0  0.79795  0.35515  0.28495  1.0000
  C   C31       1.0  0.93310  0.47375  0.32904  1.0000
  C   C32       1.0  0.92068  0.47881  0.28103  1.0000
  C   C33       1.0  0.90003  0.46706  0.28451  1.0000
  C   C34       1.0  0.82139  0.45235  0.27020  1.0000
  C   C35       1.0  0.80508  0.45517  0.26131  1.0000
  H   H25       1.0  0.78634  0.34904  0.24110  1.0000
  H   H26       1.0  0.89191  0.47144  0.24756  1.0000
  H   H27       1.0  0.92659  0.49135  0.24291  1.0000
  H   H28       1.0  0.82933  0.45332  0.21384  1.0000
  H   H29       1.0  0.80191  0.45849  0.19911  1.0000
  H   H30       1.0  0.86675  0.41000  0.33646  1.0000
  H   H31       1.0  0.80870  0.38344  0.23208  1.0000
  C   C36       1.0  0.95354  0.48655  0.32729  1.0000
  H   H32       1.0  0.95844  0.50042  0.30851  1.0000
  C   C37       1.0  0.56258  0.44340  0.33675  1.0000
  C   C38       1.0  0.63672  0.43821  0.27925  1.0000
  C   C39       1.0  0.65704  0.44524  0.28486  1.0000
  C   C40       1.0  0.53845  0.46180  0.32910  1.0000
  C   C41       1.0  0.53338  0.44430  0.28111  1.0000
  C   C42       1.0  0.54514  0.43541  0.28458  1.0000
  C   C43       1.0  0.55981  0.37142  0.27063  1.0000
  C   C44       1.0  0.55697  0.35229  0.26194  1.0000
  H   H33       1.0  0.66315  0.43973  0.24102  1.0000
  H   H34       1.0  0.54075  0.42290  0.24767  1.0000
  H   H35       1.0  0.52084  0.43766  0.24304  1.0000
  H   H36       1.0  0.55875  0.37835  0.21431  1.0000
  H   H37       1.0  0.55359  0.34575  0.19986  1.0000
  H   H38       1.0  0.60221  0.45920  0.33638  1.0000
  H   H39       1.0  0.62874  0.42768  0.23211  1.0000
  C   C45       1.0  0.52565  0.46943  0.32735  1.0000
  H   H40       1.0  0.51178  0.46046  0.30858  1.0000
  C   C46       1.0  0.56879  0.12162  0.33671  1.0000
  C   C47       1.0  0.57398  0.20094  0.27931  1.0000
  C   C48       1.0  0.56696  0.21425  0.28499  1.0000
  C   C49       1.0  0.55039  0.07909  0.32903  1.0000
  C   C50       1.0  0.56788  0.09151  0.28106  1.0000
  C   C51       1.0  0.57677  0.11216  0.28454  1.0000
  C   C52       1.0  0.64070  0.19085  0.27041  1.0000
  C   C53       1.0  0.65982  0.20715  0.26155  1.0000
  H   H41       1.0  0.57247  0.22586  0.24117  1.0000
  H   H42       1.0  0.58929  0.12028  0.24764  1.0000
  H   H43       1.0  0.57452  0.08560  0.24299  1.0000
  H   H44       1.0  0.63374  0.18288  0.21412  1.0000
  H   H45       1.0  0.66632  0.21030  0.19937  1.0000
  H   H46       1.0  0.55299  0.14544  0.33640  1.0000
  H   H47       1.0  0.58451  0.20350  0.23222  1.0000
  C   C54       1.0  0.54275  0.05865  0.32732  1.0000
  H   H48       1.0  0.55173  0.05375  0.30860  1.0000
  C   C55       1.0  0.02829  0.51695  0.34260  1.0000
  C   C56       1.0  0.01775  0.50884  0.26081  1.0000
  C   C57       1.0  0.99681  0.49641  0.26274  1.0000
  C   C58       1.0  0.98502  0.48636  0.18015  1.0000
  H   H49       1.0  0.99363  0.48777  0.12044  1.0000
  H   H50       1.0  0.97550  0.49233  0.16331  1.0000
  H   H51       1.0  0.97585  0.47061  0.19274  1.0000
  C   C59       1.0  0.02849  0.51374  0.17274  1.0000
  H   H52       1.0  0.04403  0.52479  0.17690  1.0000
  H   H53       1.0  0.02196  0.51959  0.12603  1.0000
  H   H54       1.0  0.02758  0.50052  0.14390  1.0000
  N   N1        1.0  0.04808  0.52842  0.34218  1.0000
  C   C60       1.0  0.49525  0.51378  0.34264  1.0000
  C   C61       1.0  0.50334  0.51134  0.26085  1.0000
  C   C62       1.0  0.51579  0.50284  0.26277  1.0000
  C   C63       1.0  0.52582  0.50108  0.18017  1.0000
  H   H55       1.0  0.52441  0.50829  0.12045  1.0000
  H   H56       1.0  0.51985  0.48559  0.16335  1.0000
  H   H57       1.0  0.54158  0.50767  0.19274  1.0000
  C   C64       1.0  0.49844  0.51718  0.17277  1.0000
  H   H58       1.0  0.48738  0.52165  0.17694  1.0000
  H   H59       1.0  0.49258  0.50478  0.12609  1.0000
  H   H60       1.0  0.51165  0.52949  0.14389  1.0000
  N   N2        1.0  0.48379  0.52211  0.34224  1.0000
  C   C65       1.0  0.49840  0.98391  0.34256  1.0000
  C   C66       1.0  0.50084  0.99444  0.26077  1.0000
  C   C67       1.0  0.50934  0.01538  0.26270  1.0000
  C   C68       1.0  0.51110  0.02718  0.18010  1.0000
  H   H61       1.0  0.50389  0.01856  0.12038  1.0000
  H   H62       1.0  0.52659  0.03670  0.16329  1.0000
  H   H63       1.0  0.50451  0.03635  0.19267  1.0000
  C   C69       1.0  0.49498  0.98370  0.17270  1.0000
  H   H64       1.0  0.49050  0.96816  0.17687  1.0000
  H   H65       1.0  0.50738  0.99023  0.12601  1.0000
  H   H66       1.0  0.48268  0.98461  0.14384  1.0000
  N   N3        1.0  0.49007  0.96411  0.34215  1.0000
  C   C70       1.0  0.26296  0.54876  0.35735  1.0000
  C   C71       1.0  0.26905  0.54356  0.27652  1.0000
  C   C72       1.0  0.28840  0.54624  0.27072  1.0000
  C   C73       1.0  0.25528  0.53521  0.19797  1.0000
  H   H67       1.0  0.24030  0.53183  0.21214  1.0000
  H   H68       1.0  0.25411  0.52137  0.17662  1.0000
  H   H69       1.0  0.26071  0.54556  0.14179  1.0000
  C   C74       1.0  0.29548  0.54240  0.18326  1.0000
  H   H70       1.0  0.31074  0.54580  0.18379  1.0000
  H   H71       1.0  0.29432  0.55133  0.12992  1.0000
  H   H72       1.0  0.28659  0.52690  0.16517  1.0000
  N   N4        1.0  0.24567  0.54837  0.36289  1.0000
  C   C75       1.0  0.46346  0.71664  0.35731  1.0000
  C   C76       1.0  0.46859  0.72790  0.27640  1.0000
  C   C77       1.0  0.46592  0.74458  0.27068  1.0000
  C   C78       1.0  0.47687  0.72244  0.19769  1.0000
  H   H73       1.0  0.48024  0.71084  0.21175  1.0000
  H   H74       1.0  0.49070  0.73510  0.17614  1.0000
  H   H75       1.0  0.46648  0.71754  0.14168  1.0000
  C   C79       1.0  0.46971  0.75548  0.18317  1.0000
  H   H76       1.0  0.46632  0.76735  0.18380  1.0000
  H   H77       1.0  0.46073  0.74538  0.12996  1.0000
  H   H78       1.0  0.48519  0.76206  0.16484  1.0000
  N   N5        1.0  0.46387  0.69976  0.36284  1.0000
  C   C80       1.0  0.29555  0.74926  0.35737  1.0000
  C   C81       1.0  0.28430  0.74314  0.27644  1.0000
  C   C82       1.0  0.26762  0.72379  0.27070  1.0000
  C   C83       1.0  0.28976  0.75687  0.19774  1.0000
  H   H79       1.0  0.30136  0.77185  0.21181  1.0000
  H   H80       1.0  0.27711  0.75805  0.17615  1.0000
  H   H81       1.0  0.29468  0.75140  0.14174  1.0000
  C   C84       1.0  0.25672  0.71667  0.18318  1.0000
  H   H82       1.0  0.24486  0.70142  0.18378  1.0000
  H   H83       1.0  0.26683  0.71780  0.12999  1.0000
  H   H84       1.0  0.25015  0.72557  0.16483  1.0000
  N   N6        1.0  0.31244  0.76655  0.36291  1.0000
  C   C85       1.0  0.75176  0.46102  0.35866  1.0000
  C   C86       1.0  0.74569  0.46631  0.27803  1.0000
  C   C87       1.0  0.72634  0.46365  0.27239  1.0000
  C   C88       1.0  0.75946  0.47473  0.19956  1.0000
  H   H85       1.0  0.77445  0.47813  0.21370  1.0000
  H   H86       1.0  0.76062  0.48858  0.17849  1.0000
  H   H87       1.0  0.75404  0.46444  0.14320  1.0000
  C   C89       1.0  0.71926  0.46755  0.18507  1.0000
  H   H88       1.0  0.70400  0.46414  0.18567  1.0000
  H   H89       1.0  0.72042  0.45867  0.13154  1.0000
  H   H90       1.0  0.72815  0.48306  0.16723  1.0000
  N   N7        1.0  0.76903  0.46137  0.36401  1.0000
  C   C90       1.0  0.55115  0.29317  0.35877  1.0000
  C   C91       1.0  0.54600  0.28188  0.27795  1.0000
  C   C92       1.0  0.54866  0.26519  0.27236  1.0000
  C   C93       1.0  0.53773  0.28732  0.19918  1.0000
  H   H91       1.0  0.53435  0.29893  0.21316  1.0000
  H   H92       1.0  0.52389  0.27467  0.17767  1.0000
  H   H93       1.0  0.54811  0.29221  0.14316  1.0000
  C   C94       1.0  0.54486  0.25426  0.18492  1.0000
  H   H94       1.0  0.54824  0.24239  0.18563  1.0000
  H   H95       1.0  0.55384  0.26435  0.13167  1.0000
  H   H96       1.0  0.52938  0.24769  0.16659  1.0000
  N   N8        1.0  0.55078  0.31008  0.36415  1.0000
  C   C95       1.0  0.71902  0.26044  0.35879  1.0000
  C   C96       1.0  0.73035  0.26653  0.27809  1.0000
  C   C97       1.0  0.74704  0.28588  0.27247  1.0000
  C   C98       1.0  0.72496  0.25279  0.19949  1.0000
  H   H97       1.0  0.71336  0.23780  0.21356  1.0000
  H   H98       1.0  0.73764  0.25161  0.17825  1.0000
  H   H99       1.0  0.72008  0.25823  0.14327  1.0000
  C   C99       1.0  0.75800  0.29298  0.18511  1.0000
  H   H100      1.0  0.76986  0.30824  0.18576  1.0000
  H   H101      1.0  0.74794  0.29185  0.13169  1.0000
  H   H102      1.0  0.76460  0.28409  0.16707  1.0000
  N   N9        1.0  0.70210  0.24316  0.36415  1.0000
  C   C100      1.0  0.18740  0.62465  0.33819  1.0000
  C   C101      1.0  0.18952  0.56396  0.35180  1.0000
  C   C102      1.0  0.21449  0.66616  0.34967  1.0000
  C   C103      1.0  0.19799  0.65682  0.40768  1.0000
  C   C104      1.0  0.18469  0.63641  0.40222  1.0000
  C   C105      1.0  0.11169  0.56569  0.38329  1.0000
  C   C106      1.0  0.09093  0.55394  0.38153  1.0000
  C   C107      1.0  0.22244  0.55808  0.33411  1.0000
  C   C108      1.0  0.21824  0.56392  0.41729  1.0000
  C   C109      1.0  0.20209  0.56697  0.42569  1.0000
  H   H103      1.0  0.19598  0.66469  0.45733  1.0000
  H   H104      1.0  0.17370  0.63002  0.44903  1.0000
  H   H105      1.0  0.11778  0.57822  0.42134  1.0000
  H   H106      1.0  0.08279  0.55841  0.41785  1.0000
  H   H107      1.0  0.22778  0.56756  0.47027  1.0000
  H   H108      1.0  0.20046  0.57286  0.48431  1.0000
  C   C110      1.0  0.17750  0.57280  0.35156  1.0000
  C   C111      1.0  0.15674  0.56202  0.34683  1.0000
  C   C112      1.0  0.14525  0.57143  0.34250  1.0000
  C   C113      1.0  0.15559  0.59239  0.34145  1.0000
  C   C114      1.0  0.17644  0.60363  0.34272  1.0000
  C   C115      1.0  0.18699  0.59348  0.34938  1.0000
  H   H109      1.0  0.14997  0.54700  0.34908  1.0000
  H   H110      1.0  0.20207  0.60135  0.35181  1.0000
  C   C116      1.0  0.24044  0.55928  0.32013  1.0000
  C   C117      1.0  0.22820  0.68609  0.35937  1.0000
  H   H111      1.0  0.24970  0.56929  0.27668  1.0000
  H   H112      1.0  0.22388  0.69509  0.38430  1.0000
  C   C118      1.0  0.38755  0.56519  0.33814  1.0000
  C   C119      1.0  0.44824  0.62799  0.35187  1.0000
  C   C120      1.0  0.34605  0.55077  0.34958  1.0000
  C   C121      1.0  0.35537  0.54360  0.40754  1.0000
  C   C122      1.0  0.37579  0.55071  0.40211  1.0000
  C   C123      1.0  0.44650  0.54842  0.38320  1.0000
  C   C124      1.0  0.45826  0.53944  0.38151  1.0000
  C   C125      1.0  0.45412  0.66681  0.33431  1.0000
  C   C126      1.0  0.44821  0.65674  0.41741  1.0000
  C   C127      1.0  0.44515  0.63753  0.42571  1.0000
  H   H113      1.0  0.34752  0.53375  0.45728  1.0000
  H   H114      1.0  0.38219  0.54613  0.44899  1.0000
  H   H115      1.0  0.43398  0.54200  0.42132  1.0000
  H   H116      1.0  0.45379  0.52682  0.41778  1.0000
  H   H117      1.0  0.44442  0.66256  0.47017  1.0000
  H   H118      1.0  0.43916  0.62997  0.48414  1.0000
  C   C128      1.0  0.43940  0.60713  0.35173  1.0000
  C   C129      1.0  0.45018  0.59716  0.34690  1.0000
  C   C130      1.0  0.44076  0.57626  0.34252  1.0000
  C   C131      1.0  0.41981  0.56563  0.34155  1.0000
  C   C132      1.0  0.40857  0.57525  0.34275  1.0000
  C   C133      1.0  0.41872  0.59595  0.34943  1.0000
  H   H119      1.0  0.46519  0.60540  0.34915  1.0000
  H   H120      1.0  0.41085  0.60316  0.35179  1.0000
  C   C134      1.0  0.45289  0.68359  0.32041  1.0000
  C   C135      1.0  0.32611  0.54456  0.35932  1.0000
  H   H121      1.0  0.44280  0.68280  0.27732  1.0000
  H   H122      1.0  0.31712  0.53126  0.38432  1.0000
  C   C136      1.0  0.44703  0.82481  0.33817  1.0000
  C   C137      1.0  0.38421  0.82266  0.35187  1.0000
  C   C138      1.0  0.46143  0.79771  0.34966  1.0000
  C   C139      1.0  0.46859  0.81420  0.40769  1.0000
  C   C140      1.0  0.46148  0.82751  0.40228  1.0000
  C   C141      1.0  0.46377  0.90051  0.38322  1.0000
  C   C142      1.0  0.47276  0.92126  0.38149  1.0000
  C   C143      1.0  0.34540  0.78973  0.33433  1.0000
  C   C144      1.0  0.35550  0.79387  0.41736  1.0000
  C   C145      1.0  0.37469  0.81002  0.42570  1.0000
  H   H123      1.0  0.47847  0.81622  0.45733  1.0000
  H   H124      1.0  0.46609  0.83851  0.44902  1.0000
  H   H125      1.0  0.47019  0.89442  0.42135  1.0000
  H   H126      1.0  0.48536  0.92941  0.41781  1.0000
  H   H127      1.0  0.34963  0.78429  0.47024  1.0000
  H   H128      1.0  0.38225  0.81163  0.48419  1.0000
  C   C146      1.0  0.40507  0.83469  0.35183  1.0000
  C   C147      1.0  0.41503  0.85545  0.34698  1.0000
  C   C148      1.0  0.43594  0.86694  0.34254  1.0000
  C   C149      1.0  0.44657  0.85662  0.34147  1.0000
  C   C150      1.0  0.43696  0.83577  0.34274  1.0000
  C   C151      1.0  0.41626  0.82520  0.34946  1.0000
  H   H129      1.0  0.40679  0.86222  0.34916  1.0000
  H   H130      1.0  0.40906  0.81013  0.35184  1.0000
  C   C152      1.0  0.32861  0.77173  0.32045  1.0000
  C   C153      1.0  0.46764  0.78399  0.35941  1.0000
  H   H131      1.0  0.32939  0.76244  0.27731  1.0000
  H   H132      1.0  0.48097  0.78831  0.38421  1.0000
  C   C154      1.0  0.82722  0.38502  0.34002  1.0000
  C   C155      1.0  0.82511  0.44572  0.35238  1.0000
  C   C156      1.0  0.80011  0.34352  0.35171  1.0000
  C   C157      1.0  0.81661  0.35286  0.40970  1.0000
  C   C158      1.0  0.82992  0.37328  0.40418  1.0000
  C   C159      1.0  0.90304  0.44433  0.38329  1.0000
  C   C160      1.0  0.92379  0.45610  0.37973  1.0000
  C   C161      1.0  0.79225  0.45167  0.33461  1.0000
  C   C162      1.0  0.79645  0.44587  0.41791  1.0000
  C   C163      1.0  0.81257  0.44277  0.42634  1.0000
  H   H133      1.0  0.81860  0.34502  0.45950  1.0000
  H   H134      1.0  0.84090  0.37968  0.45100  1.0000
  H   H135      1.0  0.89708  0.43208  0.42321  1.0000
  H   H136      1.0  0.93206  0.45187  0.41654  1.0000
  H   H137      1.0  0.78691  0.44226  0.47086  1.0000
  H   H138      1.0  0.81420  0.43691  0.48502  1.0000
  C   C164      1.0  0.83714  0.43689  0.35243  1.0000
  C   C165      1.0  0.85788  0.44766  0.34681  1.0000
  C   C166      1.0  0.86935  0.43822  0.34270  1.0000
  C   C167      1.0  0.85904  0.41727  0.34260  1.0000
  C   C168      1.0  0.83819  0.40604  0.34441  1.0000
  C   C169      1.0  0.82764  0.41620  0.35099  1.0000
  H   H139      1.0  0.86468  0.46268  0.34816  1.0000
  H   H140      1.0  0.81257  0.40834  0.35377  1.0000
  C   C170      1.0  0.77428  0.45054  0.32065  1.0000
  C   C171      1.0  0.78639  0.32359  0.36149  1.0000
  H   H141      1.0  0.76504  0.44062  0.27683  1.0000
  H   H142      1.0  0.79070  0.31460  0.38660  1.0000
  C   C172      1.0  0.62718  0.44464  0.34001  1.0000
  C   C173      1.0  0.56649  0.38184  0.35261  1.0000
  C   C174      1.0  0.66869  0.45905  0.35156  1.0000
  C   C175      1.0  0.65935  0.46621  0.40956  1.0000
  C   C176      1.0  0.63893  0.45912  0.40402  1.0000
  C   C177      1.0  0.56789  0.46118  0.38320  1.0000
  C   C178      1.0  0.55612  0.47015  0.37966  1.0000
  C   C179      1.0  0.56056  0.34302  0.33523  1.0000
  C   C180      1.0  0.56646  0.35310  0.41830  1.0000
  C   C181      1.0  0.56949  0.37229  0.42664  1.0000
  H   H143      1.0  0.66721  0.47608  0.45922  1.0000
  H   H144      1.0  0.63253  0.46370  0.45084  1.0000
  H   H145      1.0  0.58013  0.46746  0.42318  1.0000
  H   H146      1.0  0.56034  0.48264  0.41651  1.0000
  H   H147      1.0  0.57014  0.34723  0.47127  1.0000
  H   H148      1.0  0.57545  0.37985  0.48511  1.0000
  C   C182      1.0  0.57532  0.40270  0.35265  1.0000
  C   C183      1.0  0.56454  0.41267  0.34695  1.0000
  C   C184      1.0  0.57398  0.43357  0.34275  1.0000
  C   C185      1.0  0.59494  0.44422  0.34267  1.0000
  C   C186      1.0  0.60617  0.43460  0.34443  1.0000
  C   C187      1.0  0.59601  0.41389  0.35109  1.0000
  H   H149      1.0  0.54953  0.40445  0.34833  1.0000
  H   H150      1.0  0.60387  0.40669  0.35385  1.0000
  C   C188      1.0  0.56175  0.32621  0.32149  1.0000
  C   C189      1.0  0.68862  0.46526  0.36131  1.0000
  H   H151      1.0  0.57179  0.32696  0.27826  1.0000
  H   H152      1.0  0.69761  0.47856  0.38643  1.0000
  C   C190      1.0  0.56754  0.18497  0.34007  1.0000
  C   C191      1.0  0.63034  0.18708  0.35263  1.0000
  C   C192      1.0  0.55314  0.21207  0.35165  1.0000
  C   C193      1.0  0.54598  0.19557  0.40964  1.0000
  C   C194      1.0  0.55310  0.18227  0.40419  1.0000
  C   C195      1.0  0.55102  0.10915  0.38319  1.0000
  C   C196      1.0  0.54204  0.08840  0.37963  1.0000
  C   C197      1.0  0.66917  0.21997  0.33487  1.0000
  C   C198      1.0  0.65916  0.21577  0.41812  1.0000
  C   C199      1.0  0.63995  0.19963  0.42655  1.0000
  H   H153      1.0  0.53610  0.19356  0.45928  1.0000
  H   H154      1.0  0.54847  0.17126  0.45087  1.0000
  H   H155      1.0  0.54474  0.11511  0.42318  1.0000
  H   H156      1.0  0.52955  0.08013  0.41651  1.0000
  H   H157      1.0  0.66508  0.22529  0.47116  1.0000
  H   H158      1.0  0.63245  0.19798  0.48526  1.0000
  C   C200      1.0  0.60949  0.17505  0.35259  1.0000
  C   C201      1.0  0.59952  0.15431  0.34692  1.0000
  C   C202      1.0  0.57862  0.14284  0.34270  1.0000
  C   C203      1.0  0.56797  0.15315  0.34255  1.0000
  C   C204      1.0  0.57759  0.17400  0.34444  1.0000
  C   C205      1.0  0.59830  0.18455  0.35114  1.0000
  H   H159      1.0  0.60775  0.14752  0.34827  1.0000
  H   H160      1.0  0.60550  0.19962  0.35395  1.0000
  C   C206      1.0  0.68600  0.23795  0.32105  1.0000
  C   C207      1.0  0.54693  0.22579  0.36137  1.0000
  H   H161      1.0  0.68530  0.24721  0.27743  1.0000
  H   H162      1.0  0.53362  0.22148  0.38632  1.0000
  C   C208      1.0  0.98638  0.49328  0.34531  1.0000
  C   C209      1.0  0.99685  0.50164  0.42676  1.0000
  C   C210      1.0  0.01786  0.51349  0.42540  1.0000
  C   C211      1.0  0.98593  0.49804  0.51402  1.0000
  H   H163      1.0  0.97002  0.48879  0.50840  1.0000
  H   H164      1.0  0.98870  0.51199  0.54277  1.0000
  H   H165      1.0  0.99078  0.49076  0.56166  1.0000
  C   C212      1.0  0.02881  0.52223  0.51148  1.0000
  H   H166      1.0  0.04472  0.53106  0.50406  1.0000
  H   H167      1.0  0.02601  0.51056  0.55928  1.0000
  H   H168      1.0  0.02399  0.53184  0.54103  1.0000
  N   N10       1.0  0.96658  0.48168  0.34684  1.0000
  C   C213      1.0  0.51892  0.49554  0.34534  1.0000
  C   C214      1.0  0.51057  0.49767  0.42680  1.0000
  C   C215      1.0  0.49872  0.50682  0.42545  1.0000
  C   C216      1.0  0.51418  0.49034  0.51407  1.0000
  H   H169      1.0  0.52343  0.48369  0.50844  1.0000
  H   H170      1.0  0.50023  0.47917  0.54285  1.0000
  H   H171      1.0  0.52146  0.50248  0.56168  1.0000
  C   C217      1.0  0.48998  0.50904  0.51154  1.0000
  H   H172      1.0  0.48116  0.51612  0.50413  1.0000
  H   H173      1.0  0.50166  0.51792  0.55931  1.0000
  H   H174      1.0  0.48038  0.49461  0.54113  1.0000
  N   N11       1.0  0.53051  0.48733  0.34686  1.0000
  C   C218      1.0  0.51664  0.02581  0.34527  1.0000
  C   C219      1.0  0.51452  0.01534  0.42672  1.0000
  C   C220      1.0  0.50537  0.99433  0.42537  1.0000
  C   C221      1.0  0.52185  0.02627  0.51399  1.0000
  H   H175      1.0  0.52850  0.04217  0.50837  1.0000
  H   H176      1.0  0.53302  0.02350  0.54276  1.0000
  H   H177      1.0  0.50971  0.02141  0.56161  1.0000
  C   C222      1.0  0.50316  0.98338  0.51146  1.0000
  H   H178      1.0  0.49608  0.96747  0.50404  1.0000
  H   H179      1.0  0.49428  0.98618  0.55924  1.0000
  H   H180      1.0  0.51758  0.98821  0.54102  1.0000
  N   N12       1.0  0.52485  0.04562  0.34679  1.0000
  C   C223      1.0  0.30083  0.55266  0.34794  1.0000
  C   C224      1.0  0.29440  0.55695  0.43024  1.0000
  C   C225      1.0  0.27525  0.55483  0.43505  1.0000
  C   C226      1.0  0.26742  0.55909  0.51918  1.0000
  H   H181      1.0  0.27690  0.56292  0.57791  1.0000
  H   H182      1.0  0.25348  0.54617  0.53780  1.0000
  H   H183      1.0  0.26484  0.57134  0.50702  1.0000
  C   C227      1.0  0.30777  0.56412  0.51049  1.0000
  H   H184      1.0  0.32229  0.56594  0.49952  1.0000
  H   H185      1.0  0.30114  0.55372  0.56596  1.0000
  H   H186      1.0  0.31013  0.57848  0.53129  1.0000
  N   N13       1.0  0.31924  0.55601  0.34075  1.0000
  C   C228      1.0  0.45955  0.75061  0.34800  1.0000
  C   C229      1.0  0.45532  0.73992  0.43034  1.0000
  C   C230      1.0  0.45745  0.72289  0.43512  1.0000
  C   C231      1.0  0.45326  0.71083  0.51931  1.0000
  H   H187      1.0  0.44947  0.71651  0.57811  1.0000
  H   H188      1.0  0.46619  0.70982  0.53770  1.0000
  H   H189      1.0  0.44100  0.69600  0.50735  1.0000
  C   C232      1.0  0.44819  0.74613  0.51069  1.0000
  H   H190      1.0  0.44635  0.75883  0.49976  1.0000
  H   H191      1.0  0.45863  0.74993  0.56602  1.0000
  H   H192      1.0  0.43385  0.73413  0.53171  1.0000
  N   N14       1.0  0.45619  0.76566  0.34087  1.0000
  C   C233      1.0  0.26158  0.71139  0.34802  1.0000
  C   C234      1.0  0.27226  0.71784  0.43039  1.0000
  C   C235      1.0  0.28929  0.73700  0.43518  1.0000
  C   C236      1.0  0.30135  0.74487  0.51939  1.0000
  H   H193      1.0  0.29566  0.73541  0.57819  1.0000
  H   H194      1.0  0.30236  0.75882  0.53776  1.0000
  H   H195      1.0  0.31617  0.74743  0.50746  1.0000
  C   C237      1.0  0.26605  0.70451  0.51074  1.0000
  H   H196      1.0  0.25335  0.68997  0.49978  1.0000
  H   H197      1.0  0.26224  0.71115  0.56605  1.0000
  H   H198      1.0  0.27805  0.70217  0.53178  1.0000
  N   N15       1.0  0.24653  0.69297  0.34086  1.0000
  C   C238      1.0  0.71391  0.45718  0.34960  1.0000
  C   C239      1.0  0.72033  0.45282  0.43174  1.0000
  C   C240      1.0  0.73947  0.45491  0.43638  1.0000
  C   C241      1.0  0.74730  0.45057  0.52033  1.0000
  H   H199      1.0  0.73782  0.44671  0.57908  1.0000
  H   H200      1.0  0.76125  0.46347  0.53905  1.0000
  H   H201      1.0  0.74985  0.43832  0.50787  1.0000
  C   C242      1.0  0.70698  0.44561  0.51201  1.0000
  H   H202      1.0  0.69246  0.44383  0.50118  1.0000
  H   H203      1.0  0.71362  0.45597  0.56762  1.0000
  H   H204      1.0  0.70459  0.43123  0.53255  1.0000
  N   N16       1.0  0.69550  0.45383  0.34252  1.0000
  C   C243      1.0  0.55502  0.25917  0.34975  1.0000
  C   C244      1.0  0.55926  0.26988  0.43203  1.0000
  C   C245      1.0  0.55715  0.28693  0.43666  1.0000
  C   C246      1.0  0.56136  0.29902  0.52077  1.0000
  H   H205      1.0  0.56513  0.29335  0.57963  1.0000
  H   H206      1.0  0.54843  0.30005  0.53910  1.0000
  H   H207      1.0  0.57362  0.31383  0.50874  1.0000
  C   C247      1.0  0.56638  0.26369  0.51246  1.0000
  H   H208      1.0  0.56820  0.25098  0.50162  1.0000
  H   H209      1.0  0.55593  0.25991  0.56777  1.0000
  H   H210      1.0  0.58072  0.27569  0.53343  1.0000
  N   N17       1.0  0.55837  0.24412  0.34271  1.0000
  C   C248      1.0  0.75302  0.29829  0.34976  1.0000
  C   C249      1.0  0.74227  0.29185  0.43196  1.0000
  C   C250      1.0  0.72522  0.27270  0.43659  1.0000
  C   C251      1.0  0.71309  0.26485  0.52060  1.0000
  H   H211      1.0  0.71873  0.27431  0.57940  1.0000
  H   H212      1.0  0.71204  0.25090  0.53915  1.0000
  H   H213      1.0  0.69828  0.26230  0.50832  1.0000
  C   C252      1.0  0.74843  0.30519  0.51229  1.0000
  H   H214      1.0  0.76116  0.31971  0.50146  1.0000
  H   H215      1.0  0.75217  0.29853  0.56778  1.0000
  H   H216      1.0  0.73643  0.30755  0.53300  1.0000
  N   N18       1.0  0.76808  0.31670  0.34269  1.0000
