data_image0
_chemical_formula_structural       C12H6CH2C2O2C12H6CH2C2O2C12H6CH2C2O2C3H2NHC3H2NHC3H2NHC3H2NHC3H2NHC3H2NHC12H6C2H2C2O2C12H6C2H2C2O2C12H6C2H2C2O2C3HNH2NHC3HNH2NHC3HNH2NHC3HNH2NHC3HNH2NHC3HNH2NH
_chemical_formula_sum              "C129 H90 O12 N18"
_cell_length_a       34.3743
_cell_length_b       34.3743
_cell_length_c       15.0604
_cell_angle_alpha    90
_cell_angle_beta     90
_cell_angle_gamma    120

_space_group_name_H-M_alt    "P 1"
_space_group_IT_number       1

loop_
  _space_group_symop_operation_xyz
  'x, y, z'

loop_
  _atom_site_type_symbol
  _atom_site_label
  _atom_site_symmetry_multiplicity
  _atom_site_fract_x
  _atom_site_fract_y
  _atom_site_fract_z
  _atom_site_occupancy
  C   C1        1.0  0.96675  0.50921  0.27523  1.0000
  C   C2        1.0  0.96809  0.51001  0.18085  1.0000
  C   C3        1.0  0.02596  0.48604  0.18084  1.0000
  C   C4        1.0  0.02727  0.48680  0.27523  1.0000
  C   C5        1.0  0.05932  0.47843  0.31751  1.0000
  C   C6        1.0  0.08979  0.47084  0.26804  1.0000
  C   C7        1.0  0.08581  0.46771  0.17482  1.0000
  C   C8        1.0  0.05412  0.47510  0.13168  1.0000
  C   C9        1.0  0.93990  0.52091  0.13168  1.0000
  C   C10       1.0  0.90819  0.52828  0.17481  1.0000
  C   C11       1.0  0.90421  0.52515  0.26803  1.0000
  C   C12       1.0  0.93470  0.51758  0.31751  1.0000
  H   H1        1.0  0.06166  0.58100  0.27410  1.0000
  H   H2        1.0  0.93232  0.41505  0.27404  1.0000
  H   H3        1.0  0.10692  0.46151  0.13714  1.0000
  H   H4        1.0  0.05323  0.47447  0.06369  1.0000
  H   H5        1.0  0.94084  0.52161  0.06369  1.0000
  H   H6        1.0  0.88711  0.53451  0.13713  1.0000
  C   C13       1.0  0.99702  0.49802  0.12934  1.0000
  H   H7        1.0  0.01865  0.52662  0.08682  1.0000
  H   H8        1.0  0.97539  0.46943  0.08682  1.0000
  C   C14       1.0  0.86780  0.52589  0.30985  1.0000
  C   C15       1.0  0.12620  0.47009  0.30984  1.0000
  O   O1        1.0  0.11591  0.67795  0.28866  1.0000
  O   O2        1.0  0.87808  0.31796  0.28884  1.0000
  C   C16       1.0  0.48578  0.45652  0.27529  1.0000
  C   C17       1.0  0.48501  0.45707  0.18090  1.0000
  C   C18       1.0  0.50895  0.53891  0.18092  1.0000
  C   C19       1.0  0.50819  0.53945  0.27530  1.0000
  C   C20       1.0  0.51658  0.57988  0.31759  1.0000
  C   C21       1.0  0.52414  0.61794  0.26812  1.0000
  C   C22       1.0  0.52729  0.61709  0.17490  1.0000
  C   C23       1.0  0.51985  0.57799  0.13175  1.0000
  C   C24       1.0  0.47411  0.41798  0.13173  1.0000
  C   C25       1.0  0.46674  0.37890  0.17487  1.0000
  C   C26       1.0  0.46986  0.37804  0.26809  1.0000
  C   C27       1.0  0.47740  0.41609  0.31757  1.0000
  H   H9        1.0  0.41402  0.47970  0.27412  1.0000
  H   H10       1.0  0.57998  0.51632  0.27414  1.0000
  H   H11       1.0  0.53348  0.64440  0.13721  1.0000
  H   H12       1.0  0.52055  0.57775  0.06377  1.0000
  H   H13       1.0  0.47343  0.41823  0.06374  1.0000
  H   H14       1.0  0.46052  0.35159  0.13718  1.0000
  C   C28       1.0  0.49698  0.49799  0.12940  1.0000
  H   H15       1.0  0.46837  0.49101  0.08690  1.0000
  H   H16       1.0  0.52558  0.50497  0.08688  1.0000
  C   C29       1.0  0.46913  0.34090  0.30990  1.0000
  C   C30       1.0  0.52489  0.65509  0.30991  1.0000
  O   O3        1.0  0.31706  0.43700  0.28858  1.0000
  O   O4        1.0  0.67688  0.55896  0.28856  1.0000
  C   C31       1.0  0.53844  0.02825  0.27527  1.0000
  C   C32       1.0  0.53790  0.02694  0.18088  1.0000
  C   C33       1.0  0.45606  0.96903  0.18087  1.0000
  C   C34       1.0  0.45552  0.96772  0.27526  1.0000
  C   C35       1.0  0.41510  0.93565  0.31753  1.0000
  C   C36       1.0  0.37703  0.90519  0.26806  1.0000
  C   C37       1.0  0.37788  0.90918  0.17484  1.0000
  C   C38       1.0  0.41698  0.94083  0.13170  1.0000
  C   C39       1.0  0.57698  0.05515  0.13172  1.0000
  C   C40       1.0  0.61608  0.08681  0.17487  1.0000
  C   C41       1.0  0.61691  0.09080  0.26809  1.0000
  C   C42       1.0  0.57888  0.06028  0.31757  1.0000
  H   H17       1.0  0.51529  0.93332  0.27409  1.0000
  H   H18       1.0  0.47868  0.06265  0.27409  1.0000
  H   H19       1.0  0.35057  0.88807  0.13715  1.0000
  H   H20       1.0  0.41722  0.94179  0.06372  1.0000
  H   H21       1.0  0.57675  0.05420  0.06374  1.0000
  H   H22       1.0  0.64338  0.10793  0.13719  1.0000
  C   C43       1.0  0.49698  0.99798  0.12936  1.0000
  H   H23       1.0  0.50397  0.97636  0.08686  1.0000
  H   H24       1.0  0.49000  0.01960  0.08684  1.0000
  C   C44       1.0  0.65405  0.12720  0.30990  1.0000
  C   C45       1.0  0.33987  0.86879  0.30984  1.0000
  O   O5        1.0  0.55800  0.87906  0.28860  1.0000
  O   O6        1.0  0.43603  0.11694  0.28856  1.0000
  C   C46       1.0  0.27585  0.49568  0.26636  1.0000
  C   C47       1.0  0.23660  0.49543  0.24045  1.0000
  C   C48       1.0  0.20578  0.49367  0.30445  1.0000
  H   H25       1.0  0.29794  0.49788  0.21839  1.0000
  H   H26       1.0  0.23052  0.49639  0.17417  1.0000
  N   N1        1.0  0.16855  0.49463  0.27626  1.0000
  H   H27       1.0  0.17272  0.51326  0.22415  1.0000
  C   C49       1.0  0.49932  0.77917  0.26635  1.0000
  C   C50       1.0  0.49958  0.74017  0.24046  1.0000
  C   C51       1.0  0.50133  0.71112  0.30447  1.0000
  H   H28       1.0  0.49712  0.79906  0.21837  1.0000
  H   H29       1.0  0.49862  0.73313  0.17419  1.0000
  N   N2        1.0  0.50037  0.67292  0.27631  1.0000
  H   H30       1.0  0.48176  0.65848  0.22418  1.0000
  C   C52       1.0  0.21580  0.71914  0.26636  1.0000
  C   C53       1.0  0.25480  0.75840  0.24046  1.0000
  C   C54       1.0  0.28386  0.78920  0.30446  1.0000
  H   H31       1.0  0.19590  0.69705  0.21839  1.0000
  H   H32       1.0  0.26183  0.76447  0.17418  1.0000
  N   N3        1.0  0.32206  0.82643  0.27628  1.0000
  H   H33       1.0  0.33650  0.82225  0.22414  1.0000
  C   C55       1.0  0.71814  0.50033  0.26635  1.0000
  C   C56       1.0  0.75739  0.50060  0.24042  1.0000
  C   C57       1.0  0.78822  0.50237  0.30440  1.0000
  H   H34       1.0  0.69603  0.49812  0.21840  1.0000
  H   H35       1.0  0.76346  0.49964  0.17414  1.0000
  N   N4        1.0  0.82546  0.50143  0.27618  1.0000
  H   H36       1.0  0.82128  0.48279  0.22409  1.0000
  C   C58       1.0  0.49471  0.21682  0.26635  1.0000
  C   C59       1.0  0.49444  0.25582  0.24044  1.0000
  C   C60       1.0  0.49267  0.28486  0.30445  1.0000
  H   H37       1.0  0.49692  0.19694  0.21837  1.0000
  H   H38       1.0  0.49541  0.26286  0.17417  1.0000
  N   N5        1.0  0.49363  0.32305  0.27627  1.0000
  H   H39       1.0  0.51226  0.33752  0.22417  1.0000
  C   C61       1.0  0.77819  0.27680  0.26643  1.0000
  C   C62       1.0  0.73918  0.23756  0.24052  1.0000
  C   C63       1.0  0.71008  0.20678  0.30453  1.0000
  H   H40       1.0  0.79810  0.29886  0.21845  1.0000
  H   H41       1.0  0.73216  0.23147  0.17424  1.0000
  N   N6        1.0  0.67188  0.16956  0.27635  1.0000
  H   H42       1.0  0.65745  0.17374  0.22419  1.0000
  C   C64       1.0  0.96708  0.45641  0.38411  1.0000
  C   C65       1.0  0.96822  0.45702  0.47853  1.0000
  C   C66       1.0  0.02578  0.53896  0.47857  1.0000
  C   C67       1.0  0.02693  0.53957  0.38414  1.0000
  C   C68       1.0  0.05404  0.57798  0.52785  1.0000
  C   C69       1.0  0.08559  0.61715  0.48474  1.0000
  C   C70       1.0  0.08898  0.61815  0.39147  1.0000
  C   C71       1.0  0.05865  0.58015  0.34182  1.0000
  C   C72       1.0  0.93540  0.41584  0.34173  1.0000
  C   C73       1.0  0.90500  0.37786  0.39135  1.0000
  C   C74       1.0  0.90840  0.37884  0.48463  1.0000
  C   C75       1.0  0.93997  0.41797  0.52778  1.0000
  H   H43       1.0  0.88689  0.35165  0.52218  1.0000
  H   H44       1.0  0.94057  0.41835  0.59578  1.0000
  H   H45       1.0  0.05337  0.57760  0.59585  1.0000
  H   H46       1.0  0.10704  0.64435  0.52231  1.0000
  H   H47       1.0  0.06238  0.48081  0.38521  1.0000
  H   H48       1.0  0.93160  0.51514  0.38520  1.0000
  C   C76       1.0  0.99700  0.49800  0.32968  1.0000
  C   C77       1.0  0.99699  0.49798  0.53006  1.0000
  H   H49       1.0  0.97528  0.50484  0.57257  1.0000
  H   H50       1.0  0.01869  0.49112  0.57258  1.0000
  C   C78       1.0  0.12543  0.65522  0.35020  1.0000
  C   C79       1.0  0.86853  0.34082  0.35002  1.0000
  O   O7        1.0  0.11664  0.44216  0.38007  1.0000
  O   O8        1.0  0.87738  0.55384  0.38004  1.0000
  C   C80       1.0  0.53856  0.50963  0.38420  1.0000
  C   C81       1.0  0.53794  0.51015  0.47862  1.0000
  C   C82       1.0  0.45602  0.48581  0.47861  1.0000
  C   C83       1.0  0.45540  0.48633  0.38419  1.0000
  C   C84       1.0  0.41699  0.47507  0.52787  1.0000
  C   C85       1.0  0.37783  0.46745  0.48473  1.0000
  C   C86       1.0  0.37684  0.46984  0.39146  1.0000
  C   C87       1.0  0.41482  0.47743  0.34182  1.0000
  C   C88       1.0  0.57913  0.51848  0.34186  1.0000
  C   C89       1.0  0.61714  0.52615  0.39150  1.0000
  C   C90       1.0  0.61613  0.52853  0.48477  1.0000
  C   C91       1.0  0.57696  0.52089  0.52790  1.0000
  H   H51       1.0  0.64333  0.53428  0.52234  1.0000
  H   H52       1.0  0.57659  0.52120  0.59590  1.0000
  H   H53       1.0  0.41735  0.47475  0.59587  1.0000
  H   H54       1.0  0.35063  0.46172  0.52229  1.0000
  H   H55       1.0  0.51414  0.58052  0.38528  1.0000
  H   H56       1.0  0.47983  0.41543  0.38525  1.0000
  C   C92       1.0  0.49698  0.49798  0.32975  1.0000
  C   C93       1.0  0.49698  0.49798  0.53012  1.0000
  H   H57       1.0  0.49010  0.46940  0.57263  1.0000
  H   H58       1.0  0.50385  0.52655  0.57265  1.0000
  C   C94       1.0  0.33978  0.46924  0.35016  1.0000
  C   C95       1.0  0.65422  0.52678  0.35025  1.0000
  O   O9        1.0  0.55279  0.67344  0.38018  1.0000
  O   O10       1.0  0.44117  0.32251  0.38007  1.0000
  C   C96       1.0  0.48531  0.02790  0.38415  1.0000
  C   C97       1.0  0.48478  0.02675  0.47858  1.0000
  C   C98       1.0  0.50917  0.96920  0.47858  1.0000
  C   C99       1.0  0.50864  0.96806  0.38415  1.0000
  C   C100      1.0  0.51995  0.94094  0.52784  1.0000
  C   C101      1.0  0.52759  0.90941  0.48471  1.0000
  C   C102      1.0  0.52516  0.90600  0.39144  1.0000
  C   C103      1.0  0.51752  0.93636  0.34180  1.0000
  C   C104      1.0  0.47641  0.05958  0.34179  1.0000
  C   C105      1.0  0.46884  0.08998  0.39144  1.0000
  C   C106      1.0  0.46646  0.08660  0.48471  1.0000
  C   C107      1.0  0.47401  0.05501  0.52785  1.0000
  H   H59       1.0  0.46077  0.10810  0.52228  1.0000
  H   H60       1.0  0.47380  0.05441  0.59585  1.0000
  H   H61       1.0  0.52022  0.94160  0.59584  1.0000
  H   H62       1.0  0.53328  0.88792  0.52228  1.0000
  H   H63       1.0  0.41442  0.93258  0.38523  1.0000
  H   H64       1.0  0.57950  0.06339  0.38525  1.0000
  C   C108      1.0  0.49698  0.99798  0.32971  1.0000
  C   C109      1.0  0.49699  0.99798  0.53008  1.0000
  H   H65       1.0  0.52556  0.01970  0.57258  1.0000
  H   H66       1.0  0.46843  0.97628  0.57262  1.0000
  C   C110      1.0  0.52576  0.86955  0.35016  1.0000
  C   C111      1.0  0.46825  0.12644  0.35016  1.0000
  O   O11       1.0  0.32152  0.87834  0.38010  1.0000
  O   O12       1.0  0.67240  0.11765  0.38019  1.0000
  C   C112      1.0  0.21616  0.49392  0.39522  1.0000
  C   C113      1.0  0.25551  0.49404  0.42304  1.0000
  C   C114      1.0  0.28541  0.49433  0.35713  1.0000
  H   H67       1.0  0.19516  0.49501  0.44201  1.0000
  N   N7        1.0  0.26276  0.49305  0.51168  1.0000
  H   H68       1.0  0.24139  0.49202  0.55539  1.0000
  H   H69       1.0  0.28798  0.49079  0.53438  1.0000
  N   N8        1.0  0.32492  0.49688  0.38025  1.0000
  H   H70       1.0  0.34273  0.51920  0.42527  1.0000
  C   C115      1.0  0.50108  0.72126  0.39525  1.0000
  C   C116      1.0  0.50095  0.76048  0.42304  1.0000
  C   C117      1.0  0.50066  0.79008  0.35712  1.0000
  H   H71       1.0  0.49999  0.69917  0.44205  1.0000
  N   N9        1.0  0.50194  0.76873  0.51168  1.0000
  H   H72       1.0  0.50297  0.74840  0.55540  1.0000
  H   H73       1.0  0.50420  0.79621  0.53437  1.0000
  N   N10       1.0  0.49809  0.82704  0.38021  1.0000
  H   H74       1.0  0.47579  0.82254  0.42525  1.0000
  C   C118      1.0  0.27373  0.77882  0.39523  1.0000
  C   C119      1.0  0.23450  0.73947  0.42304  1.0000
  C   C120      1.0  0.20490  0.70958  0.35713  1.0000
  H   H75       1.0  0.29582  0.79981  0.44203  1.0000
  N   N11       1.0  0.22627  0.73221  0.51169  1.0000
  H   H76       1.0  0.24661  0.75358  0.55540  1.0000
  H   H77       1.0  0.19878  0.70699  0.53437  1.0000
  N   N12       1.0  0.16794  0.67005  0.38023  1.0000
  H   H78       1.0  0.17245  0.65225  0.42526  1.0000
  C   C121      1.0  0.77785  0.50213  0.39518  1.0000
  C   C122      1.0  0.73850  0.50199  0.42302  1.0000
  C   C123      1.0  0.70859  0.50169  0.35713  1.0000
  H   H79       1.0  0.79886  0.50105  0.44197  1.0000
  N   N13       1.0  0.73126  0.50299  0.51167  1.0000
  H   H80       1.0  0.75265  0.50403  0.55536  1.0000
  H   H81       1.0  0.70604  0.50524  0.53438  1.0000
  N   N14       1.0  0.66907  0.49913  0.38027  1.0000
  H   H82       1.0  0.65129  0.47682  0.42532  1.0000
  C   C124      1.0  0.49290  0.27472  0.39522  1.0000
  C   C125      1.0  0.49304  0.23549  0.42303  1.0000
  C   C126      1.0  0.49335  0.20591  0.35711  1.0000
  H   H83       1.0  0.49398  0.29680  0.44203  1.0000
  N   N15       1.0  0.49204  0.22725  0.51167  1.0000
  H   H84       1.0  0.49099  0.24758  0.55538  1.0000
  H   H85       1.0  0.48979  0.19977  0.53435  1.0000
  N   N16       1.0  0.49592  0.16895  0.38021  1.0000
  H   H86       1.0  0.51823  0.17345  0.42526  1.0000
  C   C127      1.0  0.72020  0.21718  0.39530  1.0000
  C   C128      1.0  0.75944  0.25652  0.42311  1.0000
  C   C129      1.0  0.78907  0.28638  0.35720  1.0000
  H   H87       1.0  0.69809  0.19620  0.44209  1.0000
  N   N17       1.0  0.76765  0.26380  0.51176  1.0000
  H   H88       1.0  0.74729  0.24245  0.55547  1.0000
  H   H89       1.0  0.79514  0.28902  0.53445  1.0000
  N   N18       1.0  0.82604  0.32589  0.38031  1.0000
  H   H90       1.0  0.82152  0.34375  0.42521  1.0000
