data_image0
_chemical_formula_structural       C3HCH3COC3HCH3COC3HCH3COC6H3NHNHNHC6H3NHNHNHC3HCH3COC3HCH3COC3HCH3COC3HCH3COC3HCH3COC3HCH3COC6H3NHNHNHC6H3NHNHNHC3HCH3COC3HCH3COC3HCH3COC3HCH3COC3HCH3COC3HCH3COC6H3NHNHNHC6H3NHNHNHC3HCH3COC3HCH3COC3HCH3COC3HCH3COC3HCH3COC3HCH3COC6H3NHNHNHC6H3NHNHNHC3HCH3COC3HCH3COC3HCH3CO
_chemical_formula_sum              "C168 H144 O24 N24"
_cell_length_a       44.15
_cell_length_b       44.15
_cell_length_c       15.0391
_cell_angle_alpha    90
_cell_angle_beta     90
_cell_angle_gamma    120

_space_group_name_H-M_alt    "P 1"
_space_group_IT_number       1

loop_
  _space_group_symop_operation_xyz
  'x, y, z'

loop_
  _atom_site_type_symbol
  _atom_site_label
  _atom_site_symmetry_multiplicity
  _atom_site_fract_x
  _atom_site_fract_y
  _atom_site_fract_z
  _atom_site_occupancy
  C   C1        1.0  0.25893  0.22500  0.29842  1.0000
  C   C2        1.0  0.22359  0.25411  0.28133  1.0000
  C   C3        1.0  0.23378  0.23003  0.25263  1.0000
  H   H1        1.0  0.22457  0.21798  0.19247  1.0000
  C   C4        1.0  0.20281  0.26197  0.21645  1.0000
  H   H2        1.0  0.20396  0.28679  0.22952  1.0000
  H   H3        1.0  0.17556  0.24102  0.21788  1.0000
  H   H4        1.0  0.21284  0.26396  0.14897  1.0000
  C   C5        1.0  0.27019  0.20298  0.25959  1.0000
  O   O1        1.0  0.24964  0.17916  0.19762  1.0000
  C   C6        1.0  0.27175  0.03328  0.29833  1.0000
  C   C7        1.0  0.24262  0.46884  0.28118  1.0000
  C   C8        1.0  0.26676  0.00310  0.25260  1.0000
  H   H5        1.0  0.27882  0.00594  0.19245  1.0000
  C   C9        1.0  0.23485  0.44018  0.21644  1.0000
  H   H6        1.0  0.21004  0.41650  0.22948  1.0000
  H   H7        1.0  0.25583  0.43393  0.21808  1.0000
  H   H8        1.0  0.23289  0.44819  0.14890  1.0000
  C   C10       1.0  0.29379  0.06657  0.25960  1.0000
  O   O2        1.0  0.31752  0.06986  0.19733  1.0000
  C   C11       1.0  0.46347  0.23781  0.29844  1.0000
  C   C12       1.0  0.02792  0.27315  0.28143  1.0000
  C   C13       1.0  0.49367  0.26296  0.25268  1.0000
  H   H9        1.0  0.49082  0.27217  0.19251  1.0000
  C   C14       1.0  0.05658  0.29394  0.21656  1.0000
  H   H10       1.0  0.08024  0.29278  0.22968  1.0000
  H   H11       1.0  0.06287  0.32118  0.21799  1.0000
  H   H12       1.0  0.04855  0.28391  0.14909  1.0000
  C   C15       1.0  0.43021  0.22657  0.25954  1.0000
  O   O3        1.0  0.42692  0.24713  0.19764  1.0000
  C   C16       1.0  0.17941  0.30953  0.40810  1.0000
  C   C17       1.0  0.14279  0.29580  0.40838  1.0000
  C   C18       1.0  0.12751  0.31733  0.40818  1.0000
  C   C19       1.0  0.15039  0.35394  0.40836  1.0000
  C   C20       1.0  0.18721  0.36924  0.40820  1.0000
  C   C21       1.0  0.20094  0.34635  0.40848  1.0000
  H   H13       1.0  0.13971  0.36963  0.40089  1.0000
  H   H14       1.0  0.22731  0.35703  0.40077  1.0000
  H   H15       1.0  0.12710  0.26942  0.40093  1.0000
  N   N1        1.0  0.19214  0.28724  0.39565  1.0000
  H   H16       1.0  0.17510  0.26319  0.37942  1.0000
  N   N2        1.0  0.20951  0.40425  0.39564  1.0000
  H   H17       1.0  0.23356  0.41126  0.37947  1.0000
  N   N3        1.0  0.09248  0.30461  0.39582  1.0000
  H   H18       1.0  0.08547  0.32165  0.37961  1.0000
  C   C22       1.0  0.31668  0.18787  0.25335  1.0000
  C   C23       1.0  0.35330  0.20162  0.25306  1.0000
  C   C24       1.0  0.36860  0.18010  0.25334  1.0000
  C   C25       1.0  0.34573  0.14348  0.25307  1.0000
  C   C26       1.0  0.30890  0.12817  0.25315  1.0000
  C   C27       1.0  0.29517  0.15105  0.25299  1.0000
  H   H19       1.0  0.35641  0.12779  0.26049  1.0000
  H   H20       1.0  0.26878  0.14034  0.26042  1.0000
  H   H21       1.0  0.36899  0.22799  0.26064  1.0000
  N   N4        1.0  0.30394  0.21015  0.26577  1.0000
  H   H22       1.0  0.32097  0.23420  0.28199  1.0000
  N   N5        1.0  0.28661  0.09314  0.26560  1.0000
  H   H23       1.0  0.26256  0.08613  0.28180  1.0000
  N   N6        1.0  0.40362  0.19283  0.26579  1.0000
  H   H24       1.0  0.41063  0.17579  0.28201  1.0000
  C   C28       1.0  0.27240  0.24318  0.38028  1.0000
  C   C29       1.0  0.26222  0.26726  0.40895  1.0000
  C   C30       1.0  0.23710  0.27232  0.36314  1.0000
  H   H25       1.0  0.27148  0.27937  0.46904  1.0000
  C   C31       1.0  0.29329  0.23540  0.44501  1.0000
  H   H26       1.0  0.29216  0.21059  0.43195  1.0000
  H   H27       1.0  0.28333  0.23344  0.51255  1.0000
  H   H28       1.0  0.32052  0.25638  0.44338  1.0000
  C   C32       1.0  0.22588  0.29438  0.40196  1.0000
  O   O4        1.0  0.24644  0.31823  0.46382  1.0000
  C   C33       1.0  0.25351  0.02857  0.38009  1.0000
  C   C34       1.0  0.22941  0.49431  0.40874  1.0000
  C   C35       1.0  0.22440  0.46413  0.36299  1.0000
  H   H29       1.0  0.21736  0.49146  0.46891  1.0000
  C   C36       1.0  0.26133  0.05722  0.44493  1.0000
  H   H30       1.0  0.28610  0.08092  0.43179  1.0000
  H   H31       1.0  0.26336  0.04920  0.51240  1.0000
  H   H32       1.0  0.24032  0.06344  0.44354  1.0000
  C   C37       1.0  0.20236  0.43085  0.40179  1.0000
  O   O5        1.0  0.17853  0.42759  0.46369  1.0000
  C   C38       1.0  0.46817  0.22434  0.38033  1.0000
  C   C39       1.0  0.00243  0.23452  0.40904  1.0000
  C   C40       1.0  0.03262  0.25965  0.36325  1.0000
  H   H33       1.0  0.00526  0.22526  0.46913  1.0000
  C   C41       1.0  0.43949  0.20346  0.44503  1.0000
  H   H34       1.0  0.41582  0.20461  0.43196  1.0000
  H   H35       1.0  0.44748  0.21341  0.51258  1.0000
  H   H36       1.0  0.43321  0.17622  0.44338  1.0000
  C   C42       1.0  0.06588  0.27086  0.40210  1.0000
  O   O6        1.0  0.06919  0.25037  0.46414  1.0000
  C   C43       1.0  0.25893  0.72500  0.29842  1.0000
  C   C44       1.0  0.22359  0.75411  0.28133  1.0000
  C   C45       1.0  0.23378  0.73003  0.25263  1.0000
  H   H37       1.0  0.22457  0.71798  0.19247  1.0000
  C   C46       1.0  0.20281  0.76197  0.21645  1.0000
  H   H38       1.0  0.20396  0.78679  0.22952  1.0000
  H   H39       1.0  0.17556  0.74103  0.21788  1.0000
  H   H40       1.0  0.21284  0.76396  0.14897  1.0000
  C   C47       1.0  0.27019  0.70298  0.25959  1.0000
  O   O7        1.0  0.24964  0.67917  0.19762  1.0000
  C   C48       1.0  0.27175  0.53328  0.29833  1.0000
  C   C49       1.0  0.24261  0.96884  0.28118  1.0000
  C   C50       1.0  0.26676  0.50311  0.25260  1.0000
  H   H41       1.0  0.27882  0.50594  0.19245  1.0000
  C   C51       1.0  0.23485  0.94018  0.21644  1.0000
  H   H42       1.0  0.21004  0.91650  0.22948  1.0000
  H   H43       1.0  0.25583  0.93393  0.21808  1.0000
  H   H44       1.0  0.23289  0.94819  0.14890  1.0000
  C   C52       1.0  0.29379  0.56657  0.25960  1.0000
  O   O8        1.0  0.31752  0.56986  0.19733  1.0000
  C   C53       1.0  0.46347  0.73781  0.29844  1.0000
  C   C54       1.0  0.02792  0.77315  0.28143  1.0000
  C   C55       1.0  0.49366  0.76296  0.25268  1.0000
  H   H45       1.0  0.49083  0.77217  0.19251  1.0000
  C   C56       1.0  0.05658  0.79394  0.21656  1.0000
  H   H46       1.0  0.08024  0.79278  0.22968  1.0000
  H   H47       1.0  0.06288  0.82118  0.21799  1.0000
  H   H48       1.0  0.04855  0.78390  0.14909  1.0000
  C   C57       1.0  0.43021  0.72657  0.25954  1.0000
  O   O9        1.0  0.42693  0.74713  0.19764  1.0000
  C   C58       1.0  0.17941  0.80953  0.40810  1.0000
  C   C59       1.0  0.14280  0.79580  0.40838  1.0000
  C   C60       1.0  0.12751  0.81733  0.40818  1.0000
  C   C61       1.0  0.15039  0.85394  0.40836  1.0000
  C   C62       1.0  0.18721  0.86924  0.40820  1.0000
  C   C63       1.0  0.20094  0.84635  0.40848  1.0000
  H   H49       1.0  0.13971  0.86963  0.40089  1.0000
  H   H50       1.0  0.22731  0.85703  0.40077  1.0000
  H   H51       1.0  0.12709  0.76942  0.40093  1.0000
  N   N7        1.0  0.19214  0.78724  0.39565  1.0000
  H   H52       1.0  0.17510  0.76319  0.37942  1.0000
  N   N8        1.0  0.20951  0.90425  0.39564  1.0000
  H   H53       1.0  0.23356  0.91126  0.37947  1.0000
  N   N9        1.0  0.09248  0.80461  0.39582  1.0000
  H   H54       1.0  0.08547  0.82165  0.37961  1.0000
  C   C64       1.0  0.31668  0.68787  0.25335  1.0000
  C   C65       1.0  0.35330  0.70162  0.25306  1.0000
  C   C66       1.0  0.36860  0.68010  0.25334  1.0000
  C   C67       1.0  0.34573  0.64348  0.25307  1.0000
  C   C68       1.0  0.30890  0.62816  0.25315  1.0000
  C   C69       1.0  0.29517  0.65105  0.25299  1.0000
  H   H55       1.0  0.35642  0.62779  0.26049  1.0000
  H   H56       1.0  0.26878  0.64034  0.26042  1.0000
  H   H57       1.0  0.36899  0.72799  0.26064  1.0000
  N   N10       1.0  0.30394  0.71015  0.26577  1.0000
  H   H58       1.0  0.32097  0.73420  0.28199  1.0000
  N   N11       1.0  0.28661  0.59314  0.26560  1.0000
  H   H59       1.0  0.26256  0.58613  0.28180  1.0000
  N   N12       1.0  0.40362  0.69283  0.26579  1.0000
  H   H60       1.0  0.41063  0.67580  0.28201  1.0000
  C   C70       1.0  0.27240  0.74318  0.38028  1.0000
  C   C71       1.0  0.26222  0.76726  0.40895  1.0000
  C   C72       1.0  0.23710  0.77232  0.36314  1.0000
  H   H61       1.0  0.27148  0.77937  0.46904  1.0000
  C   C73       1.0  0.29329  0.73540  0.44501  1.0000
  H   H62       1.0  0.29216  0.71059  0.43195  1.0000
  H   H63       1.0  0.28333  0.73344  0.51255  1.0000
  H   H64       1.0  0.32052  0.75638  0.44338  1.0000
  C   C74       1.0  0.22588  0.79438  0.40196  1.0000
  O   O10       1.0  0.24645  0.81823  0.46382  1.0000
  C   C75       1.0  0.25351  0.52857  0.38009  1.0000
  C   C76       1.0  0.22941  0.99431  0.40874  1.0000
  C   C77       1.0  0.22440  0.96413  0.36299  1.0000
  H   H65       1.0  0.21736  0.99146  0.46891  1.0000
  C   C78       1.0  0.26133  0.55722  0.44493  1.0000
  H   H66       1.0  0.28610  0.58092  0.43179  1.0000
  H   H67       1.0  0.26336  0.54920  0.51240  1.0000
  H   H68       1.0  0.24032  0.56344  0.44354  1.0000
  C   C79       1.0  0.20236  0.93085  0.40179  1.0000
  O   O11       1.0  0.17853  0.92759  0.46369  1.0000
  C   C80       1.0  0.46817  0.72434  0.38033  1.0000
  C   C81       1.0  0.00243  0.73452  0.40904  1.0000
  C   C82       1.0  0.03262  0.75965  0.36325  1.0000
  H   H69       1.0  0.00526  0.72526  0.46913  1.0000
  C   C83       1.0  0.43949  0.70346  0.44503  1.0000
  H   H70       1.0  0.41582  0.70461  0.43196  1.0000
  H   H71       1.0  0.44749  0.71341  0.51258  1.0000
  H   H72       1.0  0.43321  0.67622  0.44338  1.0000
  C   C84       1.0  0.06588  0.77086  0.40210  1.0000
  O   O12       1.0  0.06919  0.75036  0.46414  1.0000
  C   C85       1.0  0.75893  0.22500  0.29842  1.0000
  C   C86       1.0  0.72359  0.25411  0.28133  1.0000
  C   C87       1.0  0.73378  0.23003  0.25263  1.0000
  H   H73       1.0  0.72457  0.21798  0.19247  1.0000
  C   C88       1.0  0.70281  0.26197  0.21645  1.0000
  H   H74       1.0  0.70396  0.28679  0.22952  1.0000
  H   H75       1.0  0.67556  0.24102  0.21788  1.0000
  H   H76       1.0  0.71284  0.26396  0.14897  1.0000
  C   C89       1.0  0.77019  0.20298  0.25959  1.0000
  O   O13       1.0  0.74964  0.17916  0.19762  1.0000
  C   C90       1.0  0.77175  0.03328  0.29833  1.0000
  C   C91       1.0  0.74261  0.46884  0.28118  1.0000
  C   C92       1.0  0.76676  0.00310  0.25260  1.0000
  H   H77       1.0  0.77882  0.00594  0.19245  1.0000
  C   C93       1.0  0.73485  0.44018  0.21644  1.0000
  H   H78       1.0  0.71004  0.41650  0.22948  1.0000
  H   H79       1.0  0.75583  0.43393  0.21808  1.0000
  H   H80       1.0  0.73289  0.44819  0.14890  1.0000
  C   C94       1.0  0.79379  0.06657  0.25960  1.0000
  O   O14       1.0  0.81752  0.06986  0.19733  1.0000
  C   C95       1.0  0.96347  0.23781  0.29844  1.0000
  C   C96       1.0  0.52792  0.27315  0.28143  1.0000
  C   C97       1.0  0.99366  0.26296  0.25268  1.0000
  H   H81       1.0  0.99082  0.27217  0.19251  1.0000
  C   C98       1.0  0.55658  0.29394  0.21656  1.0000
  H   H82       1.0  0.58024  0.29278  0.22968  1.0000
  H   H83       1.0  0.56287  0.32118  0.21799  1.0000
  H   H84       1.0  0.54855  0.28391  0.14909  1.0000
  C   C99       1.0  0.93021  0.22657  0.25954  1.0000
  O   O15       1.0  0.92693  0.24713  0.19764  1.0000
  C   C100      1.0  0.67941  0.30953  0.40810  1.0000
  C   C101      1.0  0.64279  0.29580  0.40838  1.0000
  C   C102      1.0  0.62750  0.31733  0.40818  1.0000
  C   C103      1.0  0.65039  0.35394  0.40836  1.0000
  C   C104      1.0  0.68721  0.36924  0.40820  1.0000
  C   C105      1.0  0.70094  0.34635  0.40848  1.0000
  H   H85       1.0  0.63971  0.36963  0.40089  1.0000
  H   H86       1.0  0.72731  0.35703  0.40077  1.0000
  H   H87       1.0  0.62709  0.26942  0.40093  1.0000
  N   N13       1.0  0.69214  0.28724  0.39565  1.0000
  H   H88       1.0  0.67510  0.26319  0.37942  1.0000
  N   N14       1.0  0.70951  0.40425  0.39564  1.0000
  H   H89       1.0  0.73356  0.41126  0.37947  1.0000
  N   N15       1.0  0.59248  0.30461  0.39582  1.0000
  H   H90       1.0  0.58547  0.32165  0.37961  1.0000
  C   C106      1.0  0.81668  0.18787  0.25335  1.0000
  C   C107      1.0  0.85330  0.20162  0.25306  1.0000
  C   C108      1.0  0.86860  0.18010  0.25334  1.0000
  C   C109      1.0  0.84573  0.14348  0.25307  1.0000
  C   C110      1.0  0.80890  0.12817  0.25315  1.0000
  C   C111      1.0  0.79517  0.15105  0.25299  1.0000
  H   H91       1.0  0.85642  0.12779  0.26049  1.0000
  H   H92       1.0  0.76878  0.14034  0.26042  1.0000
  H   H93       1.0  0.86899  0.22799  0.26064  1.0000
  N   N16       1.0  0.80394  0.21015  0.26577  1.0000
  H   H94       1.0  0.82097  0.23420  0.28199  1.0000
  N   N17       1.0  0.78661  0.09314  0.26560  1.0000
  H   H95       1.0  0.76256  0.08613  0.28180  1.0000
  N   N18       1.0  0.90362  0.19283  0.26579  1.0000
  H   H96       1.0  0.91063  0.17579  0.28201  1.0000
  C   C112      1.0  0.77240  0.24318  0.38028  1.0000
  C   C113      1.0  0.76222  0.26726  0.40895  1.0000
  C   C114      1.0  0.73710  0.27232  0.36314  1.0000
  H   H97       1.0  0.77148  0.27937  0.46904  1.0000
  C   C115      1.0  0.79329  0.23540  0.44501  1.0000
  H   H98       1.0  0.79216  0.21059  0.43195  1.0000
  H   H99       1.0  0.78333  0.23344  0.51255  1.0000
  H   H100      1.0  0.82052  0.25638  0.44338  1.0000
  C   C116      1.0  0.72588  0.29438  0.40196  1.0000
  O   O16       1.0  0.74644  0.31823  0.46382  1.0000
  C   C117      1.0  0.75351  0.02857  0.38009  1.0000
  C   C118      1.0  0.72941  0.49431  0.40874  1.0000
  C   C119      1.0  0.72440  0.46413  0.36299  1.0000
  H   H101      1.0  0.71736  0.49146  0.46891  1.0000
  C   C120      1.0  0.76133  0.05722  0.44493  1.0000
  H   H102      1.0  0.78610  0.08092  0.43179  1.0000
  H   H103      1.0  0.76336  0.04920  0.51240  1.0000
  H   H104      1.0  0.74033  0.06344  0.44354  1.0000
  C   C121      1.0  0.70236  0.43085  0.40179  1.0000
  O   O17       1.0  0.67852  0.42759  0.46369  1.0000
  C   C122      1.0  0.96817  0.22434  0.38033  1.0000
  C   C123      1.0  0.50243  0.23452  0.40904  1.0000
  C   C124      1.0  0.53261  0.25965  0.36325  1.0000
  H   H105      1.0  0.50526  0.22526  0.46913  1.0000
  C   C125      1.0  0.93949  0.20346  0.44503  1.0000
  H   H106      1.0  0.91582  0.20461  0.43196  1.0000
  H   H107      1.0  0.94748  0.21341  0.51258  1.0000
  H   H108      1.0  0.93321  0.17622  0.44338  1.0000
  C   C126      1.0  0.56588  0.27086  0.40210  1.0000
  O   O18       1.0  0.56919  0.25037  0.46414  1.0000
  C   C127      1.0  0.75893  0.72500  0.29842  1.0000
  C   C128      1.0  0.72359  0.75411  0.28133  1.0000
  C   C129      1.0  0.73378  0.73003  0.25263  1.0000
  H   H109      1.0  0.72457  0.71798  0.19247  1.0000
  C   C130      1.0  0.70281  0.76197  0.21645  1.0000
  H   H110      1.0  0.70396  0.78679  0.22952  1.0000
  H   H111      1.0  0.67556  0.74103  0.21788  1.0000
  H   H112      1.0  0.71284  0.76396  0.14897  1.0000
  C   C131      1.0  0.77019  0.70298  0.25959  1.0000
  O   O19       1.0  0.74964  0.67917  0.19762  1.0000
  C   C132      1.0  0.77175  0.53328  0.29833  1.0000
  C   C133      1.0  0.74261  0.96884  0.28118  1.0000
  C   C134      1.0  0.76676  0.50311  0.25260  1.0000
  H   H113      1.0  0.77882  0.50594  0.19245  1.0000
  C   C135      1.0  0.73485  0.94018  0.21644  1.0000
  H   H114      1.0  0.71004  0.91650  0.22948  1.0000
  H   H115      1.0  0.75583  0.93393  0.21808  1.0000
  H   H116      1.0  0.73289  0.94819  0.14890  1.0000
  C   C136      1.0  0.79379  0.56657  0.25960  1.0000
  O   O20       1.0  0.81752  0.56986  0.19733  1.0000
  C   C137      1.0  0.96347  0.73781  0.29844  1.0000
  C   C138      1.0  0.52792  0.77315  0.28143  1.0000
  C   C139      1.0  0.99366  0.76296  0.25268  1.0000
  H   H117      1.0  0.99083  0.77217  0.19251  1.0000
  C   C140      1.0  0.55658  0.79394  0.21656  1.0000
  H   H118      1.0  0.58024  0.79278  0.22968  1.0000
  H   H119      1.0  0.56287  0.82118  0.21799  1.0000
  H   H120      1.0  0.54855  0.78390  0.14909  1.0000
  C   C141      1.0  0.93021  0.72657  0.25954  1.0000
  O   O21       1.0  0.92693  0.74713  0.19764  1.0000
  C   C142      1.0  0.67941  0.80953  0.40810  1.0000
  C   C143      1.0  0.64280  0.79580  0.40838  1.0000
  C   C144      1.0  0.62750  0.81733  0.40818  1.0000
  C   C145      1.0  0.65039  0.85394  0.40836  1.0000
  C   C146      1.0  0.68721  0.86924  0.40820  1.0000
  C   C147      1.0  0.70094  0.84635  0.40848  1.0000
  H   H121      1.0  0.63971  0.86963  0.40089  1.0000
  H   H122      1.0  0.72731  0.85703  0.40077  1.0000
  H   H123      1.0  0.62709  0.76942  0.40093  1.0000
  N   N19       1.0  0.69214  0.78724  0.39565  1.0000
  H   H124      1.0  0.67510  0.76319  0.37942  1.0000
  N   N20       1.0  0.70951  0.90425  0.39564  1.0000
  H   H125      1.0  0.73356  0.91126  0.37947  1.0000
  N   N21       1.0  0.59248  0.80461  0.39582  1.0000
  H   H126      1.0  0.58547  0.82165  0.37961  1.0000
  C   C148      1.0  0.81668  0.68787  0.25335  1.0000
  C   C149      1.0  0.85330  0.70162  0.25306  1.0000
  C   C150      1.0  0.86860  0.68010  0.25334  1.0000
  C   C151      1.0  0.84573  0.64348  0.25307  1.0000
  C   C152      1.0  0.80890  0.62816  0.25315  1.0000
  C   C153      1.0  0.79517  0.65105  0.25299  1.0000
  H   H127      1.0  0.85642  0.62779  0.26049  1.0000
  H   H128      1.0  0.76878  0.64034  0.26042  1.0000
  H   H129      1.0  0.86899  0.72799  0.26064  1.0000
  N   N22       1.0  0.80394  0.71015  0.26577  1.0000
  H   H130      1.0  0.82097  0.73420  0.28199  1.0000
  N   N23       1.0  0.78661  0.59314  0.26560  1.0000
  H   H131      1.0  0.76256  0.58613  0.28180  1.0000
  N   N24       1.0  0.90362  0.69283  0.26579  1.0000
  H   H132      1.0  0.91063  0.67580  0.28201  1.0000
  C   C154      1.0  0.77240  0.74318  0.38028  1.0000
  C   C155      1.0  0.76222  0.76726  0.40895  1.0000
  C   C156      1.0  0.73710  0.77232  0.36314  1.0000
  H   H133      1.0  0.77148  0.77937  0.46904  1.0000
  C   C157      1.0  0.79329  0.73540  0.44501  1.0000
  H   H134      1.0  0.79216  0.71059  0.43195  1.0000
  H   H135      1.0  0.78333  0.73344  0.51255  1.0000
  H   H136      1.0  0.82052  0.75638  0.44338  1.0000
  C   C158      1.0  0.72588  0.79438  0.40196  1.0000
  O   O22       1.0  0.74644  0.81823  0.46382  1.0000
  C   C159      1.0  0.75351  0.52857  0.38009  1.0000
  C   C160      1.0  0.72941  0.99431  0.40874  1.0000
  C   C161      1.0  0.72440  0.96413  0.36299  1.0000
  H   H137      1.0  0.71736  0.99146  0.46891  1.0000
  C   C162      1.0  0.76133  0.55722  0.44493  1.0000
  H   H138      1.0  0.78610  0.58092  0.43179  1.0000
  H   H139      1.0  0.76336  0.54920  0.51240  1.0000
  H   H140      1.0  0.74032  0.56344  0.44354  1.0000
  C   C163      1.0  0.70236  0.93085  0.40179  1.0000
  O   O23       1.0  0.67853  0.92759  0.46369  1.0000
  C   C164      1.0  0.96817  0.72434  0.38033  1.0000
  C   C165      1.0  0.50242  0.73452  0.40904  1.0000
  C   C166      1.0  0.53262  0.75965  0.36325  1.0000
  H   H141      1.0  0.50526  0.72526  0.46913  1.0000
  C   C167      1.0  0.93949  0.70346  0.44503  1.0000
  H   H142      1.0  0.91582  0.70461  0.43196  1.0000
  H   H143      1.0  0.94748  0.71341  0.51258  1.0000
  H   H144      1.0  0.93321  0.67622  0.44338  1.0000
  C   C168      1.0  0.56588  0.77086  0.40210  1.0000
  O   O24       1.0  0.56919  0.75036  0.46414  1.0000
