data_image0
_chemical_formula_structural       C18H17C2NCNH2NCNH2C3NC3NC5NC4NC35H25NCHCNC2H
_chemical_formula_sum              "C76 H48 N10"
_cell_length_a       29.8869
_cell_length_b       29.8867
_cell_length_c       14.8401
_cell_angle_alpha    90
_cell_angle_beta     90
_cell_angle_gamma    89.9283

_space_group_name_H-M_alt    "P 1"
_space_group_IT_number       1

loop_
  _space_group_symop_operation_xyz
  'x, y, z'

loop_
  _atom_site_type_symbol
  _atom_site_label
  _atom_site_symmetry_multiplicity
  _atom_site_fract_x
  _atom_site_fract_y
  _atom_site_fract_z
  _atom_site_occupancy
  C   C1        1.0  0.09841  0.04854  0.34635  1.0000
  C   C2        1.0  0.99783  0.24162  0.26327  1.0000
  C   C3        1.0  0.99811  0.19451  0.26390  1.0000
  C   C4        1.0  0.97225  0.33896  0.28675  1.0000
  C   C5        1.0  0.97276  0.38606  0.28445  1.0000
  C   C6        1.0  0.00312  0.41060  0.33810  1.0000
  C   C7        1.0  0.23905  0.00558  0.26533  1.0000
  C   C8        1.0  0.19193  0.00607  0.26489  1.0000
  C   C9        1.0  0.38373  0.02997  0.28589  1.0000
  C   C10       1.0  0.33661  0.03052  0.28579  1.0000
  C   C11       1.0  0.00344  0.81615  0.26484  1.0000
  C   C12       1.0  0.00352  0.76904  0.26515  1.0000
  C   C13       1.0  0.02885  0.62444  0.28543  1.0000
  C   C14       1.0  0.02917  0.67156  0.28555  1.0000
  C   C15       1.0  0.81341  0.00065  0.26467  1.0000
  C   C16       1.0  0.76630  0.00023  0.26436  1.0000
  C   C17       1.0  0.66936  0.97378  0.28901  1.0000
  C   C18       1.0  0.62226  0.97389  0.28686  1.0000
  H   H1        1.0  0.60618  0.95131  0.24637  1.0000
  H   H2        1.0  0.68594  0.95086  0.25013  1.0000
  H   H3        1.0  0.75030  0.99769  0.20364  1.0000
  H   H4        1.0  0.83022  0.99770  0.20484  1.0000
  H   H5        1.0  0.00360  0.83275  0.20449  1.0000
  H   H6        1.0  0.00307  0.75283  0.20444  1.0000
  H   H7        1.0  0.09290  0.15647  0.34496  1.0000
  H   H8        1.0  0.17537  0.00640  0.20451  1.0000
  H   H9        1.0  0.25528  0.00493  0.20466  1.0000
  H   H10       1.0  0.32072  0.05108  0.24089  1.0000
  H   H11       1.0  0.40014  0.04992  0.24065  1.0000
  H   H12       1.0  0.99548  0.17761  0.20412  1.0000
  H   H13       1.0  0.99564  0.25754  0.20240  1.0000
  H   H14       1.0  0.95047  0.40235  0.24357  1.0000
  H   H15       1.0  0.94935  0.32260  0.24756  1.0000
  H   H16       1.0  0.04972  0.68756  0.24086  1.0000
  H   H17       1.0  0.04896  0.60813  0.24026  1.0000
  C   C19       1.0  0.00372  0.45814  0.33643  1.0000
  C   C20       1.0  0.00248  0.55214  0.34652  1.0000
  N   N1        1.0  0.00906  0.52985  0.26761  1.0000
  C   C21       1.0  0.00996  0.48455  0.25780  1.0000
  N   N2        1.0  0.01845  0.46813  0.17445  1.0000
  H   H18       1.0  0.02233  0.43633  0.16364  1.0000
  H   H19       1.0  0.02353  0.48830  0.12401  1.0000
  N   N3        1.0  0.47828  0.00979  0.26877  1.0000
  C   C22       1.0  0.52359  0.01066  0.25920  1.0000
  N   N4        1.0  0.54010  0.01885  0.17581  1.0000
  H   H20       1.0  0.57190  0.02269  0.16510  1.0000
  H   H21       1.0  0.51997  0.02374  0.12519  1.0000
  C   C23       1.0  0.88645  0.08855  0.34625  1.0000
  C   C24       1.0  0.91904  0.12126  0.34637  1.0000
  C   C25       1.0  0.96088  0.10033  0.34651  1.0000
  N   N5        1.0  0.95203  0.05581  0.34690  1.0000
  C   C26       1.0  0.90754  0.04679  0.34675  1.0000
  C   C27       1.0  0.88500  0.00483  0.34678  1.0000
  C   C28       1.0  0.90664  0.96246  0.34678  1.0000
  N   N6        1.0  0.95107  0.95387  0.34643  1.0000
  C   C29       1.0  0.95984  0.90948  0.34668  1.0000
  C   C30       1.0  0.91827  0.88817  0.34724  1.0000
  C   C31       1.0  0.88552  0.92079  0.34744  1.0000
  C   C32       1.0  0.00229  0.88801  0.34647  1.0000
  C   C33       1.0  0.04416  0.91068  0.34634  1.0000
  N   N7        1.0  0.05301  0.95520  0.34631  1.0000
  C   C34       1.0  0.09749  0.96421  0.34642  1.0000
  C   C35       1.0  0.11859  0.92244  0.34643  1.0000
  C   C36       1.0  0.08599  0.88973  0.34640  1.0000
  C   C37       1.0  0.12001  0.00617  0.34641  1.0000
  N   N8        1.0  0.05398  0.05716  0.34674  1.0000
  C   C38       1.0  0.04522  0.10156  0.34647  1.0000
  C   C39       1.0  0.08681  0.12283  0.34569  1.0000
  C   C40       1.0  0.11955  0.09019  0.34579  1.0000
  C   C41       1.0  0.00276  0.12302  0.34642  1.0000
  C   C42       1.0  0.00228  0.17080  0.34575  1.0000
  C   C43       1.0  0.00620  0.19523  0.42678  1.0000
  C   C44       1.0  0.00602  0.24235  0.42581  1.0000
  C   C45       1.0  0.00182  0.26660  0.34412  1.0000
  C   C46       1.0  0.00185  0.31461  0.34306  1.0000
  C   C47       1.0  0.03198  0.38664  0.39613  1.0000
  C   C48       1.0  0.03156  0.33952  0.39800  1.0000
  C   C49       1.0  0.16777  0.00581  0.34661  1.0000
  C   C50       1.0  0.19171  0.00506  0.42858  1.0000
  C   C51       1.0  0.23883  0.00459  0.42866  1.0000
  C   C52       1.0  0.26359  0.00483  0.34713  1.0000
  C   C53       1.0  0.31162  0.00438  0.34744  1.0000
  C   C54       1.0  0.33601  0.97771  0.40928  1.0000
  C   C55       1.0  0.38314  0.97748  0.40998  1.0000
  C   C56       1.0  0.40806  0.00369  0.34843  1.0000
  C   C57       1.0  0.00276  0.84026  0.34662  1.0000
  C   C58       1.0  0.00288  0.74445  0.34688  1.0000
  C   C59       1.0  0.00227  0.76915  0.42848  1.0000
  C   C60       1.0  0.00220  0.81627  0.42852  1.0000
  C   C61       1.0  0.00277  0.69641  0.34707  1.0000
  C   C62       1.0  0.97608  0.67190  0.40855  1.0000
  C   C63       1.0  0.97606  0.62477  0.40901  1.0000
  C   C64       1.0  0.00254  0.59997  0.34759  1.0000
  C   C65       1.0  0.83723  0.00509  0.34631  1.0000
  C   C66       1.0  0.81292  0.00921  0.42746  1.0000
  C   C67       1.0  0.76579  0.00891  0.42680  1.0000
  C   C68       1.0  0.74144  0.00429  0.34533  1.0000
  C   C69       1.0  0.69344  0.00386  0.34463  1.0000
  C   C70       1.0  0.59744  0.00430  0.34002  1.0000
  C   C71       1.0  0.62113  0.03358  0.39750  1.0000
  C   C72       1.0  0.66826  0.03357  0.39922  1.0000
  H   H22       1.0  0.60425  0.05607  0.43695  1.0000
  H   H23       1.0  0.68404  0.05641  0.43949  1.0000
  H   H24       1.0  0.74941  0.01114  0.48716  1.0000
  H   H25       1.0  0.82938  0.01219  0.48765  1.0000
  H   H26       1.0  0.85283  0.09485  0.34587  1.0000
  H   H27       1.0  0.91260  0.15486  0.34619  1.0000
  H   H28       1.0  0.97480  0.03313  0.34725  1.0000
  H   H29       1.0  0.03024  0.97789  0.34622  1.0000
  H   H30       1.0  0.85190  0.91457  0.34815  1.0000
  H   H31       1.0  0.91221  0.85452  0.34767  1.0000
  H   H32       1.0  0.00183  0.83295  0.48876  1.0000
  H   H33       1.0  0.00266  0.75303  0.48928  1.0000
  H   H34       1.0  0.09241  0.85613  0.34650  1.0000
  H   H35       1.0  0.15221  0.91614  0.34648  1.0000
  H   H36       1.0  0.15318  0.09637  0.34519  1.0000
  H   H37       1.0  0.17499  0.00503  0.48878  1.0000
  H   H38       1.0  0.25491  0.00493  0.48950  1.0000
  H   H39       1.0  0.39903  0.95685  0.45473  1.0000
  H   H40       1.0  0.31963  0.95730  0.45368  1.0000
  H   H41       1.0  0.05409  0.32354  0.43877  1.0000
  H   H42       1.0  0.05438  0.40332  0.43603  1.0000
  H   H43       1.0  0.00824  0.25881  0.48608  1.0000
  H   H44       1.0  0.00914  0.17885  0.48708  1.0000
  H   H45       1.0  0.95546  0.68817  0.45279  1.0000
  H   H46       1.0  0.95538  0.60879  0.45346  1.0000
  N   N9        1.0  0.99785  0.48007  0.41592  1.0000
  C   C73       1.0  0.99683  0.52527  0.42401  1.0000
  H   H47       1.0  0.99300  0.53893  0.48660  1.0000
  C   C74       1.0  0.54991  0.00469  0.33808  1.0000
  N   N10       1.0  0.52788  0.99908  0.41752  1.0000
  C   C75       1.0  0.48267  0.99806  0.42535  1.0000
  C   C76       1.0  0.45590  0.00348  0.34763  1.0000
  H   H48       1.0  0.46892  0.99444  0.48791  1.0000
