data_image0
_chemical_formula_structural       C8H4C8H4C8H4C8H4C8H4C8H4N2H2N2H2N2H2N2H2N2H2N2H2C8H4C8H4C8H4C8H4C8H4C8H4C6H3C6H3C6H3C6H3C6H3C6H3C6H3C6H3C6H3C6H3C6H3C6H3N12C8H2C8H2C8H2C8H2C8H2C8H2N12
_chemical_formula_sum              "C216 H108 N36"
_cell_length_a       39.5391
_cell_length_b       39.539
_cell_length_c       14.8236
_cell_angle_alpha    90
_cell_angle_beta     90
_cell_angle_gamma    120

_space_group_name_H-M_alt    "P 1"
_space_group_IT_number       1

loop_
  _space_group_symop_operation_xyz
  'x, y, z'

loop_
  _atom_site_type_symbol
  _atom_site_label
  _atom_site_symmetry_multiplicity
  _atom_site_fract_x
  _atom_site_fract_y
  _atom_site_fract_z
  _atom_site_occupancy
  C   C1        1.0  0.27145  0.45959  0.32983  1.0000
  C   C2        1.0  0.24795  0.44762  0.25056  1.0000
  C   C3        1.0  0.21163  0.44761  0.25058  1.0000
  C   C4        1.0  0.20010  0.45957  0.32987  1.0000
  C   C5        1.0  0.18939  0.43781  0.16993  1.0000
  C   C6        1.0  0.20220  0.42790  0.09117  1.0000
  C   C7        1.0  0.23765  0.42791  0.09115  1.0000
  C   C8        1.0  0.26039  0.43783  0.16989  1.0000
  H   H1        1.0  0.16391  0.43841  0.16661  1.0000
  H   H2        1.0  0.18597  0.42124  0.03340  1.0000
  H   H3        1.0  0.24722  0.42125  0.03337  1.0000
  H   H4        1.0  0.28647  0.43844  0.16654  1.0000
  C   C9        1.0  0.57389  0.83347  0.32988  1.0000
  C   C10       1.0  0.58584  0.82195  0.25056  1.0000
  C   C11       1.0  0.58588  0.78565  0.25055  1.0000
  C   C12       1.0  0.57404  0.76220  0.32991  1.0000
  C   C13       1.0  0.59565  0.77321  0.16986  1.0000
  C   C14       1.0  0.60550  0.79591  0.09109  1.0000
  C   C15       1.0  0.60545  0.83134  0.09108  1.0000
  C   C16       1.0  0.59557  0.84416  0.16987  1.0000
  H   H5        1.0  0.59513  0.74717  0.16658  1.0000
  H   H6        1.0  0.61220  0.78637  0.03333  1.0000
  H   H7        1.0  0.61212  0.84757  0.03332  1.0000
  H   H8        1.0  0.59494  0.86963  0.16655  1.0000
  C   C17       1.0  0.20000  0.76213  0.32993  1.0000
  C   C18       1.0  0.21160  0.78556  0.25055  1.0000
  C   C19       1.0  0.24793  0.82188  0.25052  1.0000
  C   C20       1.0  0.27137  0.83346  0.32987  1.0000
  C   C21       1.0  0.26040  0.84407  0.16982  1.0000
  C   C22       1.0  0.23769  0.83124  0.09104  1.0000
  C   C23       1.0  0.20224  0.79579  0.09105  1.0000
  C   C24       1.0  0.18940  0.77309  0.16984  1.0000
  H   H9        1.0  0.28647  0.86957  0.16651  1.0000
  H   H10       1.0  0.24726  0.84746  0.03326  1.0000
  H   H11       1.0  0.18601  0.78623  0.03329  1.0000
  H   H12       1.0  0.16389  0.74704  0.16657  1.0000
  C   C25       1.0  0.75890  0.57727  0.32985  1.0000
  C   C26       1.0  0.78234  0.58914  0.25049  1.0000
  C   C27       1.0  0.81867  0.58916  0.25051  1.0000
  C   C28       1.0  0.83028  0.57734  0.32990  1.0000
  C   C29       1.0  0.84087  0.59889  0.16982  1.0000
  C   C30       1.0  0.82802  0.60873  0.09101  1.0000
  C   C31       1.0  0.79255  0.60870  0.09099  1.0000
  C   C32       1.0  0.76986  0.59885  0.16979  1.0000
  H   H13       1.0  0.86638  0.59834  0.16652  1.0000
  H   H14       1.0  0.84423  0.61536  0.03322  1.0000
  H   H15       1.0  0.78297  0.61532  0.03320  1.0000
  H   H16       1.0  0.74378  0.59825  0.16647  1.0000
  C   C33       1.0  0.45642  0.20334  0.32981  1.0000
  C   C34       1.0  0.44445  0.21487  0.25054  1.0000
  C   C35       1.0  0.44441  0.25117  0.25059  1.0000
  C   C36       1.0  0.45631  0.27463  0.32993  1.0000
  C   C37       1.0  0.43463  0.26362  0.16994  1.0000
  C   C38       1.0  0.42476  0.24092  0.09114  1.0000
  C   C39       1.0  0.42480  0.20549  0.09110  1.0000
  C   C40       1.0  0.43471  0.19267  0.16984  1.0000
  H   H17       1.0  0.43520  0.28969  0.16665  1.0000
  H   H18       1.0  0.41811  0.25050  0.03338  1.0000
  H   H19       1.0  0.41817  0.18929  0.03329  1.0000
  H   H20       1.0  0.43535  0.16721  0.16646  1.0000
  C   C41       1.0  0.83022  0.27472  0.32988  1.0000
  C   C42       1.0  0.81869  0.25124  0.25057  1.0000
  C   C43       1.0  0.78238  0.21491  0.25057  1.0000
  C   C44       1.0  0.75892  0.20331  0.32992  1.0000
  C   C45       1.0  0.76994  0.19270  0.16989  1.0000
  C   C46       1.0  0.79264  0.20554  0.09111  1.0000
  C   C47       1.0  0.82808  0.24100  0.09110  1.0000
  C   C48       1.0  0.84090  0.26371  0.16988  1.0000
  H   H21       1.0  0.74389  0.16718  0.16660  1.0000
  H   H22       1.0  0.78310  0.18929  0.03336  1.0000
  H   H23       1.0  0.84431  0.25057  0.03335  1.0000
  H   H24       1.0  0.86637  0.28980  0.16657  1.0000
  N   N1        1.0  0.14612  0.56737  0.28605  1.0000
  N   N2        1.0  0.14611  0.60036  0.28605  1.0000
  H   H25       1.0  0.15816  0.55924  0.00430  1.0000
  H   H26       1.0  0.15815  0.62051  0.00431  1.0000
  N   N3        1.0  0.46624  0.60040  0.28598  1.0000
  N   N4        1.0  0.43324  0.56740  0.28598  1.0000
  H   H27       1.0  0.47430  0.62062  0.00421  1.0000
  H   H28       1.0  0.41303  0.55935  0.00422  1.0000
  N   N5        1.0  0.43316  0.88752  0.28600  1.0000
  N   N6        1.0  0.46614  0.88748  0.28603  1.0000
  H   H29       1.0  0.41290  0.87533  0.00426  1.0000
  H   H30       1.0  0.47415  0.87528  0.00428  1.0000
  N   N7        1.0  0.88414  0.46943  0.28599  1.0000
  N   N8        1.0  0.88419  0.43647  0.28597  1.0000
  H   H31       1.0  0.87210  0.47754  0.00425  1.0000
  H   H32       1.0  0.87218  0.41630  0.00426  1.0000
  N   N9        1.0  0.56418  0.43633  0.28614  1.0000
  N   N10       1.0  0.59718  0.46933  0.28613  1.0000
  H   H33       1.0  0.55591  0.41637  0.00447  1.0000
  H   H34       1.0  0.61719  0.47765  0.00444  1.0000
  N   N11       1.0  0.59707  0.14915  0.28588  1.0000
  N   N12       1.0  0.56406  0.14914  0.28587  1.0000
  H   H35       1.0  0.61747  0.16171  0.00409  1.0000
  H   H36       1.0  0.55618  0.16168  0.00407  1.0000
  C   C49       1.0  0.97400  0.37084  0.33133  1.0000
  C   C50       1.0  0.99420  0.37463  0.24908  1.0000
  C   C51       1.0  0.03613  0.39559  0.24907  1.0000
  C   C52       1.0  0.05633  0.41200  0.33132  1.0000
  C   C53       1.0  0.05617  0.40120  0.16621  1.0000
  C   C54       1.0  0.03563  0.38626  0.08515  1.0000
  C   C55       1.0  0.99468  0.36578  0.08515  1.0000
  C   C56       1.0  0.97414  0.36019  0.16622  1.0000
  H   H37       1.0  0.08598  0.41634  0.16350  1.0000
  H   H38       1.0  0.05052  0.39061  0.02592  1.0000
  H   H39       1.0  0.97979  0.35525  0.02594  1.0000
  H   H40       1.0  0.94434  0.34553  0.16352  1.0000
  C   C57       1.0  0.66263  0.62472  0.33123  1.0000
  C   C58       1.0  0.65891  0.64117  0.24898  1.0000
  C   C59       1.0  0.63800  0.66218  0.24895  1.0000
  C   C60       1.0  0.62164  0.66609  0.33114  1.0000
  C   C61       1.0  0.63245  0.67666  0.16609  1.0000
  C   C62       1.0  0.64738  0.67104  0.08504  1.0000
  C   C63       1.0  0.66780  0.65051  0.08507  1.0000
  C   C64       1.0  0.67335  0.63554  0.16613  1.0000
  H   H41       1.0  0.61737  0.69139  0.16339  1.0000
  H   H42       1.0  0.64309  0.68162  0.02583  1.0000
  H   H43       1.0  0.67835  0.64616  0.02586  1.0000
  H   H44       1.0  0.68797  0.62036  0.16346  1.0000
  C   C65       1.0  0.40864  0.05958  0.33101  1.0000
  C   C66       1.0  0.39227  0.03935  0.24879  1.0000
  C   C67       1.0  0.37128  0.99743  0.24880  1.0000
  C   C68       1.0  0.36737  0.97721  0.33105  1.0000
  C   C69       1.0  0.35685  0.97737  0.16595  1.0000
  C   C70       1.0  0.36250  0.99790  0.08486  1.0000
  C   C71       1.0  0.38301  0.03885  0.08484  1.0000
  C   C72       1.0  0.39793  0.05939  0.16591  1.0000
  H   H45       1.0  0.34214  0.94756  0.16329  1.0000
  H   H46       1.0  0.35196  0.98301  0.02565  1.0000
  H   H47       1.0  0.38738  0.05374  0.02561  1.0000
  H   H48       1.0  0.41308  0.08920  0.16321  1.0000
  C   C73       1.0  0.05629  0.66594  0.33115  1.0000
  C   C74       1.0  0.03611  0.66221  0.24893  1.0000
  C   C75       1.0  0.99418  0.64126  0.24893  1.0000
  C   C76       1.0  0.97399  0.62483  0.33115  1.0000
  C   C77       1.0  0.97413  0.63572  0.16612  1.0000
  C   C78       1.0  0.99467  0.65073  0.08508  1.0000
  C   C79       1.0  0.03563  0.67118  0.08508  1.0000
  C   C80       1.0  0.05617  0.67671  0.16611  1.0000
  H   H49       1.0  0.94433  0.62061  0.16343  1.0000
  H   H50       1.0  0.97979  0.64644  0.02588  1.0000
  H   H51       1.0  0.05052  0.68177  0.02588  1.0000
  H   H52       1.0  0.08597  0.69137  0.16343  1.0000
  C   C81       1.0  0.36768  0.41206  0.33129  1.0000
  C   C82       1.0  0.37141  0.39559  0.24908  1.0000
  C   C83       1.0  0.39236  0.37461  0.24908  1.0000
  C   C84       1.0  0.40879  0.37087  0.33132  1.0000
  C   C85       1.0  0.39793  0.36013  0.16625  1.0000
  C   C86       1.0  0.38295  0.36568  0.08520  1.0000
  C   C87       1.0  0.36249  0.38616  0.08518  1.0000
  C   C88       1.0  0.35694  0.40116  0.16622  1.0000
  H   H53       1.0  0.41307  0.34546  0.16357  1.0000
  H   H54       1.0  0.38728  0.35511  0.02600  1.0000
  H   H55       1.0  0.35193  0.39049  0.02597  1.0000
  H   H56       1.0  0.34229  0.41631  0.16350  1.0000
  C   C89       1.0  0.62153  0.97724  0.33125  1.0000
  C   C90       1.0  0.63794  0.99739  0.24898  1.0000
  C   C91       1.0  0.65895  0.03932  0.24897  1.0000
  C   C92       1.0  0.66288  0.05958  0.33119  1.0000
  C   C93       1.0  0.67340  0.05935  0.16611  1.0000
  C   C94       1.0  0.66775  0.03880  0.08503  1.0000
  C   C95       1.0  0.64722  0.99785  0.08505  1.0000
  C   C96       1.0  0.63228  0.97733  0.16613  1.0000
  H   H57       1.0  0.68813  0.08916  0.16341  1.0000
  H   H58       1.0  0.67831  0.05368  0.02582  1.0000
  H   H59       1.0  0.64285  0.98295  0.02584  1.0000
  H   H60       1.0  0.61710  0.94752  0.16344  1.0000
  C   C97       1.0  0.14340  0.51201  0.35294  1.0000
  C   C98       1.0  0.10470  0.48069  0.34743  1.0000
  C   C99       1.0  0.09640  0.44173  0.33718  1.0000
  C   C100      1.0  0.12810  0.43458  0.33150  1.0000
  C   C101      1.0  0.16742  0.46561  0.33694  1.0000
  C   C102      1.0  0.17448  0.50419  0.34848  1.0000
  H   H61       1.0  0.12249  0.40652  0.32362  1.0000
  H   H62       1.0  0.20261  0.52706  0.35152  1.0000
  H   H63       1.0  0.08214  0.48646  0.35039  1.0000
  C   C103      1.0  0.52157  0.65305  0.35286  1.0000
  C   C104      1.0  0.55290  0.64567  0.34730  1.0000
  C   C105      1.0  0.59185  0.67634  0.33711  1.0000
  C   C106      1.0  0.59900  0.71519  0.33148  1.0000
  C   C107      1.0  0.56796  0.72348  0.33695  1.0000
  C   C108      1.0  0.52939  0.69195  0.34846  1.0000
  H   H64       1.0  0.62706  0.73765  0.32362  1.0000
  H   H65       1.0  0.50652  0.69721  0.35153  1.0000
  H   H66       1.0  0.54713  0.61734  0.35019  1.0000
  C   C109      1.0  0.38052  0.89024  0.35299  1.0000
  C   C110      1.0  0.38785  0.92893  0.34738  1.0000
  C   C111      1.0  0.35716  0.93718  0.33716  1.0000
  C   C112      1.0  0.31832  0.90543  0.33148  1.0000
  C   C113      1.0  0.31008  0.86614  0.33697  1.0000
  C   C114      1.0  0.34163  0.85912  0.34857  1.0000
  H   H67       1.0  0.29585  0.91101  0.32354  1.0000
  H   H68       1.0  0.33641  0.83101  0.35163  1.0000
  H   H69       1.0  0.41617  0.95152  0.35024  1.0000
  C   C115      1.0  0.88689  0.52480  0.35292  1.0000
  C   C116      1.0  0.92561  0.55610  0.34739  1.0000
  C   C117      1.0  0.93393  0.59507  0.33716  1.0000
  C   C118      1.0  0.90224  0.60224  0.33148  1.0000
  C   C119      1.0  0.86291  0.57123  0.33694  1.0000
  C   C120      1.0  0.85582  0.53264  0.34846  1.0000
  H   H70       1.0  0.90787  0.63031  0.32359  1.0000
  H   H71       1.0  0.82769  0.50979  0.35154  1.0000
  H   H72       1.0  0.94815  0.55032  0.35029  1.0000
  C   C121      1.0  0.50880  0.38376  0.35304  1.0000
  C   C122      1.0  0.47749  0.39117  0.34754  1.0000
  C   C123      1.0  0.43853  0.36052  0.33727  1.0000
  C   C124      1.0  0.43136  0.32166  0.33155  1.0000
  C   C125      1.0  0.46237  0.31335  0.33700  1.0000
  C   C126      1.0  0.50096  0.34486  0.34854  1.0000
  H   H73       1.0  0.40329  0.29922  0.32365  1.0000
  H   H74       1.0  0.52382  0.33958  0.35161  1.0000
  H   H75       1.0  0.48328  0.41950  0.35049  1.0000
  C   C127      1.0  0.64977  0.14656  0.35284  1.0000
  C   C128      1.0  0.64242  0.10787  0.34731  1.0000
  C   C129      1.0  0.67311  0.09961  0.33718  1.0000
  C   C130      1.0  0.71195  0.13134  0.33154  1.0000
  C   C131      1.0  0.72020  0.17064  0.33696  1.0000
  C   C132      1.0  0.68866  0.17767  0.34844  1.0000
  H   H76       1.0  0.73442  0.12575  0.32368  1.0000
  H   H77       1.0  0.69390  0.20579  0.35150  1.0000
  H   H78       1.0  0.61410  0.08529  0.35018  1.0000
  C   C133      1.0  0.50876  0.14653  0.35280  1.0000
  C   C134      1.0  0.47740  0.10784  0.34724  1.0000
  C   C135      1.0  0.43846  0.09960  0.33703  1.0000
  C   C136      1.0  0.43137  0.13135  0.33140  1.0000
  C   C137      1.0  0.46243  0.17064  0.33685  1.0000
  C   C138      1.0  0.50099  0.17765  0.34840  1.0000
  H   H79       1.0  0.40332  0.12577  0.32350  1.0000
  H   H80       1.0  0.52388  0.20576  0.35150  1.0000
  H   H81       1.0  0.48313  0.08525  0.35011  1.0000
  C   C139      1.0  0.64976  0.52473  0.35300  1.0000
  C   C140      1.0  0.64234  0.55603  0.34749  1.0000
  C   C141      1.0  0.67297  0.59499  0.33715  1.0000
  C   C142      1.0  0.71184  0.60218  0.33146  1.0000
  C   C143      1.0  0.72017  0.57117  0.33692  1.0000
  C   C144      1.0  0.68867  0.53258  0.34845  1.0000
  H   H82       1.0  0.73427  0.63025  0.32354  1.0000
  H   H83       1.0  0.69396  0.50973  0.35157  1.0000
  H   H84       1.0  0.61401  0.55024  0.35046  1.0000
  C   C145      1.0  0.88697  0.38385  0.35296  1.0000
  C   C146      1.0  0.92566  0.39121  0.34743  1.0000
  C   C147      1.0  0.93394  0.36053  0.33720  1.0000
  C   C148      1.0  0.90221  0.32168  0.33154  1.0000
  C   C149      1.0  0.86290  0.31342  0.33698  1.0000
  C   C150      1.0  0.85587  0.34496  0.34851  1.0000
  H   H85       1.0  0.90781  0.29922  0.32365  1.0000
  H   H86       1.0  0.82775  0.33972  0.35153  1.0000
  H   H87       1.0  0.94824  0.41953  0.35037  1.0000
  C   C151      1.0  0.52149  0.89020  0.35303  1.0000
  C   C152      1.0  0.55282  0.92890  0.34748  1.0000
  C   C153      1.0  0.59177  0.93718  0.33722  1.0000
  C   C154      1.0  0.59890  0.90546  0.33152  1.0000
  C   C155      1.0  0.56786  0.86615  0.33699  1.0000
  C   C156      1.0  0.52929  0.85910  0.34857  1.0000
  H   H88       1.0  0.62696  0.91106  0.32361  1.0000
  H   H89       1.0  0.50641  0.83098  0.35160  1.0000
  H   H90       1.0  0.54707  0.95147  0.35041  1.0000
  C   C157      1.0  0.38059  0.51206  0.35288  1.0000
  C   C158      1.0  0.38799  0.48075  0.34738  1.0000
  C   C159      1.0  0.35734  0.44179  0.33712  1.0000
  C   C160      1.0  0.31848  0.43462  0.33145  1.0000
  C   C161      1.0  0.31017  0.46565  0.33687  1.0000
  C   C162      1.0  0.34169  0.50423  0.34842  1.0000
  H   H91       1.0  0.29603  0.40656  0.32358  1.0000
  H   H92       1.0  0.33642  0.52709  0.35145  1.0000
  H   H93       1.0  0.41632  0.48653  0.35033  1.0000
  C   C163      1.0  0.14337  0.65298  0.35295  1.0000
  C   C164      1.0  0.10466  0.64558  0.34741  1.0000
  C   C165      1.0  0.09635  0.67623  0.33716  1.0000
  C   C166      1.0  0.12805  0.71509  0.33150  1.0000
  C   C167      1.0  0.16737  0.72340  0.33698  1.0000
  C   C168      1.0  0.17444  0.69189  0.34850  1.0000
  H   H94       1.0  0.12242  0.73754  0.32361  1.0000
  H   H95       1.0  0.20257  0.69716  0.35159  1.0000
  H   H96       1.0  0.08211  0.61725  0.35030  1.0000
  N   N13       1.0  0.22517  0.47140  0.40087  1.0000
  N   N14       1.0  0.25821  0.47141  0.40085  1.0000
  N   N15       1.0  0.56216  0.77540  0.40089  1.0000
  N   N16       1.0  0.56210  0.80841  0.40089  1.0000
  N   N17       1.0  0.25814  0.80840  0.40089  1.0000
  N   N18       1.0  0.22510  0.77537  0.40089  1.0000
  N   N19       1.0  0.80520  0.56549  0.40087  1.0000
  N   N20       1.0  0.77215  0.56546  0.40087  1.0000
  N   N21       1.0  0.46817  0.26139  0.40089  1.0000
  N   N22       1.0  0.46821  0.22838  0.40085  1.0000
  N   N23       1.0  0.77214  0.22840  0.40088  1.0000
  N   N24       1.0  0.80515  0.26146  0.40089  1.0000
  C   C169      1.0  0.15000  0.62112  0.36206  1.0000
  C   C170      1.0  0.15311  0.60545  0.44589  1.0000
  C   C171      1.0  0.15311  0.56927  0.44588  1.0000
  C   C172      1.0  0.15000  0.55049  0.36204  1.0000
  C   C173      1.0  0.15499  0.55276  0.52932  1.0000
  C   C174      1.0  0.15690  0.57151  0.61125  1.0000
  C   C175      1.0  0.15689  0.60699  0.61126  1.0000
  C   C176      1.0  0.15497  0.62382  0.52934  1.0000
  H   H97       1.0  0.15488  0.52687  0.53167  1.0000
  H   H98       1.0  0.15486  0.64961  0.53169  1.0000
  C   C177      1.0  0.41246  0.55055  0.36198  1.0000
  C   C178      1.0  0.42812  0.56934  0.44581  1.0000
  C   C179      1.0  0.46431  0.60552  0.44580  1.0000
  C   C180      1.0  0.48309  0.62117  0.36197  1.0000
  C   C181      1.0  0.48080  0.62391  0.52925  1.0000
  C   C182      1.0  0.46204  0.60709  0.61117  1.0000
  C   C183      1.0  0.42655  0.57161  0.61117  1.0000
  C   C184      1.0  0.40973  0.55285  0.52926  1.0000
  H   H99       1.0  0.50670  0.64969  0.53159  1.0000
  H   H100      1.0  0.38394  0.52695  0.53160  1.0000
  C   C185      1.0  0.48302  0.88364  0.36205  1.0000
  C   C186      1.0  0.46421  0.88047  0.44587  1.0000
  C   C187      1.0  0.42803  0.88049  0.44586  1.0000
  C   C188      1.0  0.41245  0.88372  0.36202  1.0000
  C   C189      1.0  0.40964  0.87858  0.52931  1.0000
  C   C190      1.0  0.42643  0.87660  0.61123  1.0000
  C   C191      1.0  0.46190  0.87657  0.61123  1.0000
  C   C192      1.0  0.48068  0.87853  0.52932  1.0000
  H   H101      1.0  0.38388  0.87874  0.53165  1.0000
  H   H102      1.0  0.50657  0.87864  0.53169  1.0000
  C   C193      1.0  0.88043  0.41577  0.36199  1.0000
  C   C194      1.0  0.87723  0.43137  0.44584  1.0000
  C   C195      1.0  0.87719  0.46754  0.44584  1.0000
  C   C196      1.0  0.88027  0.48631  0.36200  1.0000
  C   C197      1.0  0.87529  0.48403  0.52929  1.0000
  C   C198      1.0  0.87338  0.46529  0.61121  1.0000
  C   C199      1.0  0.87342  0.42982  0.61121  1.0000
  C   C200      1.0  0.87537  0.41300  0.52929  1.0000
  H   H103      1.0  0.87537  0.50991  0.53163  1.0000
  H   H104      1.0  0.87553  0.38725  0.53164  1.0000
  C   C201      1.0  0.61790  0.48625  0.36214  1.0000
  C   C202      1.0  0.60221  0.46752  0.44600  1.0000
  C   C203      1.0  0.56602  0.43133  0.44602  1.0000
  C   C204      1.0  0.54729  0.41562  0.36218  1.0000
  C   C205      1.0  0.54948  0.41300  0.52949  1.0000
  C   C206      1.0  0.56820  0.42987  0.61140  1.0000
  C   C207      1.0  0.60368  0.46536  0.61139  1.0000
  C   C208      1.0  0.62055  0.48406  0.52945  1.0000
  H   H105      1.0  0.52359  0.38721  0.53184  1.0000
  H   H106      1.0  0.64633  0.50996  0.53178  1.0000
  C   C209      1.0  0.54723  0.15307  0.36188  1.0000
  C   C210      1.0  0.56606  0.15633  0.44570  1.0000
  C   C211      1.0  0.60225  0.15635  0.44570  1.0000
  C   C212      1.0  0.61785  0.15311  0.36188  1.0000
  C   C213      1.0  0.62069  0.15834  0.52914  1.0000
  C   C214      1.0  0.60391  0.16037  0.61105  1.0000
  C   C215      1.0  0.56841  0.16035  0.61104  1.0000
  C   C216      1.0  0.54960  0.15831  0.52914  1.0000
  H   H107      1.0  0.64647  0.15823  0.53150  1.0000
  H   H108      1.0  0.52370  0.15818  0.53148  1.0000
  N   N25       1.0  0.03422  0.40733  0.40543  1.0000
  N   N26       1.0  0.99611  0.38828  0.40544  1.0000
  N   N27       1.0  0.62615  0.64849  0.40519  1.0000
  N   N28       1.0  0.64513  0.62936  0.40527  1.0000
  N   N29       1.0  0.38499  0.99933  0.40506  1.0000
  N   N30       1.0  0.40408  0.03744  0.40502  1.0000
  N   N31       1.0  0.99608  0.62930  0.40520  1.0000
  N   N32       1.0  0.03420  0.64835  0.40520  1.0000
  N   N33       1.0  0.40420  0.38836  0.40543  1.0000
  N   N34       1.0  0.38516  0.40743  0.40539  1.0000
  N   N35       1.0  0.64530  0.03746  0.40525  1.0000
  N   N36       1.0  0.62617  0.99935  0.40533  1.0000
