data_image0
_chemical_formula_structural       C2H4CH4C3H2CHCH5NHC3H2CHCH5NHC2H2CHCH5NHC29H17C3O3C29H17C3O3C3NC2NCHCHNHC3NC2NCHCHNHC3NC2NCHCHNH
_chemical_formula_sum              "C102 H78 N12 O6"
_cell_length_a       45.0545
_cell_length_b       45.0546
_cell_length_c       14.9857
_cell_angle_alpha    90
_cell_angle_beta     90
_cell_angle_gamma    120

_space_group_name_H-M_alt    "P 1"
_space_group_IT_number       1

loop_
  _space_group_symop_operation_xyz
  'x, y, z'

loop_
  _atom_site_type_symbol
  _atom_site_label
  _atom_site_symmetry_multiplicity
  _atom_site_fract_x
  _atom_site_fract_y
  _atom_site_fract_z
  _atom_site_occupancy
  C   C1        1.0  0.01582  0.48372  0.26880  1.0000
  C   C2        1.0  0.39977  0.85303  0.34247  1.0000
  H   H1        1.0  0.38836  0.86677  0.36123  1.0000
  H   H2        1.0  0.35311  0.80635  0.34578  1.0000
  H   H3        1.0  0.47934  0.61278  0.36144  1.0000
  H   H4        1.0  0.13440  0.52187  0.36140  1.0000
  C   C3        1.0  0.58539  0.14507  0.32925  1.0000
  H   H5        1.0  0.59466  0.12898  0.31537  1.0000
  H   H6        1.0  0.63457  0.18875  0.32744  1.0000
  H   H7        1.0  0.53531  0.40654  0.31529  1.0000
  H   H8        1.0  0.87219  0.46588  0.31534  1.0000
  C   C4        1.0  0.49762  0.53426  0.33902  1.0000
  C   C5        1.0  0.53171  0.51082  0.27478  1.0000
  C   C6        1.0  0.51748  0.53233  0.26882  1.0000
  H   H9        1.0  0.52070  0.54580  0.21118  1.0000
  H   H10       1.0  0.54454  0.50896  0.22076  1.0000
  C   C7        1.0  0.47787  0.47480  0.07427  1.0000
  H   H11       1.0  0.50984  0.46041  0.00006  1.0000
  C   C8        1.0  0.44828  0.48221  0.05749  1.0000
  H   H12       1.0  0.50089  0.49868  0.09251  1.0000
  H   H13       1.0  0.47129  0.45680  0.12970  1.0000
  H   H14       1.0  0.44380  0.49312  0.11771  1.0000
  H   H15       1.0  0.42484  0.45806  0.04312  1.0000
  H   H16       1.0  0.47298  0.53354  0.00129  1.0000
  N   N1        1.0  0.48329  0.55475  0.32939  1.0000
  H   H17       1.0  0.49776  0.57715  0.30237  1.0000
  C   C9        1.0  0.46688  0.96357  0.33918  1.0000
  C   C10       1.0  0.49037  0.02109  0.27483  1.0000
  C   C11       1.0  0.46882  0.98536  0.26894  1.0000
  H   H18       1.0  0.45534  0.97510  0.21132  1.0000
  H   H19       1.0  0.49224  0.03579  0.22081  1.0000
  C   C12       1.0  0.52641  0.00332  0.07437  1.0000
  H   H20       1.0  0.54079  0.04967  0.00013  1.0000
  C   C13       1.0  0.51896  0.96630  0.05760  1.0000
  H   H21       1.0  0.50253  0.00247  0.09265  1.0000
  H   H22       1.0  0.54442  0.01473  0.12976  1.0000
  H   H23       1.0  0.50807  0.95093  0.11784  1.0000
  H   H24       1.0  0.54311  0.96700  0.04317  1.0000
  H   H25       1.0  0.46761  0.93970  0.00150  1.0000
  N   N2        1.0  0.44630  0.92875  0.32977  1.0000
  H   H26       1.0  0.42398  0.92088  0.30237  1.0000
  C   C14       1.0  0.03761  0.50358  0.33900  1.0000
  C   C15       1.0  0.98008  0.46949  0.27476  1.0000
  H   H27       1.0  0.02607  0.48050  0.21117  1.0000
  H   H28       1.0  0.96538  0.45666  0.22074  1.0000
  C   C16       1.0  0.99789  0.52333  0.07425  1.0000
  H   H29       1.0  0.95153  0.49135  0.00004  1.0000
  C   C17       1.0  0.03489  0.55291  0.05747  1.0000
  H   H30       1.0  0.99875  0.50030  0.09249  1.0000
  H   H31       1.0  0.98647  0.52990  0.12968  1.0000
  H   H32       1.0  0.05028  0.55740  0.11770  1.0000
  H   H33       1.0  0.03418  0.57635  0.04311  1.0000
  H   H34       1.0  0.06152  0.52821  0.00127  1.0000
  N   N3        1.0  0.07243  0.51790  0.32938  1.0000
  H   H35       1.0  0.08035  0.50343  0.30236  1.0000
  C   C18       1.0  0.43565  0.86944  0.32843  1.0000
  C   C19       1.0  0.44979  0.84844  0.30659  1.0000
  C   C20       1.0  0.42902  0.81266  0.29858  1.0000
  C   C21       1.0  0.39331  0.79661  0.31300  1.0000
  C   C22       1.0  0.37888  0.81725  0.33426  1.0000
  C   C23       1.0  0.37242  0.76139  0.30564  1.0000
  C   C24       1.0  0.37606  0.73894  0.35710  1.0000
  C   C25       1.0  0.35505  0.70353  0.35214  1.0000
  C   C26       1.0  0.31889  0.68785  0.35290  1.0000
  C   C27       1.0  0.29770  0.65179  0.35231  1.0000
  C   C28       1.0  0.31338  0.63131  0.35302  1.0000
  C   C29       1.0  0.34944  0.64618  0.35231  1.0000
  C   C30       1.0  0.36992  0.68234  0.35288  1.0000
  C   C31       1.0  0.36385  0.62518  0.35733  1.0000
  C   C32       1.0  0.38994  0.62880  0.30590  1.0000
  C   C33       1.0  0.40426  0.60790  0.31328  1.0000
  C   C34       1.0  0.43932  0.62230  0.33455  1.0000
  C   C35       1.0  0.38457  0.57219  0.29886  1.0000
  C   C36       1.0  0.39955  0.55139  0.30688  1.0000
  C   C37       1.0  0.43469  0.56551  0.32866  1.0000
  C   C38       1.0  0.45419  0.60139  0.34265  1.0000
  C   C39       1.0  0.26229  0.63738  0.35734  1.0000
  C   C40       1.0  0.23983  0.61127  0.30596  1.0000
  C   C41       1.0  0.20461  0.59696  0.31333  1.0000
  C   C42       1.0  0.18858  0.61664  0.29887  1.0000
  C   C43       1.0  0.18394  0.56189  0.33459  1.0000
  C   C44       1.0  0.14817  0.54702  0.34268  1.0000
  C   C45       1.0  0.13178  0.56651  0.32859  1.0000
  C   C46       1.0  0.15280  0.60165  0.30684  1.0000
  H   H36       1.0  0.47553  0.85900  0.29550  1.0000
  H   H37       1.0  0.44021  0.79843  0.28225  1.0000
  H   H38       1.0  0.39609  0.69342  0.35528  1.0000
  H   H39       1.0  0.30781  0.70293  0.35528  1.0000
  H   H40       1.0  0.29830  0.60514  0.35549  1.0000
  H   H41       1.0  0.20283  0.64206  0.28255  1.0000
  H   H42       1.0  0.45421  0.64807  0.34600  1.0000
  H   H43       1.0  0.38436  0.52565  0.29579  1.0000
  H   H44       1.0  0.35915  0.56101  0.28254  1.0000
  H   H45       1.0  0.14226  0.61684  0.29571  1.0000
  H   H46       1.0  0.19482  0.54700  0.34605  1.0000
  H   H47       1.0  0.40044  0.64790  0.26198  1.0000
  H   H48       1.0  0.35368  0.60601  0.40123  1.0000
  H   H49       1.0  0.35330  0.75278  0.26178  1.0000
  H   H50       1.0  0.39523  0.74794  0.40098  1.0000
  H   H51       1.0  0.24842  0.60075  0.26210  1.0000
  H   H52       1.0  0.25330  0.64757  0.40117  1.0000
  C   C47       1.0  0.09558  0.55197  0.33936  1.0000
  C   C48       1.0  0.44923  0.54385  0.33950  1.0000
  C   C49       1.0  0.45729  0.90564  0.33930  1.0000
  O   O1        1.0  0.42749  0.51018  0.35644  1.0000
  O   O2        1.0  0.49095  0.91757  0.35636  1.0000
  O   O3        1.0  0.08365  0.57371  0.35643  1.0000
  C   C50       1.0  0.54972  0.13213  0.33921  1.0000
  C   C51       1.0  0.53861  0.15608  0.35456  1.0000
  C   C52       1.0  0.56215  0.19142  0.36096  1.0000
  C   C53       1.0  0.59767  0.20408  0.35083  1.0000
  C   C54       1.0  0.60901  0.18041  0.33549  1.0000
  C   C55       1.0  0.62132  0.23882  0.35779  1.0000
  C   C56       1.0  0.62025  0.26293  0.30716  1.0000
  C   C57       1.0  0.64378  0.29786  0.31262  1.0000
  C   C58       1.0  0.67955  0.31055  0.31196  1.0000
  C   C59       1.0  0.70332  0.34614  0.31260  1.0000
  C   C60       1.0  0.69063  0.36922  0.31196  1.0000
  C   C61       1.0  0.65504  0.35740  0.31259  1.0000
  C   C62       1.0  0.63196  0.32162  0.31197  1.0000
  C   C63       1.0  0.64365  0.38093  0.30712  1.0000
  C   C64       1.0  0.61847  0.37986  0.35778  1.0000
  C   C65       1.0  0.60738  0.40351  0.35083  1.0000
  C   C66       1.0  0.57238  0.39218  0.33547  1.0000
  C   C67       1.0  0.63025  0.43904  0.36096  1.0000
  C   C68       1.0  0.61846  0.46258  0.35454  1.0000
  C   C69       1.0  0.58340  0.45148  0.33916  1.0000
  C   C70       1.0  0.56066  0.41581  0.32922  1.0000
  C   C71       1.0  0.73824  0.35753  0.30714  1.0000
  C   C72       1.0  0.76236  0.38271  0.35779  1.0000
  C   C73       1.0  0.79710  0.39381  0.35083  1.0000
  C   C74       1.0  0.80975  0.37094  0.36096  1.0000
  C   C75       1.0  0.82076  0.42880  0.33545  1.0000
  C   C76       1.0  0.85611  0.44052  0.32921  1.0000
  C   C77       1.0  0.86905  0.41779  0.33918  1.0000
  C   C78       1.0  0.84509  0.38273  0.35457  1.0000
  H   H53       1.0  0.51314  0.14801  0.36291  1.0000
  H   H54       1.0  0.55310  0.20783  0.37339  1.0000
  H   H55       1.0  0.60611  0.31273  0.30939  1.0000
  H   H56       1.0  0.68844  0.29359  0.30940  1.0000
  H   H57       1.0  0.70758  0.39506  0.30937  1.0000
  H   H58       1.0  0.79335  0.34548  0.37340  1.0000
  H   H59       1.0  0.55515  0.36662  0.32741  1.0000
  H   H60       1.0  0.63585  0.48805  0.36288  1.0000
  H   H61       1.0  0.65570  0.44808  0.37340  1.0000
  H   H62       1.0  0.85317  0.36534  0.36287  1.0000
  H   H63       1.0  0.81243  0.44603  0.32746  1.0000
  H   H64       1.0  0.60640  0.36086  0.40139  1.0000
  H   H65       1.0  0.65549  0.40004  0.26360  1.0000
  H   H66       1.0  0.64033  0.24575  0.40139  1.0000
  H   H67       1.0  0.60113  0.25566  0.26363  1.0000
  H   H68       1.0  0.75543  0.39478  0.40140  1.0000
  H   H69       1.0  0.74552  0.34569  0.26360  1.0000
  C   C79       1.0  0.90485  0.42934  0.33191  1.0000
  C   C80       1.0  0.57186  0.47574  0.33189  1.0000
  C   C81       1.0  0.52546  0.09633  0.33198  1.0000
  O   O4        1.0  0.59510  0.50813  0.30703  1.0000
  O   O5        1.0  0.49306  0.08716  0.30709  1.0000
  O   O6        1.0  0.91401  0.40610  0.30707  1.0000
  C   C82       1.0  0.49411  0.51555  0.41806  1.0000
  C   C83       1.0  0.50840  0.49375  0.42396  1.0000
  C   C84       1.0  0.52738  0.49106  0.35212  1.0000
  N   N4        1.0  0.50445  0.47669  0.50188  1.0000
  C   C85       1.0  0.48790  0.47943  0.57438  1.0000
  C   C86       1.0  0.47370  0.50119  0.56856  1.0000
  N   N5        1.0  0.47779  0.51843  0.49105  1.0000
  C   C87       1.0  0.48563  0.46003  0.65636  1.0000
  H   H70       1.0  0.46552  0.43339  0.64686  1.0000
  C   C88       1.0  0.45640  0.50729  0.64472  1.0000
  H   H71       1.0  0.43240  0.50517  0.62157  1.0000
  N   N6        1.0  0.53978  0.46868  0.35625  1.0000
  H   H72       1.0  0.52522  0.44696  0.38633  1.0000
  C   C89       1.0  0.48559  0.97878  0.41820  1.0000
  C   C90       1.0  0.50743  0.01487  0.42404  1.0000
  C   C91       1.0  0.51014  0.03653  0.35215  1.0000
  N   N7        1.0  0.52450  0.02798  0.50194  1.0000
  C   C92       1.0  0.52174  0.00870  0.57448  1.0000
  C   C93       1.0  0.49995  0.97274  0.56871  1.0000
  N   N8        1.0  0.48271  0.95959  0.49121  1.0000
  C   C94       1.0  0.54116  0.02583  0.65644  1.0000
  H   H73       1.0  0.56779  0.03235  0.64690  1.0000
  C   C95       1.0  0.49386  0.94935  0.64488  1.0000
  H   H74       1.0  0.49595  0.92746  0.62173  1.0000
  N   N9        1.0  0.53253  0.07131  0.35627  1.0000
  H   H75       1.0  0.55425  0.07846  0.38635  1.0000
  C   C96       1.0  0.02240  0.50709  0.41804  1.0000
  C   C97       1.0  0.98631  0.49279  0.42394  1.0000
  C   C98       1.0  0.96465  0.47382  0.35210  1.0000
  N   N10       1.0  0.97320  0.49674  0.50186  1.0000
  C   C99       1.0  0.99249  0.51329  0.57436  1.0000
  C   C100      1.0  0.02845  0.52750  0.56854  1.0000
  N   N11       1.0  0.04160  0.52340  0.49103  1.0000
  C   C101      1.0  0.97536  0.51556  0.65634  1.0000
  H   H76       1.0  0.96884  0.53567  0.64684  1.0000
  C   C102      1.0  0.05185  0.54480  0.64470  1.0000
  H   H77       1.0  0.07373  0.56879  0.62156  1.0000
  N   N12       1.0  0.92987  0.46143  0.35621  1.0000
  H   H78       1.0  0.92272  0.47599  0.38631  1.0000
