data_image0
_chemical_formula_structural       C14H12C7NC12H12C2NC3NC3NC15H14C2H2C2H2C2H2C2H2C2H2C2H2C3NC2NC5NC3NC17H14CNC2NC4NC18H14C2NC19H12C4HNO2C4HNO2C4HNO2C4HNO2C4HNO2C4HNO2
_chemical_formula_sum              "C168 H96 N18 O12"
_cell_length_a       41.8956
_cell_length_b       41.8957
_cell_length_c       15.0268
_cell_angle_alpha    90.0372
_cell_angle_beta     89.9628
_cell_angle_gamma    120

_space_group_name_H-M_alt    "P 1"
_space_group_IT_number       1

loop_
  _space_group_symop_operation_xyz
  'x, y, z'

loop_
  _atom_site_type_symbol
  _atom_site_label
  _atom_site_symmetry_multiplicity
  _atom_site_fract_x
  _atom_site_fract_y
  _atom_site_fract_z
  _atom_site_occupancy
  C   C1        1.0  0.94872  0.54772  0.33366  1.0000
  C   C2        1.0  0.09770  0.53627  0.32696  1.0000
  C   C3        1.0  0.10951  0.57446  0.33386  1.0000
  C   C4        1.0  0.14597  0.63581  0.34428  1.0000
  C   C5        1.0  0.14578  0.60286  0.34611  1.0000
  C   C6        1.0  0.16163  0.75313  0.26432  1.0000
  C   C7        1.0  0.13358  0.71597  0.26019  1.0000
  C   C8        1.0  0.12541  0.52575  0.32675  1.0000
  C   C9        1.0  0.18170  0.53099  0.26364  1.0000
  C   C10       1.0  0.15237  0.53814  0.25898  1.0000
  C   C11       1.0  0.92475  0.40626  0.25978  1.0000
  C   C12       1.0  0.89688  0.36903  0.26390  1.0000
  C   C13       1.0  0.90594  0.58395  0.25840  1.0000
  C   C14       1.0  0.87646  0.59087  0.26294  1.0000
  H   H1        1.0  0.85619  0.57878  0.21595  1.0000
  H   H2        1.0  0.90646  0.56784  0.20776  1.0000
  H   H3        1.0  0.99455  0.66376  0.30010  1.0000
  H   H4        1.0  0.93947  0.41619  0.20205  1.0000
  H   H5        1.0  0.89360  0.35356  0.20863  1.0000
  H   H6        1.0  0.06372  0.45849  0.29917  1.0000
  H   H7        1.0  0.16927  0.66100  0.34966  1.0000
  H   H8        1.0  0.16888  0.60072  0.35352  1.0000
  H   H9        1.0  0.15203  0.55433  0.20839  1.0000
  H   H10       1.0  0.20203  0.54300  0.21673  1.0000
  H   H11       1.0  0.11887  0.70610  0.20246  1.0000
  H   H12       1.0  0.16505  0.76865  0.20911  1.0000
  C   C15       1.0  0.43806  0.45049  0.30620  1.0000
  C   C16       1.0  0.44424  0.50673  0.32166  1.0000
  C   C17       1.0  0.54182  0.49278  0.33349  1.0000
  C   C18       1.0  0.61266  0.61284  0.32197  1.0000
  C   C19       1.0  0.61886  0.66909  0.30677  1.0000
  C   C20       1.0  0.55326  0.65319  0.32652  1.0000
  C   C21       1.0  0.51507  0.62680  0.33337  1.0000
  N   N1        1.0  0.49856  0.58966  0.32745  1.0000
  C   C22       1.0  0.45372  0.60189  0.34428  1.0000
  C   C23       1.0  0.48667  0.63467  0.34578  1.0000
  C   C24       1.0  0.33641  0.50029  0.26414  1.0000
  C   C25       1.0  0.37357  0.50940  0.25992  1.0000
  C   C26       1.0  0.56377  0.69142  0.32633  1.0000
  C   C27       1.0  0.58032  0.76661  0.33236  1.0000
  C   C28       1.0  0.55853  0.74245  0.26320  1.0000
  C   C29       1.0  0.55134  0.70595  0.25862  1.0000
  C   C30       1.0  0.68331  0.61024  0.25956  1.0000
  C   C31       1.0  0.72052  0.61957  0.26372  1.0000
  C   C32       1.0  0.50568  0.41377  0.25808  1.0000
  C   C33       1.0  0.49874  0.37736  0.26264  1.0000
  H   H13       1.0  0.51088  0.36918  0.21575  1.0000
  H   H14       1.0  0.52185  0.43038  0.20754  1.0000
  H   H15       1.0  0.42585  0.42258  0.29882  1.0000
  H   H16       1.0  0.67338  0.61498  0.20180  1.0000
  H   H17       1.0  0.73601  0.63173  0.20847  1.0000
  H   H18       1.0  0.63107  0.69699  0.29899  1.0000
  H   H19       1.0  0.42853  0.59999  0.34986  1.0000
  H   H20       1.0  0.48882  0.65990  0.35352  1.0000
  H   H21       1.0  0.53517  0.68941  0.20799  1.0000
  H   H22       1.0  0.54650  0.75074  0.21634  1.0000
  H   H23       1.0  0.38343  0.50459  0.20209  1.0000
  H   H24       1.0  0.32089  0.48821  0.20890  1.0000
  C   C34       1.0  0.63913  0.07931  0.30737  1.0000
  C   C35       1.0  0.58283  0.02926  0.32200  1.0000
  N   N2        1.0  0.58047  0.06036  0.32658  1.0000
  C   C36       1.0  0.62320  0.12903  0.32642  1.0000
  C   C37       1.0  0.59682  0.14085  0.33319  1.0000
  C   C38       1.0  0.47674  0.09165  0.32196  1.0000
  N   N3        1.0  0.47908  0.06055  0.32662  1.0000
  C   C39       1.0  0.42044  0.04160  0.30734  1.0000
  C   C40       1.0  0.43635  0.99188  0.32630  1.0000
  C   C41       1.0  0.46272  0.98005  0.33289  1.0000
  N   N4        1.0  0.49987  0.00068  0.32722  1.0000
  C   C42       1.0  0.48761  0.94358  0.34332  1.0000
  C   C43       1.0  0.45484  0.94376  0.34488  1.0000
  C   C44       1.0  0.56495  0.96409  0.33397  1.0000
  C   C45       1.0  0.58130  0.90485  0.33985  1.0000
  C   C46       1.0  0.58933  0.92792  0.26388  1.0000
  C   C47       1.0  0.58023  0.95596  0.25967  1.0000
  C   C48       1.0  0.39812  0.96417  0.32615  1.0000
  C   C49       1.0  0.32295  0.90552  0.33235  1.0000
  C   C50       1.0  0.34707  0.90790  0.26304  1.0000
  C   C51       1.0  0.38354  0.93727  0.25825  1.0000
  C   C52       1.0  0.47927  0.16480  0.25937  1.0000
  C   C53       1.0  0.46993  0.19268  0.26350  1.0000
  C   C54       1.0  0.67590  0.18360  0.25805  1.0000
  C   C55       1.0  0.73645  0.21568  0.33213  1.0000
  C   C56       1.0  0.71231  0.21309  0.26274  1.0000
  H   H25       1.0  0.72055  0.23334  0.21569  1.0000
  H   H26       1.0  0.65934  0.18311  0.20735  1.0000
  H   H27       1.0  0.66702  0.09500  0.29952  1.0000
  H   H28       1.0  0.55808  0.06040  0.34047  1.0000
  H   H29       1.0  0.50150  0.06049  0.33993  1.0000
  H   H30       1.0  0.47444  0.15005  0.20169  1.0000
  H   H31       1.0  0.45770  0.19594  0.20833  1.0000
  H   H32       1.0  0.39254  0.02592  0.29968  1.0000
  H   H33       1.0  0.48950  0.92028  0.34864  1.0000
  H   H34       1.0  0.42961  0.92068  0.35241  1.0000
  H   H35       1.0  0.40007  0.93760  0.20761  1.0000
  H   H36       1.0  0.33875  0.88758  0.21610  1.0000
  H   H37       1.0  0.58512  0.97068  0.20193  1.0000
  H   H38       1.0  0.60151  0.92451  0.20873  1.0000
  C   C57       1.0  0.23089  0.49897  0.26016  1.0000
  C   C58       1.0  0.26478  0.49975  0.26067  1.0000
  H   H39       1.0  0.21849  0.49648  0.19986  1.0000
  H   H40       1.0  0.27533  0.49918  0.19995  1.0000
  C   C59       1.0  0.59056  0.82366  0.25975  1.0000
  C   C60       1.0  0.58981  0.85679  0.26028  1.0000
  H   H41       1.0  0.59301  0.81371  0.19943  1.0000
  H   H42       1.0  0.59030  0.86785  0.19955  1.0000
  C   C61       1.0  0.26587  0.85862  0.25994  1.0000
  C   C62       1.0  0.23276  0.82474  0.26055  1.0000
  H   H43       1.0  0.27575  0.87102  0.19960  1.0000
  H   H44       1.0  0.22162  0.81417  0.19986  1.0000
  C   C63       1.0  0.82671  0.62226  0.25984  1.0000
  C   C64       1.0  0.79265  0.62112  0.26035  1.0000
  H   H45       1.0  0.83923  0.62496  0.19956  1.0000
  H   H46       1.0  0.78210  0.62162  0.19962  1.0000
  C   C65       1.0  0.46736  0.29624  0.25940  1.0000
  C   C66       1.0  0.46854  0.26334  0.25994  1.0000
  H   H47       1.0  0.46468  0.30602  0.19910  1.0000
  H   H48       1.0  0.46808  0.25226  0.19922  1.0000
  C   C67       1.0  0.79344  0.26280  0.25981  1.0000
  C   C68       1.0  0.82635  0.29688  0.26039  1.0000
  H   H49       1.0  0.78368  0.25030  0.19950  1.0000
  H   H50       1.0  0.83744  0.30745  0.19968  1.0000
  C   C69       1.0  0.01024  0.65157  0.30812  1.0000
  C   C70       1.0  0.04817  0.67069  0.31181  1.0000
  C   C71       1.0  0.06029  0.64534  0.32267  1.0000
  N   N5        1.0  0.02920  0.61189  0.32738  1.0000
  C   C72       1.0  0.99812  0.61417  0.32059  1.0000
  C   C73       1.0  0.96053  0.58591  0.32691  1.0000
  N   N6        1.0  0.96936  0.53121  0.32788  1.0000
  C   C74       1.0  0.94863  0.49411  0.33485  1.0000
  C   C75       1.0  0.91227  0.48636  0.34430  1.0000
  C   C76       1.0  0.91244  0.51931  0.34590  1.0000
  C   C77       1.0  0.96046  0.46769  0.33036  1.0000
  C   C78       1.0  0.99796  0.47688  0.32216  1.0000
  N   N7        1.0  0.02904  0.51035  0.32672  1.0000
  C   C79       1.0  0.06012  0.50805  0.31998  1.0000
  C   C80       1.0  0.04801  0.47070  0.30669  1.0000
  C   C81       1.0  0.01010  0.45156  0.31072  1.0000
  N   N8        1.0  0.08889  0.59097  0.32797  1.0000
  C   C82       1.0  0.10961  0.62807  0.33496  1.0000
  C   C83       1.0  0.09779  0.65450  0.33046  1.0000
  C   C84       1.0  0.12546  0.69263  0.33454  1.0000
  C   C85       1.0  0.14626  0.70759  0.41275  1.0000
  C   C86       1.0  0.17585  0.74402  0.41427  1.0000
  C   C87       1.0  0.18473  0.76822  0.34025  1.0000
  C   C88       1.0  0.12712  0.50357  0.39530  1.0000
  C   C89       1.0  0.15517  0.49441  0.39632  1.0000
  C   C90       1.0  0.18403  0.50918  0.33277  1.0000
  C   C91       1.0  0.93281  0.42956  0.33426  1.0000
  C   C92       1.0  0.87387  0.35378  0.33993  1.0000
  C   C93       1.0  0.88259  0.37799  0.41397  1.0000
  C   C94       1.0  0.91200  0.41451  0.41244  1.0000
  C   C95       1.0  0.93278  0.59638  0.32642  1.0000
  C   C96       1.0  0.93079  0.61839  0.39510  1.0000
  C   C97       1.0  0.90259  0.62733  0.39603  1.0000
  C   C98       1.0  0.87382  0.61245  0.33230  1.0000
  H   H51       1.0  0.90297  0.64430  0.44542  1.0000
  H   H52       1.0  0.94999  0.62818  0.44502  1.0000
  H   H53       1.0  0.06374  0.69871  0.30738  1.0000
  H   H54       1.0  0.02914  0.58941  0.34066  1.0000
  H   H55       1.0  0.02910  0.53270  0.34181  1.0000
  H   H56       1.0  0.88936  0.52145  0.35340  1.0000
  H   H57       1.0  0.88898  0.46117  0.34973  1.0000
  H   H58       1.0  0.91680  0.43074  0.46746  1.0000
  H   H59       1.0  0.86699  0.37019  0.47035  1.0000
  H   H60       1.0  0.99454  0.42353  0.30644  1.0000
  H   H61       1.0  0.10781  0.49376  0.44498  1.0000
  H   H62       1.0  0.15454  0.47726  0.44548  1.0000
  H   H63       1.0  0.19152  0.75170  0.47051  1.0000
  H   H64       1.0  0.14145  0.69131  0.46764  1.0000
  C   C99       1.0  0.41891  0.46927  0.31021  1.0000
  N   N9        1.0  0.47771  0.50912  0.32620  1.0000
  C   C100      1.0  0.47541  0.47575  0.31940  1.0000
  C   C101      1.0  0.50364  0.46640  0.32644  1.0000
  N   N10       1.0  0.55834  0.52992  0.32749  1.0000
  C   C102      1.0  0.59543  0.54629  0.33459  1.0000
  C   C103      1.0  0.60317  0.51768  0.34430  1.0000
  C   C104      1.0  0.57022  0.48492  0.34594  1.0000
  C   C105      1.0  0.62185  0.58453  0.33004  1.0000
  N   N11       1.0  0.57920  0.61047  0.32658  1.0000
  C   C106      1.0  0.58149  0.64384  0.31977  1.0000
  C   C107      1.0  0.63800  0.65031  0.31064  1.0000
  C   C108      1.0  0.46146  0.57328  0.33463  1.0000
  C   C109      1.0  0.43505  0.53503  0.33012  1.0000
  C   C110      1.0  0.39691  0.52455  0.33431  1.0000
  C   C111      1.0  0.38196  0.53035  0.41262  1.0000
  C   C112      1.0  0.34553  0.52351  0.41425  1.0000
  C   C113      1.0  0.32131  0.50822  0.34023  1.0000
  C   C114      1.0  0.58594  0.71535  0.39489  1.0000
  C   C115      1.0  0.59510  0.75255  0.39591  1.0000
  C   C116      1.0  0.65998  0.59502  0.33400  1.0000
  C   C117      1.0  0.73576  0.61186  0.33981  1.0000
  C   C118      1.0  0.71154  0.59643  0.41383  1.0000
  C   C119      1.0  0.67502  0.58933  0.41224  1.0000
  C   C120      1.0  0.49316  0.42819  0.32595  1.0000
  C   C121      1.0  0.47104  0.40419  0.39448  1.0000
  C   C122      1.0  0.46211  0.36706  0.39545  1.0000
  C   C123      1.0  0.47707  0.35316  0.33187  1.0000
  H   H65       1.0  0.44509  0.35048  0.44473  1.0000
  H   H66       1.0  0.46118  0.41361  0.44427  1.0000
  H   H67       1.0  0.39088  0.45679  0.30615  1.0000
  H   H68       1.0  0.50005  0.53141  0.34134  1.0000
  H   H69       1.0  0.55680  0.58811  0.34084  1.0000
  H   H70       1.0  0.56805  0.45969  0.35365  1.0000
  H   H71       1.0  0.62835  0.51958  0.34989  1.0000
  H   H72       1.0  0.65876  0.57787  0.46721  1.0000
  H   H73       1.0  0.71930  0.58859  0.47017  1.0000
  H   H74       1.0  0.66603  0.66278  0.30636  1.0000
  H   H75       1.0  0.59575  0.70586  0.44458  1.0000
  H   H76       1.0  0.61224  0.76909  0.44507  1.0000
  H   H77       1.0  0.33784  0.53147  0.47059  1.0000
  H   H78       1.0  0.39824  0.54180  0.46753  1.0000
  C   C124      1.0  0.62031  0.04138  0.31104  1.0000
  C   C125      1.0  0.61385  0.09144  0.31989  1.0000
  N   N12       1.0  0.55968  0.12023  0.32740  1.0000
  C   C126      1.0  0.54331  0.14097  0.33430  1.0000
  C   C127      1.0  0.57194  0.17733  0.34355  1.0000
  C   C128      1.0  0.60470  0.17714  0.34523  1.0000
  C   C129      1.0  0.50507  0.12916  0.32979  1.0000
  C   C130      1.0  0.44571  0.02947  0.31990  1.0000
  C   C131      1.0  0.43924  0.07953  0.31120  1.0000
  C   C132      1.0  0.51624  0.97994  0.33407  1.0000
  C   C133      1.0  0.55449  0.99176  0.32982  1.0000
  C   C134      1.0  0.55904  0.94329  0.41218  1.0000
  C   C135      1.0  0.56589  0.91371  0.41379  1.0000
  C   C136      1.0  0.37424  0.96239  0.39490  1.0000
  C   C137      1.0  0.33703  0.93436  0.39596  1.0000
  C   C138      1.0  0.49460  0.15682  0.33372  1.0000
  C   C139      1.0  0.47777  0.21575  0.33945  1.0000
  C   C140      1.0  0.49328  0.20708  0.41343  1.0000
  C   C141      1.0  0.50041  0.17768  0.41185  1.0000
  C   C142      1.0  0.66142  0.15676  0.32604  1.0000
  C   C143      1.0  0.68535  0.15870  0.39478  1.0000
  C   C144      1.0  0.72249  0.18690  0.39584  1.0000
  H   H79       1.0  0.73903  0.18648  0.44522  1.0000
  H   H80       1.0  0.67588  0.13949  0.44465  1.0000
  H   H81       1.0  0.63277  0.02581  0.30677  1.0000
  H   H82       1.0  0.62993  0.20023  0.35272  1.0000
  H   H83       1.0  0.57005  0.20063  0.34886  1.0000
  H   H84       1.0  0.51191  0.17294  0.46680  1.0000
  H   H85       1.0  0.50119  0.22277  0.46967  1.0000
  H   H86       1.0  0.42679  0.09509  0.30700  1.0000
  H   H87       1.0  0.38376  0.98166  0.44470  1.0000
  H   H88       1.0  0.32053  0.93494  0.44529  1.0000
  H   H89       1.0  0.55785  0.89803  0.47003  1.0000
  H   H90       1.0  0.54751  0.94809  0.46703  1.0000
  C   C145      1.0  0.28447  0.50348  0.34043  1.0000
  C   C146      1.0  0.26680  0.50486  0.41986  1.0000
  C   C147      1.0  0.23387  0.50662  0.42044  1.0000
  C   C148      1.0  0.21538  0.50396  0.33897  1.0000
  H   H91       1.0  0.27846  0.50611  0.48021  1.0000
  N   N13       1.0  0.22133  0.51382  0.50158  1.0000
  O   O1        1.0  0.21398  0.48910  0.55853  1.0000
  O   O2        1.0  0.24437  0.54448  0.53410  1.0000
  C   C149      1.0  0.58609  0.87279  0.34005  1.0000
  C   C150      1.0  0.58473  0.85378  0.41948  1.0000
  C   C151      1.0  0.58293  0.81908  0.42003  1.0000
  C   C152      1.0  0.58558  0.80320  0.33855  1.0000
  H   H92       1.0  0.58344  0.86419  0.47983  1.0000
  N   N14       1.0  0.57569  0.79935  0.50116  1.0000
  O   O3        1.0  0.60039  0.81671  0.55816  1.0000
  O   O4        1.0  0.54503  0.79177  0.53363  1.0000
  C   C153      1.0  0.21681  0.80506  0.34036  1.0000
  C   C154      1.0  0.23588  0.82275  0.41972  1.0000
  C   C155      1.0  0.27057  0.85566  0.42018  1.0000
  C   C156      1.0  0.28639  0.87414  0.33866  1.0000
  H   H93       1.0  0.22549  0.81110  0.48010  1.0000
  N   N15       1.0  0.29034  0.86820  0.50126  1.0000
  O   O5        1.0  0.27300  0.87555  0.55833  1.0000
  O   O6        1.0  0.29795  0.84515  0.53367  1.0000
  C   C157      1.0  0.77275  0.61699  0.34005  1.0000
  C   C158      1.0  0.79046  0.61570  0.41946  1.0000
  C   C159      1.0  0.82358  0.61431  0.42001  1.0000
  C   C160      1.0  0.84224  0.61730  0.33856  1.0000
  H   H94       1.0  0.77865  0.61415  0.47980  1.0000
  N   N16       1.0  0.83615  0.60712  0.50106  1.0000
  O   O7        1.0  0.84320  0.63167  0.55833  1.0000
  O   O8        1.0  0.81328  0.57632  0.53317  1.0000
  C   C161      1.0  0.47260  0.24759  0.33969  1.0000
  C   C162      1.0  0.47384  0.26660  0.41908  1.0000
  C   C163      1.0  0.47517  0.30109  0.41961  1.0000
  C   C164      1.0  0.47221  0.31672  0.33814  1.0000
  H   H95       1.0  0.47532  0.25633  0.47943  1.0000
  N   N17       1.0  0.48226  0.32086  0.50067  1.0000
  O   O9        1.0  0.45768  0.30334  0.55784  1.0000
  O   O10       1.0  0.51306  0.32884  0.53293  1.0000
  C   C165      1.0  0.84204  0.31676  0.34013  1.0000
  C   C166      1.0  0.82298  0.29905  0.41949  1.0000
  C   C167      1.0  0.78848  0.26591  0.41996  1.0000
  C   C168      1.0  0.77289  0.24723  0.33849  1.0000
  H   H96       1.0  0.83317  0.31085  0.47985  1.0000
  N   N18       1.0  0.76865  0.25331  0.50096  1.0000
  O   O11       1.0  0.78612  0.24627  0.55828  1.0000
  O   O12       1.0  0.76066  0.27616  0.53303  1.0000
