data_image0
_chemical_formula_structural       C7H4CNCH2CHC7H4CNCH2CHC3H2NC3H2NC3H2NC11H6NCNC2H2C11H6NCNC2H2C3NOCHNC3NOCHNC3NOCHN
_chemical_formula_sum              "C69 H39 N15 O3"
_cell_length_a       37.0561
_cell_length_b       37.056
_cell_length_c       14.5263
_cell_angle_alpha    90
_cell_angle_beta     90
_cell_angle_gamma    120

_space_group_name_H-M_alt    "P 1"
_space_group_IT_number       1

loop_
  _space_group_symop_operation_xyz
  'x, y, z'

loop_
  _atom_site_type_symbol
  _atom_site_label
  _atom_site_symmetry_multiplicity
  _atom_site_fract_x
  _atom_site_fract_y
  _atom_site_fract_z
  _atom_site_occupancy
  C   C1        1.0  0.40785  0.64561  0.36760  1.0000
  C   C2        1.0  0.39516  0.77041  0.36763  1.0000
  C   C3        1.0  0.45906  0.60787  0.34820  1.0000
  C   C4        1.0  0.47653  0.65161  0.34447  1.0000
  C   C5        1.0  0.45151  0.67005  0.35458  1.0000
  C   C6        1.0  0.43901  0.79699  0.37256  1.0000
  C   C7        1.0  0.45755  0.84061  0.36329  1.0000
  H   H1        1.0  0.46572  0.70177  0.34969  1.0000
  H   H2        1.0  0.50776  0.67059  0.33292  1.0000
  H   H3        1.0  0.45819  0.78482  0.38143  1.0000
  H   H4        1.0  0.48936  0.85845  0.36473  1.0000
  C   C8        1.0  0.37618  0.72596  0.37207  1.0000
  N   N1        1.0  0.39937  0.70678  0.37167  1.0000
  C   C9        1.0  0.38239  0.66459  0.37206  1.0000
  H   H5        1.0  0.25597  0.68155  0.38141  1.0000
  H   H6        1.0  0.18234  0.63912  0.36468  1.0000
  C   C10       1.0  0.48424  0.59067  0.33088  1.0000
  H   H7        1.0  0.50711  0.60494  0.28521  1.0000
  C   C11       1.0  0.64123  0.38719  0.36559  1.0000
  C   C12       1.0  0.65359  0.26221  0.36573  1.0000
  C   C13       1.0  0.58994  0.42502  0.38152  1.0000
  C   C14       1.0  0.57239  0.38125  0.38459  1.0000
  C   C15       1.0  0.59744  0.36277  0.37631  1.0000
  C   C16       1.0  0.60972  0.23574  0.36154  1.0000
  C   C17       1.0  0.59114  0.19206  0.36915  1.0000
  H   H8        1.0  0.58310  0.33101  0.38029  1.0000
  H   H9        1.0  0.54101  0.36221  0.39391  1.0000
  H   H10       1.0  0.59056  0.24801  0.35402  1.0000
  H   H11       1.0  0.55933  0.17431  0.36771  1.0000
  C   C18       1.0  0.67265  0.30666  0.36200  1.0000
  N   N2        1.0  0.64955  0.32592  0.36227  1.0000
  C   C19       1.0  0.66662  0.36812  0.36194  1.0000
  H   H12       1.0  0.79274  0.35069  0.35421  1.0000
  H   H13       1.0  0.86644  0.39315  0.36790  1.0000
  C   C20       1.0  0.56440  0.44216  0.39533  1.0000
  H   H14       1.0  0.53873  0.42603  0.43284  1.0000
  C   C21       1.0  0.54906  0.49592  0.36334  1.0000
  C   C22       1.0  0.54624  0.51685  0.28471  1.0000
  C   C23       1.0  0.52330  0.53795  0.28658  1.0000
  H   H15       1.0  0.52146  0.55201  0.22766  1.0000
  H   H16       1.0  0.56050  0.51642  0.22475  1.0000
  N   N3        1.0  0.57113  0.47647  0.35781  1.0000
  C   C24       1.0  0.54483  0.06131  0.36335  1.0000
  C   C25       1.0  0.52387  0.03755  0.28474  1.0000
  C   C26       1.0  0.50277  0.99351  0.28661  1.0000
  H   H17       1.0  0.48871  0.97762  0.22769  1.0000
  H   H18       1.0  0.52430  0.05224  0.22479  1.0000
  N   N4        1.0  0.56427  0.10282  0.35784  1.0000
  C   C27       1.0  0.97946  0.49165  0.36339  1.0000
  C   C28       1.0  0.00321  0.49447  0.28477  1.0000
  C   C29       1.0  0.04726  0.51743  0.28663  1.0000
  H   H19       1.0  0.06315  0.51928  0.22771  1.0000
  H   H20       1.0  0.98852  0.48025  0.22478  1.0000
  N   N5        1.0  0.93794  0.46959  0.35786  1.0000
  C   C30       1.0  0.27037  0.63293  0.36768  1.0000
  C   C31       1.0  0.24379  0.65020  0.37255  1.0000
  C   C32       1.0  0.20017  0.62514  0.36327  1.0000
  C   C33       1.0  0.18142  0.58173  0.34827  1.0000
  C   C34       1.0  0.20767  0.56425  0.34455  1.0000
  C   C35       1.0  0.25113  0.58925  0.35473  1.0000
  C   C36       1.0  0.39058  0.60176  0.37253  1.0000
  C   C37       1.0  0.41565  0.58321  0.36324  1.0000
  C   C38       1.0  0.43288  0.85935  0.34820  1.0000
  C   C39       1.0  0.38915  0.83308  0.34445  1.0000
  C   C40       1.0  0.37071  0.78963  0.35465  1.0000
  H   H21       1.0  0.19543  0.53302  0.33303  1.0000
  H   H22       1.0  0.26864  0.57505  0.34982  1.0000
  H   H23       1.0  0.35924  0.58259  0.38150  1.0000
  H   H24       1.0  0.40168  0.55140  0.36477  1.0000
  H   H25       1.0  0.37015  0.84531  0.33293  1.0000
  H   H26       1.0  0.33899  0.77210  0.34970  1.0000
  N   N6        1.0  0.34003  0.64141  0.37170  1.0000
  C   C41       1.0  0.31481  0.65838  0.37210  1.0000
  N   N7        1.0  0.33399  0.70074  0.37171  1.0000
  C   C42       1.0  0.45007  0.90172  0.33090  1.0000
  C   C43       1.0  0.13905  0.55657  0.33084  1.0000
  H   H27       1.0  0.13047  0.53375  0.28502  1.0000
  H   H28       1.0  0.43585  0.91033  0.28509  1.0000
  C   C44       1.0  0.77856  0.39953  0.36572  1.0000
  C   C45       1.0  0.80502  0.38213  0.36163  1.0000
  C   C46       1.0  0.84870  0.40722  0.36924  1.0000
  C   C47       1.0  0.86769  0.45083  0.38161  1.0000
  C   C48       1.0  0.84147  0.46838  0.38481  1.0000
  C   C49       1.0  0.79794  0.44332  0.37654  1.0000
  C   C50       1.0  0.65865  0.43106  0.36159  1.0000
  C   C51       1.0  0.63355  0.44965  0.36920  1.0000
  C   C52       1.0  0.61577  0.17308  0.38163  1.0000
  C   C53       1.0  0.65953  0.19930  0.38488  1.0000
  C   C54       1.0  0.67800  0.24284  0.37664  1.0000
  H   H29       1.0  0.85381  0.49976  0.39411  1.0000
  H   H30       1.0  0.78051  0.45766  0.38055  1.0000
  H   H31       1.0  0.69009  0.45022  0.35431  1.0000
  H   H32       1.0  0.64764  0.48146  0.36807  1.0000
  H   H33       1.0  0.67857  0.18697  0.39427  1.0000
  H   H34       1.0  0.70976  0.26026  0.38072  1.0000
  N   N8        1.0  0.70898  0.39122  0.36228  1.0000
  C   C55       1.0  0.73411  0.37415  0.36200  1.0000
  N   N9        1.0  0.71485  0.33179  0.36234  1.0000
  C   C56       1.0  0.59864  0.13039  0.39522  1.0000
  C   C57       1.0  0.91038  0.47639  0.39526  1.0000
  H   H35       1.0  0.91995  0.50207  0.43273  1.0000
  H   H36       1.0  0.61477  0.12082  0.43265  1.0000
  C   C58       1.0  0.50287  0.53949  0.36790  1.0000
  C   C59       1.0  0.50589  0.51859  0.44605  1.0000
  C   C60       1.0  0.52863  0.49787  0.44379  1.0000
  N   N10       1.0  0.52682  0.48282  0.52794  1.0000
  O   O1        1.0  0.48941  0.51665  0.53096  1.0000
  C   C61       1.0  0.50354  0.49408  0.57772  1.0000
  H   H37       1.0  0.49721  0.48672  0.64576  1.0000
  N   N11       1.0  0.48080  0.55892  0.37486  1.0000
  C   C62       1.0  0.50125  0.97155  0.36792  1.0000
  C   C63       1.0  0.52215  0.99547  0.44608  1.0000
  C   C64       1.0  0.54286  0.03893  0.44382  1.0000
  N   N12       1.0  0.55795  0.05217  0.52794  1.0000
  O   O2        1.0  0.52412  0.98093  0.53096  1.0000
  C   C65       1.0  0.54666  0.01763  0.57773  1.0000
  H   H38       1.0  0.55416  0.01866  0.64569  1.0000
  N   N13       1.0  0.48181  0.93005  0.37490  1.0000
  C   C66       1.0  0.06922  0.53785  0.36797  1.0000
  C   C67       1.0  0.04529  0.53479  0.44615  1.0000
  C   C68       1.0  0.00183  0.51203  0.44388  1.0000
  N   N14       1.0  0.98859  0.51387  0.52802  1.0000
  O   O3        1.0  0.05983  0.55128  0.53105  1.0000
  C   C69       1.0  0.02312  0.53710  0.57782  1.0000
  H   H39       1.0  0.02209  0.54355  0.64579  1.0000
  N   N15       1.0  0.11072  0.55992  0.37495  1.0000
