data_image0
_chemical_formula_structural       C17H12C17H12C2H2C2H2C2H2C13H9C13H9C4HCH3C4HCH3C4HCH3
_chemical_formula_sum              "C81 H60"
_cell_length_a       37.3774
_cell_length_b       37.3522
_cell_length_c       14.8606
_cell_angle_alpha    90
_cell_angle_beta     90
_cell_angle_gamma    120.036

_space_group_name_H-M_alt    "P 1"
_space_group_IT_number       1

loop_
  _space_group_symop_operation_xyz
  'x, y, z'

loop_
  _atom_site_type_symbol
  _atom_site_label
  _atom_site_symmetry_multiplicity
  _atom_site_fract_x
  _atom_site_fract_y
  _atom_site_fract_z
  _atom_site_occupancy
  C   C1        1.0  0.47699  0.89209  0.31360  1.0000
  C   C2        1.0  0.45408  0.84855  0.31682  1.0000
  C   C3        1.0  0.38936  0.75766  0.29473  1.0000
  C   C4        1.0  0.36499  0.71493  0.30212  1.0000
  C   C5        1.0  0.32135  0.69541  0.30119  1.0000
  C   C6        1.0  0.29644  0.65182  0.30115  1.0000
  C   C7        1.0  0.31593  0.62766  0.30043  1.0000
  C   C8        1.0  0.35948  0.64636  0.30136  1.0000
  C   C9        1.0  0.38366  0.69004  0.30138  1.0000
  C   C10       1.0  0.37783  0.62204  0.29356  1.0000
  C   C11       1.0  0.42419  0.59856  0.34710  1.0000
  C   C12       1.0  0.40399  0.55730  0.31514  1.0000
  C   C13       1.0  0.42463  0.53443  0.31173  1.0000
  C   C14       1.0  0.25377  0.63351  0.29307  1.0000
  C   C15       1.0  0.18372  0.58655  0.34494  1.0000
  C   C16       1.0  0.15932  0.54483  0.37234  1.0000
  C   C17       1.0  0.11587  0.52466  0.36989  1.0000
  H   H1        1.0  0.50697  0.90606  0.29180  1.0000
  H   H2        1.0  0.46821  0.83241  0.29717  1.0000
  H   H3        1.0  0.41525  0.70389  0.29864  1.0000
  H   H4        1.0  0.30755  0.71320  0.29837  1.0000
  H   H5        1.0  0.29817  0.59606  0.29706  1.0000
  H   H6        1.0  0.40859  0.50442  0.29003  1.0000
  H   H7        1.0  0.37369  0.54312  0.29557  1.0000
  H   H8        1.0  0.09941  0.49445  0.39023  1.0000
  H   H9        1.0  0.17301  0.52866  0.39500  1.0000
  H   H10       1.0  0.37064  0.60409  0.23941  1.0000
  H   H11       1.0  0.40740  0.76850  0.24075  1.0000
  H   H12       1.0  0.24317  0.64153  0.23992  1.0000
  C   C18       1.0  0.53635  0.11770  0.34193  1.0000
  C   C19       1.0  0.56059  0.16115  0.34377  1.0000
  C   C20       1.0  0.62437  0.25116  0.30031  1.0000
  C   C21       1.0  0.64910  0.29403  0.30671  1.0000
  C   C22       1.0  0.69279  0.31376  0.30642  1.0000
  C   C23       1.0  0.71778  0.35738  0.30681  1.0000
  C   C24       1.0  0.69807  0.38136  0.30578  1.0000
  C   C25       1.0  0.65449  0.36271  0.30620  1.0000
  C   C26       1.0  0.63050  0.31900  0.30578  1.0000
  C   C27       1.0  0.63639  0.38743  0.29945  1.0000
  C   C28       1.0  0.58636  0.40746  0.34318  1.0000
  C   C29       1.0  0.61014  0.45119  0.34259  1.0000
  C   C30       1.0  0.59093  0.47539  0.34061  1.0000
  C   C31       1.0  0.76065  0.37550  0.30059  1.0000
  C   C32       1.0  0.83070  0.42610  0.34308  1.0000
  C   C33       1.0  0.85563  0.46963  0.33726  1.0000
  C   C34       1.0  0.89906  0.48881  0.33536  1.0000
  H   H13       1.0  0.50483  0.10426  0.34207  1.0000
  H   H14       1.0  0.54595  0.17809  0.34638  1.0000
  H   H15       1.0  0.59891  0.30510  0.30277  1.0000
  H   H16       1.0  0.70665  0.29604  0.30387  1.0000
  H   H17       1.0  0.71576  0.41296  0.30269  1.0000
  H   H18       1.0  0.60901  0.50694  0.34086  1.0000
  H   H19       1.0  0.64172  0.46588  0.34541  1.0000
  H   H20       1.0  0.91619  0.52040  0.33259  1.0000
  H   H21       1.0  0.84237  0.48787  0.33520  1.0000
  H   H22       1.0  0.64840  0.41023  0.25446  1.0000
  H   H23       1.0  0.60158  0.24030  0.25535  1.0000
  H   H24       1.0  0.77149  0.36296  0.25713  1.0000
  C   C35       1.0  0.50574  0.48161  0.26653  1.0000
  C   C36       1.0  0.48539  0.50468  0.26589  1.0000
  H   H25       1.0  0.50456  0.46545  0.20983  1.0000
  H   H26       1.0  0.47033  0.50489  0.20855  1.0000
  C   C37       1.0  0.52998  0.02614  0.26827  1.0000
  C   C38       1.0  0.50683  0.98267  0.26768  1.0000
  H   H27       1.0  0.54615  0.04109  0.21158  1.0000
  H   H28       1.0  0.50662  0.96737  0.21038  1.0000
  C   C39       1.0  0.98533  0.50550  0.26519  1.0000
  C   C40       1.0  0.02875  0.52560  0.26395  1.0000
  H   H29       1.0  0.97025  0.50596  0.20803  1.0000
  H   H30       1.0  0.04395  0.53987  0.20592  1.0000
  C   C41       1.0  0.45979  0.91624  0.34346  1.0000
  C   C42       1.0  0.41283  0.82748  0.34872  1.0000
  C   C43       1.0  0.39559  0.85163  0.37821  1.0000
  C   C44       1.0  0.41862  0.89513  0.37565  1.0000
  C   C45       1.0  0.38956  0.78443  0.35568  1.0000
  C   C46       1.0  0.40439  0.62176  0.35440  1.0000
  C   C47       1.0  0.46560  0.61587  0.37647  1.0000
  C   C48       1.0  0.46598  0.55168  0.34161  1.0000
  C   C49       1.0  0.48608  0.59288  0.37380  1.0000
  C   C50       1.0  0.22672  0.60609  0.35244  1.0000
  C   C51       1.0  0.16296  0.60735  0.31502  1.0000
  C   C52       1.0  0.09514  0.54539  0.33962  1.0000
  C   C53       1.0  0.11947  0.58701  0.31159  1.0000
  H   H31       1.0  0.40480  0.91133  0.39716  1.0000
  H   H32       1.0  0.36594  0.83772  0.40221  1.0000
  H   H33       1.0  0.17930  0.63787  0.29704  1.0000
  H   H34       1.0  0.48135  0.64554  0.40052  1.0000
  H   H35       1.0  0.51610  0.60674  0.39527  1.0000
  H   H36       1.0  0.10567  0.60340  0.29133  1.0000
  H   H37       1.0  0.41143  0.64031  0.40762  1.0000
  H   H38       1.0  0.37091  0.77284  0.40871  1.0000
  H   H39       1.0  0.23804  0.59827  0.40474  1.0000
  C   C54       1.0  0.55508  0.09289  0.34194  1.0000
  C   C55       1.0  0.60428  0.18108  0.34453  1.0000
  C   C56       1.0  0.62292  0.15614  0.34341  1.0000
  C   C57       1.0  0.59869  0.11268  0.34153  1.0000
  C   C58       1.0  0.62891  0.22391  0.35141  1.0000
  C   C59       1.0  0.60455  0.38287  0.35032  1.0000
  C   C60       1.0  0.54278  0.38876  0.34177  1.0000
  C   C61       1.0  0.54739  0.45660  0.34031  1.0000
  C   C62       1.0  0.52355  0.41296  0.33974  1.0000
  C   C63       1.0  0.78793  0.40803  0.34995  1.0000
  C   C64       1.0  0.85056  0.40232  0.34702  1.0000
  C   C65       1.0  0.91881  0.46501  0.34045  1.0000
  C   C66       1.0  0.89397  0.42150  0.34509  1.0000
  H   H40       1.0  0.61315  0.09555  0.34232  1.0000
  H   H41       1.0  0.65443  0.16942  0.34483  1.0000
  H   H42       1.0  0.83360  0.37081  0.35293  1.0000
  H   H43       1.0  0.52454  0.35722  0.34309  1.0000
  H   H44       1.0  0.49195  0.39844  0.34035  1.0000
  H   H45       1.0  0.90737  0.40341  0.34840  1.0000
  H   H46       1.0  0.59246  0.36003  0.39521  1.0000
  H   H47       1.0  0.65174  0.23472  0.39628  1.0000
  H   H48       1.0  0.77723  0.42071  0.39341  1.0000
  C   C67       1.0  0.48649  0.52802  0.34178  1.0000
  C   C68       1.0  0.50821  0.52687  0.41874  1.0000
  C   C69       1.0  0.52870  0.50361  0.42113  1.0000
  C   C70       1.0  0.52782  0.48095  0.34320  1.0000
  H   H49       1.0  0.50831  0.54266  0.47515  1.0000
  C   C71       1.0  0.54932  0.50237  0.50593  1.0000
  H   H50       1.0  0.54499  0.51925  0.56087  1.0000
  H   H51       1.0  0.58247  0.51613  0.49495  1.0000
  H   H52       1.0  0.53673  0.47038  0.52775  1.0000
  C   C72       1.0  0.48348  0.96046  0.34357  1.0000
  C   C73       1.0  0.48465  0.98339  0.42047  1.0000
  C   C74       1.0  0.50797  0.02718  0.42280  1.0000
  C   C75       1.0  0.53068  0.04893  0.34489  1.0000
  H   H53       1.0  0.46885  0.96772  0.47689  1.0000
  C   C76       1.0  0.50924  0.04910  0.50754  1.0000
  H   H54       1.0  0.49229  0.02791  0.56248  1.0000
  H   H55       1.0  0.49558  0.06858  0.49644  1.0000
  H   H56       1.0  0.54121  0.06846  0.52942  1.0000
  C   C77       1.0  0.05105  0.52526  0.34037  1.0000
  C   C78       1.0  0.02842  0.50481  0.41854  1.0000
  C   C79       1.0  0.98470  0.48473  0.42160  1.0000
  C   C80       1.0  0.96275  0.48460  0.34304  1.0000
  H   H57       1.0  0.04428  0.50531  0.47517  1.0000
  C   C81       1.0  0.96310  0.46574  0.50773  1.0000
  H   H58       1.0  0.98449  0.47100  0.56290  1.0000
  H   H59       1.0  0.94350  0.43241  0.49963  1.0000
  H   H60       1.0  0.94395  0.47889  0.52755  1.0000
