data_image0
_chemical_formula_structural       C3HCH3C3HCH3C3HCH3C3HCH3C3HCH3C3HCH3C3HCH3C3HCH3C3HCH3C3HCH3C3HCH3C3HCH3C3HCH3C3HCH3C3HCH3C3HCH3C3HCH3C3HCH3C3HCH3C3HCH3C3HCH3C3HCH3C3HCH3C3HCH3CNCNCNCNCNCNCNCNCNCNCNCNCNCNCNCNCNCNCNCNCNCNCNCNCNCNCNCNCNCNCNCNCNCNCNCNCNCNCNCNCNCNCNCNCNCNCNCNC3HCH3C3HCH3C3HCH3C3HCH3C3HCH3C3HCH3C3HCH3C3HCH3C3HCH3C3HCH3C3HCH3C3HCH3C3HCH3C3HCH3C3HCH3C3HCH3C3HCH3C3HCH3C3HCH3C3HCH3C3HCH3C3HCH3C3HCH3C3HCH3
_chemical_formula_sum              "C240 H192 N48"
_cell_length_a       41.5737
_cell_length_b       41.5737
_cell_length_c       14.788
_cell_angle_alpha    90
_cell_angle_beta     90
_cell_angle_gamma    120

_space_group_name_H-M_alt    "P 1"
_space_group_IT_number       1

loop_
  _space_group_symop_operation_xyz
  'x, y, z'

loop_
  _atom_site_type_symbol
  _atom_site_label
  _atom_site_symmetry_multiplicity
  _atom_site_fract_x
  _atom_site_fract_y
  _atom_site_fract_z
  _atom_site_occupancy
  C   C1        1.0  0.01067  0.12731  0.26609  1.0000
  C   C2        1.0  0.01067  0.09302  0.26478  1.0000
  C   C3        1.0  0.01074  0.07526  0.34759  1.0000
  H   H1        1.0  0.01062  0.13969  0.20627  1.0000
  C   C4        1.0  0.01061  0.07617  0.17578  1.0000
  H   H2        1.0  0.01056  0.09274  0.11853  1.0000
  H   H3        1.0  0.98594  0.04871  0.17020  1.0000
  H   H4        1.0  0.03528  0.07338  0.17000  1.0000
  C   C5        1.0  0.89061  0.88694  0.26610  1.0000
  C   C6        1.0  0.92489  0.92123  0.26478  1.0000
  C   C7        1.0  0.94265  0.93906  0.34759  1.0000
  H   H5        1.0  0.87822  0.87451  0.20627  1.0000
  C   C8        1.0  0.94174  0.93802  0.17578  1.0000
  H   H6        1.0  0.92517  0.92141  0.11853  1.0000
  H   H7        1.0  0.96921  0.94081  0.17020  1.0000
  H   H8        1.0  0.94453  0.96547  0.17000  1.0000
  C   C9        1.0  0.13097  0.00723  0.26609  1.0000
  C   C10       1.0  0.09668  0.00724  0.26477  1.0000
  C   C11       1.0  0.07885  0.00717  0.34758  1.0000
  H   H9        1.0  0.14340  0.00728  0.20626  1.0000
  C   C12       1.0  0.07989  0.00730  0.17578  1.0000
  H   H10       1.0  0.09650  0.00733  0.11852  1.0000
  H   H11       1.0  0.07710  0.03197  0.17019  1.0000
  H   H12       1.0  0.05243  0.98263  0.17000  1.0000
  C   C13       1.0  0.13429  0.35889  0.34748  1.0000
  C   C14       1.0  0.09111  0.30170  0.26402  1.0000
  C   C15       1.0  0.11964  0.33955  0.26578  1.0000
  H   H13       1.0  0.12943  0.35367  0.20605  1.0000
  C   C16       1.0  0.07731  0.28502  0.17301  1.0000
  H   H14       1.0  0.05617  0.25572  0.17521  1.0000
  H   H15       1.0  0.10037  0.28740  0.13257  1.0000
  H   H16       1.0  0.06538  0.29988  0.13860  1.0000
  C   C17       1.0  0.65903  0.77900  0.34748  1.0000
  C   C18       1.0  0.71622  0.79299  0.26402  1.0000
  C   C19       1.0  0.67837  0.78367  0.26578  1.0000
  H   H17       1.0  0.66425  0.77935  0.20605  1.0000
  C   C20       1.0  0.73290  0.79586  0.17301  1.0000
  H   H18       1.0  0.76220  0.80402  0.17521  1.0000
  H   H19       1.0  0.73053  0.81656  0.13257  1.0000
  H   H20       1.0  0.71804  0.76908  0.13861  1.0000
  C   C21       1.0  0.23893  0.88363  0.34746  1.0000
  C   C22       1.0  0.22492  0.92681  0.26398  1.0000
  C   C23       1.0  0.23424  0.89828  0.26576  1.0000
  H   H21       1.0  0.23855  0.88848  0.20603  1.0000
  C   C24       1.0  0.22204  0.94061  0.17297  1.0000
  H   H22       1.0  0.21389  0.96176  0.17517  1.0000
  H   H23       1.0  0.20134  0.91755  0.13255  1.0000
  H   H24       1.0  0.24881  0.95252  0.13854  1.0000
  C   C25       1.0  0.34293  0.11615  0.26618  1.0000
  C   C26       1.0  0.30509  0.08756  0.26490  1.0000
  C   C27       1.0  0.28568  0.07292  0.34807  1.0000
  H   H25       1.0  0.35691  0.12618  0.20645  1.0000
  C   C28       1.0  0.28673  0.07284  0.17589  1.0000
  H   H26       1.0  0.30481  0.08731  0.11860  1.0000
  H   H27       1.0  0.26216  0.07580  0.17030  1.0000
  H   H28       1.0  0.27828  0.04348  0.17013  1.0000
  C   C29       1.0  0.78756  0.67498  0.26615  1.0000
  C   C30       1.0  0.79680  0.71282  0.26485  1.0000
  C   C31       1.0  0.80155  0.73222  0.34800  1.0000
  H   H29       1.0  0.78361  0.66100  0.20643  1.0000
  C   C32       1.0  0.80045  0.73119  0.17584  1.0000
  H   H30       1.0  0.79685  0.71311  0.11855  1.0000
  H   H31       1.0  0.82798  0.75576  0.17026  1.0000
  H   H32       1.0  0.77954  0.73963  0.17008  1.0000
  C   C33       1.0  0.90175  0.23035  0.26615  1.0000
  C   C34       1.0  0.93036  0.22111  0.26484  1.0000
  C   C35       1.0  0.94500  0.21637  0.34800  1.0000
  H   H33       1.0  0.89172  0.23430  0.20643  1.0000
  C   C36       1.0  0.94508  0.21748  0.17583  1.0000
  H   H34       1.0  0.93060  0.22107  0.11855  1.0000
  H   H35       1.0  0.94213  0.18995  0.17024  1.0000
  H   H36       1.0  0.97443  0.23840  0.17007  1.0000
  C   C37       1.0  0.32192  0.48927  0.26529  1.0000
  C   C38       1.0  0.28258  0.47044  0.26423  1.0000
  C   C39       1.0  0.26277  0.46091  0.34784  1.0000
  H   H37       1.0  0.33630  0.49571  0.20554  1.0000
  C   C40       1.0  0.26299  0.46126  0.17540  1.0000
  H   H38       1.0  0.28201  0.46972  0.11794  1.0000
  H   H39       1.0  0.24682  0.47527  0.16928  1.0000
  H   H40       1.0  0.24426  0.43132  0.17052  1.0000
  C   C41       1.0  0.52865  0.83623  0.26529  1.0000
  C   C42       1.0  0.54748  0.81572  0.26423  1.0000
  C   C43       1.0  0.55700  0.80544  0.34785  1.0000
  H   H41       1.0  0.52221  0.84418  0.20554  1.0000
  C   C44       1.0  0.55666  0.80531  0.17539  1.0000
  H   H42       1.0  0.54821  0.81587  0.11793  1.0000
  H   H43       1.0  0.54265  0.77513  0.16927  1.0000
  H   H44       1.0  0.58660  0.81652  0.17052  1.0000
  C   C45       1.0  0.18167  0.69600  0.26530  1.0000
  C   C46       1.0  0.20219  0.73534  0.26424  1.0000
  C   C47       1.0  0.21247  0.75515  0.34785  1.0000
  H   H45       1.0  0.17373  0.68162  0.20555  1.0000
  C   C48       1.0  0.21260  0.75493  0.17541  1.0000
  H   H46       1.0  0.20204  0.73592  0.11795  1.0000
  H   H47       1.0  0.24278  0.77110  0.16929  1.0000
  H   H48       1.0  0.20139  0.77366  0.17053  1.0000
  C   C49       1.0  0.50326  0.33809  0.34765  1.0000
  C   C50       1.0  0.47459  0.27887  0.26378  1.0000
  C   C51       1.0  0.49347  0.31820  0.26565  1.0000
  H   H49       1.0  0.50030  0.33270  0.20597  1.0000
  C   C52       1.0  0.46663  0.26106  0.17276  1.0000
  H   H50       1.0  0.45139  0.23081  0.17506  1.0000
  H   H51       1.0  0.49270  0.26972  0.13707  1.0000
  H   H52       1.0  0.45005  0.26974  0.13347  1.0000
  C   C53       1.0  0.84915  0.51465  0.34767  1.0000
  C   C54       1.0  0.81862  0.54333  0.26380  1.0000
  C   C55       1.0  0.83907  0.52445  0.26567  1.0000
  H   H53       1.0  0.84673  0.51761  0.20600  1.0000
  C   C56       1.0  0.80877  0.55130  0.17278  1.0000
  H   H54       1.0  0.79378  0.56655  0.17508  1.0000
  H   H55       1.0  0.79137  0.52523  0.13709  1.0000
  H   H56       1.0  0.83404  0.56787  0.13349  1.0000
  C   C57       1.0  0.67982  0.16877  0.34767  1.0000
  C   C58       1.0  0.73905  0.19929  0.26379  1.0000
  C   C59       1.0  0.69972  0.17884  0.26567  1.0000
  H   H57       1.0  0.68522  0.17118  0.20598  1.0000
  C   C60       1.0  0.75686  0.20913  0.17277  1.0000
  H   H58       1.0  0.78711  0.22413  0.17508  1.0000
  H   H59       1.0  0.74820  0.22653  0.13706  1.0000
  H   H60       1.0  0.74817  0.18386  0.13349  1.0000
  C   C61       1.0  0.15258  0.54980  0.34759  1.0000
  C   C62       1.0  0.16229  0.50403  0.26373  1.0000
  C   C63       1.0  0.15559  0.53425  0.26561  1.0000
  H   H61       1.0  0.15236  0.54489  0.20593  1.0000
  C   C64       1.0  0.16554  0.49047  0.17269  1.0000
  H   H62       1.0  0.17005  0.46682  0.17499  1.0000
  H   H63       1.0  0.18880  0.51280  0.13610  1.0000
  H   H64       1.0  0.14010  0.48196  0.13427  1.0000
  C   C65       1.0  0.46813  0.60637  0.34760  1.0000
  C   C66       1.0  0.51390  0.66185  0.26373  1.0000
  C   C67       1.0  0.48368  0.62493  0.26561  1.0000
  H   H65       1.0  0.47304  0.61107  0.20593  1.0000
  C   C68       1.0  0.52746  0.67866  0.17269  1.0000
  H   H66       1.0  0.55111  0.70682  0.17499  1.0000
  H   H67       1.0  0.50513  0.67960  0.13610  1.0000
  H   H68       1.0  0.53596  0.66173  0.13426  1.0000
  C   C69       1.0  0.41155  0.86533  0.34756  1.0000
  C   C70       1.0  0.35606  0.85563  0.26371  1.0000
  C   C71       1.0  0.39298  0.86233  0.26559  1.0000
  H   H69       1.0  0.40684  0.86555  0.20591  1.0000
  C   C72       1.0  0.33925  0.85239  0.17268  1.0000
  H   H70       1.0  0.31110  0.84788  0.17498  1.0000
  H   H71       1.0  0.33831  0.82912  0.13609  1.0000
  H   H72       1.0  0.35619  0.87782  0.13426  1.0000
  C   C73       1.0  0.53763  0.15143  0.26596  1.0000
  C   C74       1.0  0.50745  0.15821  0.26471  1.0000
  C   C75       1.0  0.49202  0.16130  0.34825  1.0000
  H   H73       1.0  0.54807  0.14800  0.20626  1.0000
  C   C76       1.0  0.49244  0.16154  0.17581  1.0000
  H   H74       1.0  0.50684  0.15789  0.11841  1.0000
  H   H75       1.0  0.49518  0.18897  0.16979  1.0000
  H   H76       1.0  0.46311  0.14046  0.17072  1.0000
  C   C77       1.0  0.62814  0.48029  0.26592  1.0000
  C   C78       1.0  0.66510  0.51047  0.26469  1.0000
  C   C79       1.0  0.68362  0.52590  0.34823  1.0000
  H   H77       1.0  0.61427  0.46984  0.20623  1.0000
  C   C80       1.0  0.68344  0.52548  0.17579  1.0000
  H   H78       1.0  0.66540  0.51108  0.11839  1.0000
  H   H79       1.0  0.70813  0.52275  0.16977  1.0000
  H   H80       1.0  0.69168  0.55481  0.17071  1.0000
  C   C81       1.0  0.86648  0.38976  0.26593  1.0000
  C   C82       1.0  0.85971  0.35281  0.26470  1.0000
  C   C83       1.0  0.85662  0.33428  0.34824  1.0000
  H   H81       1.0  0.86991  0.40364  0.20623  1.0000
  C   C84       1.0  0.85638  0.33446  0.17580  1.0000
  H   H82       1.0  0.86003  0.35251  0.11840  1.0000
  H   H83       1.0  0.82896  0.30978  0.16977  1.0000
  H   H84       1.0  0.87747  0.32623  0.17071  1.0000
  C   C85       1.0  0.99106  0.54092  0.26559  1.0000
  C   C86       1.0  0.03031  0.56030  0.26424  1.0000
  C   C87       1.0  0.04992  0.56965  0.34800  1.0000
  H   H85       1.0  0.97654  0.53301  0.20600  1.0000
  C   C88       1.0  0.04983  0.56937  0.17530  1.0000
  H   H86       1.0  0.03075  0.56063  0.11791  1.0000
  H   H87       1.0  0.06621  0.55557  0.16951  1.0000
  H   H88       1.0  0.06835  0.59932  0.16994  1.0000
  C   C89       1.0  0.47698  0.45372  0.26561  1.0000
  C   C90       1.0  0.45762  0.47360  0.26425  1.0000
  C   C91       1.0  0.44826  0.48385  0.34802  1.0000
  H   H89       1.0  0.48490  0.44712  0.20602  1.0000
  C   C92       1.0  0.44855  0.48405  0.17531  1.0000
  H   H90       1.0  0.45729  0.47372  0.11793  1.0000
  H   H91       1.0  0.46236  0.51424  0.16953  1.0000
  H   H92       1.0  0.41859  0.47262  0.16995  1.0000
  C   C93       1.0  0.56421  0.02685  0.26558  1.0000
  C   C94       1.0  0.54432  0.98760  0.26423  1.0000
  C   C95       1.0  0.53406  0.96799  0.34800  1.0000
  H   H93       1.0  0.57081  0.04136  0.20600  1.0000
  C   C96       1.0  0.53387  0.96808  0.17529  1.0000
  H   H94       1.0  0.54421  0.98715  0.11791  1.0000
  H   H95       1.0  0.50369  0.95170  0.16950  1.0000
  H   H96       1.0  0.54529  0.94955  0.16993  1.0000
  C   C97       1.0  0.97743  0.97385  0.34689  1.0000
  N   N1        1.0  0.01075  0.97467  0.34702  1.0000
  C   C98       1.0  0.04407  0.00717  0.34688  1.0000
  N   N2        1.0  0.04325  0.03967  0.34702  1.0000
  C   C99       1.0  0.01074  0.04048  0.34689  1.0000
  N   N3        1.0  0.97825  0.00716  0.34702  1.0000
  C   C100      1.0  0.97782  0.21335  0.34739  1.0000
  N   N4        1.0  0.97819  0.18062  0.34733  1.0000
  C   C101      1.0  0.01077  0.17983  0.34732  1.0000
  N   N5        1.0  0.04338  0.21316  0.34744  1.0000
  C   C102      1.0  0.04382  0.24630  0.34760  1.0000
  N   N6        1.0  0.01084  0.24557  0.34754  1.0000
  C   C103      1.0  0.80457  0.76806  0.34741  1.0000
  N   N7        1.0  0.83730  0.80116  0.34735  1.0000
  C   C104      1.0  0.83808  0.83452  0.34732  1.0000
  N   N8        1.0  0.80476  0.83381  0.34744  1.0000
  C   C105      1.0  0.77162  0.80111  0.34761  1.0000
  N   N9        1.0  0.77235  0.76885  0.34755  1.0000
  C   C106      1.0  0.24986  0.04010  0.34742  1.0000
  N   N10       1.0  0.21675  0.03972  0.34735  1.0000
  C   C107      1.0  0.18339  0.00714  0.34731  1.0000
  N   N11       1.0  0.18411  0.97454  0.34741  1.0000
  C   C108      1.0  0.21682  0.97410  0.34756  1.0000
  N   N12       1.0  0.24907  0.00709  0.34754  1.0000
  C   C109      1.0  0.22381  0.44651  0.34749  1.0000
  N   N13       1.0  0.19826  0.40949  0.34756  1.0000
  C   C110      1.0  0.16109  0.39747  0.34758  1.0000
  N   N14       1.0  0.14993  0.42327  0.34751  1.0000
  C   C111      1.0  0.17518  0.46033  0.34758  1.0000
  N   N15       1.0  0.21185  0.47142  0.34754  1.0000
  C   C112      1.0  0.57141  0.78089  0.34750  1.0000
  N   N16       1.0  0.60843  0.79236  0.34756  1.0000
  C   C113      1.0  0.62046  0.76722  0.34758  1.0000
  N   N17       1.0  0.59466  0.73025  0.34751  1.0000
  C   C114      1.0  0.55759  0.71844  0.34758  1.0000
  N   N18       1.0  0.54650  0.74401  0.34754  1.0000
  C   C115      1.0  0.23703  0.79411  0.34751  1.0000
  N   N19       1.0  0.22556  0.81966  0.34757  1.0000
  C   C116      1.0  0.25070  0.85683  0.34758  1.0000
  N   N20       1.0  0.28767  0.86800  0.34751  1.0000
  C   C117      1.0  0.29947  0.84274  0.34758  1.0000
  N   N21       1.0  0.27390  0.80608  0.34756  1.0000
  C   C118      1.0  0.45016  0.21989  0.34761  1.0000
  N   N22       1.0  0.41315  0.19434  0.34755  1.0000
  C   C119      1.0  0.40112  0.15717  0.34767  1.0000
  N   N23       1.0  0.42693  0.14601  0.34784  1.0000
  C   C120      1.0  0.46400  0.17128  0.34775  1.0000
  N   N24       1.0  0.47508  0.20794  0.34766  1.0000
  C   C121      1.0  0.78407  0.56776  0.34763  1.0000
  N   N25       1.0  0.79553  0.60478  0.34756  1.0000
  C   C122      1.0  0.77039  0.61680  0.34767  1.0000
  N   N26       1.0  0.73342  0.59099  0.34783  1.0000
  C   C123      1.0  0.72162  0.55392  0.34774  1.0000
  N   N27       1.0  0.74720  0.54285  0.34767  1.0000
  C   C124      1.0  0.79802  0.23384  0.34763  1.0000
  N   N28       1.0  0.82357  0.22237  0.34756  1.0000
  C   C125      1.0  0.86074  0.24751  0.34767  1.0000
  N   N29       1.0  0.87190  0.28448  0.34783  1.0000
  C   C126      1.0  0.84664  0.29629  0.34774  1.0000
  N   N30       1.0  0.80998  0.27071  0.34767  1.0000
  C   C127      1.0  0.14023  0.57586  0.34755  1.0000
  N   N31       1.0  0.16345  0.61342  0.34712  1.0000
  C   C128      1.0  0.14935  0.63687  0.34682  1.0000
  N   N32       1.0  0.11195  0.62244  0.34700  1.0000
  C   C129      1.0  0.08874  0.58517  0.34738  1.0000
  N   N33       1.0  0.10302  0.56217  0.34778  1.0000
  C   C130      1.0  0.44207  0.56797  0.34755  1.0000
  N   N34       1.0  0.40451  0.55363  0.34711  1.0000
  C   C131      1.0  0.38106  0.51608  0.34681  1.0000
  N   N35       1.0  0.39548  0.49310  0.34701  1.0000
  C   C132      1.0  0.43276  0.50717  0.34740  1.0000
  N   N36       1.0  0.45575  0.54444  0.34780  1.0000
  C   C133      1.0  0.44995  0.87768  0.34754  1.0000
  N   N37       1.0  0.46429  0.85446  0.34710  1.0000
  C   C134      1.0  0.50184  0.86856  0.34681  1.0000
  N   N38       1.0  0.52482  0.90596  0.34700  1.0000
  C   C135      1.0  0.51075  0.92917  0.34739  1.0000
  N   N39       1.0  0.47347  0.91489  0.34778  1.0000
  C   C136      1.0  0.57970  0.13658  0.34767  1.0000
  N   N40       1.0  0.61725  0.15987  0.34769  1.0000
  C   C137      1.0  0.64079  0.14588  0.34773  1.0000
  N   N41       1.0  0.62647  0.10848  0.34770  1.0000
  C   C138      1.0  0.58920  0.08519  0.34765  1.0000
  N   N42       1.0  0.56613  0.09938  0.34766  1.0000
  C   C139      1.0  0.57120  0.43820  0.34765  1.0000
  N   N43       1.0  0.55695  0.40065  0.34767  1.0000
  C   C140      1.0  0.51941  0.37712  0.34772  1.0000
  N   N44       1.0  0.49635  0.39145  0.34771  1.0000
  C   C141      1.0  0.51033  0.42872  0.34767  1.0000
  N   N45       1.0  0.54759  0.45178  0.34766  1.0000
  C   C142      1.0  0.88133  0.44670  0.34765  1.0000
  N   N46       1.0  0.85803  0.46096  0.34768  1.0000
  C   C143      1.0  0.87204  0.49850  0.34773  1.0000
  N   N47       1.0  0.90943  0.52156  0.34771  1.0000
  C   C144      1.0  0.93272  0.50758  0.34766  1.0000
  N   N48       1.0  0.91853  0.47032  0.34765  1.0000
  C   C145      1.0  0.01074  0.14522  0.34733  1.0000
  C   C146      1.0  0.01081  0.09314  0.43035  1.0000
  C   C147      1.0  0.01082  0.12743  0.42862  1.0000
  H   H97       1.0  0.01088  0.13987  0.48851  1.0000
  C   C148      1.0  0.01088  0.07779  0.52140  1.0000
  H   H98       1.0  0.01086  0.05159  0.51923  1.0000
  H   H99       1.0  0.98627  0.07303  0.55899  1.0000
  H   H100      1.0  0.03555  0.09766  0.55876  1.0000
  C   C149      1.0  0.87270  0.86911  0.34733  1.0000
  C   C150      1.0  0.92478  0.92125  0.43035  1.0000
  C   C151      1.0  0.89049  0.88697  0.42863  1.0000
  H   H101      1.0  0.87805  0.87459  0.48852  1.0000
  C   C152      1.0  0.94013  0.93667  0.52140  1.0000
  H   H102      1.0  0.96633  0.96286  0.51924  1.0000
  H   H103      1.0  0.94488  0.91682  0.55899  1.0000
  H   H104      1.0  0.92026  0.94148  0.55876  1.0000
  C   C153      1.0  0.14880  0.00716  0.34732  1.0000
  C   C154      1.0  0.09667  0.00711  0.43034  1.0000
  C   C155      1.0  0.13094  0.00710  0.42862  1.0000
  H   H105      1.0  0.14333  0.00704  0.48850  1.0000
  C   C156      1.0  0.08125  0.00705  0.52139  1.0000
  H   H106      1.0  0.05507  0.00706  0.51923  1.0000
  H   H107      1.0  0.10110  0.03165  0.55898  1.0000
  H   H108      1.0  0.07644  0.98238  0.55876  1.0000
  C   C157      1.0  0.11997  0.33929  0.42902  1.0000
  C   C158      1.0  0.09132  0.30148  0.43025  1.0000
  C   C159      1.0  0.07668  0.28209  0.34706  1.0000
  H   H109      1.0  0.12999  0.35326  0.48877  1.0000
  C   C160      1.0  0.07652  0.28312  0.51923  1.0000
  H   H110      1.0  0.09100  0.30118  0.57655  1.0000
  H   H111      1.0  0.07941  0.25850  0.52486  1.0000
  H   H112      1.0  0.04718  0.27475  0.52490  1.0000
  C   C161      1.0  0.67863  0.78427  0.42902  1.0000
  C   C162      1.0  0.71644  0.79343  0.43026  1.0000
  C   C163      1.0  0.73583  0.79818  0.34707  1.0000
  H   H113      1.0  0.66466  0.78032  0.48877  1.0000
  C   C164      1.0  0.73480  0.79698  0.51923  1.0000
  H   H114      1.0  0.71674  0.79341  0.57655  1.0000
  H   H115      1.0  0.75942  0.82448  0.52486  1.0000
  H   H116      1.0  0.74317  0.77601  0.52490  1.0000
  C   C165      1.0  0.23364  0.89795  0.42902  1.0000
  C   C166      1.0  0.22449  0.92661  0.43025  1.0000
  C   C167      1.0  0.21976  0.94124  0.34704  1.0000
  H   H117      1.0  0.23759  0.88793  0.48876  1.0000
  C   C168      1.0  0.22092  0.94141  0.51922  1.0000
  H   H118      1.0  0.22448  0.92692  0.57654  1.0000
  H   H119      1.0  0.19342  0.93853  0.52482  1.0000
  H   H120      1.0  0.24189  0.97074  0.52490  1.0000
  C   C169      1.0  0.36254  0.13039  0.34775  1.0000
  C   C170      1.0  0.30531  0.08728  0.43113  1.0000
  C   C171      1.0  0.34319  0.11574  0.42942  1.0000
  H   H121      1.0  0.35730  0.12549  0.48917  1.0000
  C   C172      1.0  0.28859  0.07347  0.52211  1.0000
  H   H122      1.0  0.25927  0.05240  0.51986  1.0000
  H   H123      1.0  0.29103  0.09656  0.56260  1.0000
  H   H124      1.0  0.30338  0.06147  0.55649  1.0000
  C   C173      1.0  0.78218  0.65538  0.34773  1.0000
  C   C174      1.0  0.79630  0.71262  0.43110  1.0000
  C   C175      1.0  0.78688  0.67474  0.42939  1.0000
  H   H125      1.0  0.78252  0.66063  0.48915  1.0000
  C   C176      1.0  0.79921  0.72933  0.52207  1.0000
  H   H126      1.0  0.80746  0.75866  0.51983  1.0000
  H   H127      1.0  0.81985  0.72690  0.56256  1.0000
  H   H128      1.0  0.77242  0.71455  0.55646  1.0000
  C   C177      1.0  0.88751  0.23571  0.34773  1.0000
  C   C178      1.0  0.93065  0.22160  0.43111  1.0000
  C   C179      1.0  0.90218  0.23101  0.42939  1.0000
  H   H129      1.0  0.89243  0.23537  0.48915  1.0000
  C   C180      1.0  0.94446  0.21870  0.52208  1.0000
  H   H130      1.0  0.96554  0.21046  0.51982  1.0000
  H   H131      1.0  0.92138  0.19804  0.56256  1.0000
  H   H132      1.0  0.95645  0.24548  0.55648  1.0000
  C   C181      1.0  0.34202  0.49982  0.34698  1.0000
  C   C182      1.0  0.28285  0.47105  0.43109  1.0000
  C   C183      1.0  0.32219  0.49002  0.42906  1.0000
  H   H133      1.0  0.33673  0.49693  0.48868  1.0000
  C   C184      1.0  0.26510  0.46310  0.52218  1.0000
  H   H134      1.0  0.23486  0.44777  0.52000  1.0000
  H   H135      1.0  0.27371  0.48917  0.55778  1.0000
  H   H136      1.0  0.27389  0.44660  0.56149  1.0000
  C   C185      1.0  0.51810  0.84578  0.34698  1.0000
  C   C186      1.0  0.54688  0.81539  0.43111  1.0000
  C   C187      1.0  0.52790  0.83575  0.42907  1.0000
  H   H137      1.0  0.52100  0.84339  0.48869  1.0000
  C   C188      1.0  0.55483  0.80559  0.52219  1.0000
  H   H138      1.0  0.57016  0.79067  0.52001  1.0000
  H   H139      1.0  0.52876  0.78813  0.55780  1.0000
  H   H140      1.0  0.57133  0.83088  0.56149  1.0000
  C   C189      1.0  0.17212  0.67591  0.34700  1.0000
  C   C190      1.0  0.20253  0.73507  0.43111  1.0000
  C   C191      1.0  0.18217  0.69574  0.42908  1.0000
  H   H141      1.0  0.17453  0.68120  0.48871  1.0000
  C   C192      1.0  0.21233  0.75282  0.52220  1.0000
  H   H142      1.0  0.22725  0.78307  0.52002  1.0000
  H   H143      1.0  0.22979  0.74421  0.55780  1.0000
  H   H144      1.0  0.18705  0.74404  0.56151  1.0000
  C   C193      1.0  0.49284  0.31804  0.42943  1.0000
  C   C194      1.0  0.47410  0.27871  0.43065  1.0000
  C   C195      1.0  0.46455  0.25885  0.34712  1.0000
  H   H145      1.0  0.49929  0.33246  0.48913  1.0000
  C   C196      1.0  0.46501  0.25918  0.51956  1.0000
  H   H146      1.0  0.47348  0.27823  0.57695  1.0000
  H   H147      1.0  0.47908  0.24306  0.52568  1.0000
  H   H148      1.0  0.43509  0.24040  0.52459  1.0000
  C   C197      1.0  0.83954  0.52507  0.42944  1.0000
  C   C198      1.0  0.81895  0.54382  0.43066  1.0000
  C   C199      1.0  0.80864  0.55338  0.34713  1.0000
  H   H149      1.0  0.84750  0.51862  0.48915  1.0000
  C   C200      1.0  0.80851  0.55291  0.51958  1.0000
  H   H150      1.0  0.81909  0.54444  0.57697  1.0000
  H   H151      1.0  0.77832  0.53884  0.52569  1.0000
  H   H152      1.0  0.81966  0.58283  0.52459  1.0000
  C   C201      1.0  0.69987  0.17838  0.42943  1.0000
  C   C202      1.0  0.73921  0.19897  0.43067  1.0000
  C   C203      1.0  0.75906  0.20927  0.34713  1.0000
  H   H153      1.0  0.68546  0.17042  0.48913  1.0000
  C   C204      1.0  0.75873  0.20941  0.51958  1.0000
  H   H154      1.0  0.73968  0.19883  0.57697  1.0000
  H   H155      1.0  0.77486  0.23960  0.52570  1.0000
  H   H156      1.0  0.77750  0.19826  0.52460  1.0000
  C   C205      1.0  0.15517  0.53386  0.42935  1.0000
  C   C206      1.0  0.16202  0.50373  0.43061  1.0000
  C   C207      1.0  0.16518  0.48833  0.34708  1.0000
  H   H157      1.0  0.15168  0.54427  0.48903  1.0000
  C   C208      1.0  0.16537  0.48873  0.51952  1.0000
  H   H158      1.0  0.16168  0.50311  0.57691  1.0000
  H   H159      1.0  0.19281  0.49152  0.52557  1.0000
  H   H160      1.0  0.14432  0.45940  0.52459  1.0000
  C   C209      1.0  0.48408  0.62490  0.42935  1.0000
  C   C210      1.0  0.51420  0.66188  0.43061  1.0000
  C   C211      1.0  0.52960  0.68044  0.34708  1.0000
  H   H161      1.0  0.47367  0.61101  0.48904  1.0000
  C   C212      1.0  0.52920  0.68023  0.51952  1.0000
  H   H162      1.0  0.51482  0.66216  0.57691  1.0000
  H   H163      1.0  0.52641  0.70489  0.52557  1.0000
  H   H164      1.0  0.55854  0.68852  0.52459  1.0000
  C   C213      1.0  0.39302  0.86276  0.42931  1.0000
  C   C214      1.0  0.35604  0.85591  0.43058  1.0000
  C   C215      1.0  0.33748  0.85274  0.34706  1.0000
  H   H165      1.0  0.40691  0.86624  0.48900  1.0000
  C   C216      1.0  0.33770  0.85257  0.51950  1.0000
  H   H166      1.0  0.35577  0.85626  0.57689  1.0000
  H   H167      1.0  0.31304  0.82513  0.52557  1.0000
  H   H168      1.0  0.32942  0.87362  0.52457  1.0000
  C   C217      1.0  0.55356  0.14882  0.34772  1.0000
  C   C218      1.0  0.50773  0.15844  0.43161  1.0000
  C   C219      1.0  0.53799  0.15180  0.42971  1.0000
  H   H169      1.0  0.54865  0.14859  0.48938  1.0000
  C   C220      1.0  0.49416  0.16166  0.52264  1.0000
  H   H170      1.0  0.47049  0.16612  0.52035  1.0000
  H   H171      1.0  0.51647  0.18494  0.55922  1.0000
  H   H172      1.0  0.48569  0.13623  0.56107  1.0000
  C   C221      1.0  0.60960  0.46433  0.34767  1.0000
  C   C222      1.0  0.66504  0.51018  0.43157  1.0000
  C   C223      1.0  0.62814  0.47992  0.42966  1.0000
  H   H173      1.0  0.61428  0.46926  0.48933  1.0000
  C   C224      1.0  0.68183  0.52376  0.52261  1.0000
  H   H174      1.0  0.70996  0.54744  0.52033  1.0000
  H   H175      1.0  0.68280  0.50145  0.55920  1.0000
  H   H176      1.0  0.66486  0.53222  0.56103  1.0000
  C   C225      1.0  0.86907  0.40831  0.34767  1.0000
  C   C226      1.0  0.85948  0.35287  0.43157  1.0000
  C   C227      1.0  0.86611  0.38977  0.42966  1.0000
  H   H177      1.0  0.86931  0.40363  0.48933  1.0000
  C   C228      1.0  0.85627  0.33608  0.52261  1.0000
  H   H178      1.0  0.85181  0.30795  0.52033  1.0000
  H   H179      1.0  0.83298  0.33510  0.55920  1.0000
  H   H180      1.0  0.88170  0.35306  0.56103  1.0000
  C   C229      1.0  0.97136  0.53084  0.34774  1.0000
  C   C230      1.0  0.03025  0.55986  0.43171  1.0000
  C   C231      1.0  0.99101  0.54042  0.42996  1.0000
  H   H181      1.0  0.97648  0.53219  0.48957  1.0000
  C   C232      1.0  0.04816  0.56783  0.52263  1.0000
  H   H182      1.0  0.07840  0.58338  0.52017  1.0000
  H   H183      1.0  0.03982  0.54176  0.55800  1.0000
  H   H184      1.0  0.03924  0.58412  0.56233  1.0000
  C   C233      1.0  0.48707  0.44410  0.34775  1.0000
  C   C234      1.0  0.45805  0.47397  0.43173  1.0000
  C   C235      1.0  0.47750  0.45418  0.42997  1.0000
  H   H185      1.0  0.48573  0.44788  0.48958  1.0000
  C   C236      1.0  0.45009  0.48393  0.52265  1.0000
  H   H186      1.0  0.43454  0.49862  0.52019  1.0000
  H   H187      1.0  0.47616  0.50166  0.55801  1.0000
  H   H188      1.0  0.43381  0.45872  0.56236  1.0000
  C   C237      1.0  0.57383  0.04655  0.34772  1.0000
  C   C238      1.0  0.54395  0.98766  0.43171  1.0000
  C   C239      1.0  0.56375  0.02690  0.42994  1.0000
  H   H189      1.0  0.57004  0.04143  0.48955  1.0000
  C   C240      1.0  0.53399  0.96975  0.52263  1.0000
  H   H190      1.0  0.51930  0.93951  0.52017  1.0000
  H   H191      1.0  0.51627  0.97809  0.55798  1.0000
  H   H192      1.0  0.55920  0.97868  0.56233  1.0000
