data_image0
_chemical_formula_structural       C5H6C6H6C3NCHNHNC2NCHNHNC2NCHNHNC12H6C6H3C9H3C12H6C6H3C9H3C3HC6HO2NC3HC6HO2NC3HC6HO2N
_chemical_formula_sum              "C102 H48 N12 O6"
_cell_length_a       52.6716
_cell_length_b       52.6772
_cell_length_c       14.4778
_cell_angle_alpha    90
_cell_angle_beta     90
_cell_angle_gamma    119.995

_space_group_name_H-M_alt    "P 1"
_space_group_IT_number       1

loop_
  _space_group_symop_operation_xyz
  'x, y, z'

loop_
  _atom_site_type_symbol
  _atom_site_label
  _atom_site_symmetry_multiplicity
  _atom_site_fract_x
  _atom_site_fract_y
  _atom_site_fract_z
  _atom_site_occupancy
  C   C1        1.0  0.41002  0.60085  0.38784  1.0000
  C   C2        1.0  0.44271  0.81834  0.33148  1.0000
  C   C3        1.0  0.45615  0.84905  0.34093  1.0000
  C   C4        1.0  0.22751  0.63396  0.33213  1.0000
  C   C5        1.0  0.19679  0.61672  0.34156  1.0000
  H   H1        1.0  0.41894  0.56616  0.39146  1.0000
  H   H2        1.0  0.45302  0.80981  0.29301  1.0000
  H   H3        1.0  0.47596  0.86193  0.30954  1.0000
  H   H4        1.0  0.23607  0.65290  0.29422  1.0000
  H   H5        1.0  0.18393  0.62378  0.31078  1.0000
  H   H6        1.0  0.38862  0.58787  0.40778  1.0000
  C   C6        1.0  0.42792  0.58811  0.37857  1.0000
  C   C7        1.0  0.64304  0.43441  0.33560  1.0000
  C   C8        1.0  0.61267  0.21833  0.32564  1.0000
  C   C9        1.0  0.59920  0.18764  0.33585  1.0000
  C   C10       1.0  0.82759  0.40373  0.32565  1.0000
  C   C11       1.0  0.85827  0.42096  0.33593  1.0000
  H   H7        1.0  0.63208  0.46732  0.31668  1.0000
  H   H8        1.0  0.60309  0.22672  0.28320  1.0000
  H   H9        1.0  0.58008  0.17465  0.30102  1.0000
  H   H10       1.0  0.81921  0.38577  0.28315  1.0000
  H   H11       1.0  0.87128  0.41488  0.30098  1.0000
  H   H12       1.0  0.66237  0.44562  0.29991  1.0000
  C   C12       1.0  0.62513  0.44714  0.34535  1.0000
  C   C13       1.0  0.56756  0.48122  0.37334  1.0000
  C   C14       1.0  0.56646  0.49732  0.29718  1.0000
  N   N1        1.0  0.55077  0.51136  0.30179  1.0000
  C   C15       1.0  0.50396  0.55604  0.29986  1.0000
  H   H13       1.0  0.57717  0.49837  0.23714  1.0000
  N   N2        1.0  0.51880  0.54114  0.30310  1.0000
  H   H14       1.0  0.50438  0.56644  0.23991  1.0000
  N   N3        1.0  0.58318  0.46758  0.36611  1.0000
  C   C16       1.0  0.56525  0.09591  0.36072  1.0000
  C   C17       1.0  0.55650  0.07909  0.27902  1.0000
  N   N4        1.0  0.54202  0.04933  0.28294  1.0000
  C   C18       1.0  0.49769  0.95764  0.27885  1.0000
  H   H15       1.0  0.56125  0.08905  0.21576  1.0000
  N   N5        1.0  0.51217  0.98740  0.28285  1.0000
  H   H16       1.0  0.49270  0.94769  0.21559  1.0000
  N   N6        1.0  0.57954  0.12518  0.35429  1.0000
  C   C19       1.0  0.94994  0.47872  0.36079  1.0000
  C   C20       1.0  0.96675  0.48677  0.27907  1.0000
  N   N7        1.0  0.99651  0.50208  0.28297  1.0000
  C   C21       1.0  0.08819  0.54951  0.27883  1.0000
  H   H17       1.0  0.95679  0.48150  0.21582  1.0000
  N   N8        1.0  0.05843  0.53420  0.28285  1.0000
  H   H18       1.0  0.09814  0.55443  0.21556  1.0000
  N   N9        1.0  0.92067  0.46371  0.35438  1.0000
  C   C22       1.0  0.41573  0.79966  0.37556  1.0000
  C   C23       1.0  0.42126  0.63087  0.36817  1.0000
  C   C24       1.0  0.24615  0.62547  0.37551  1.0000
  C   C25       1.0  0.45745  0.60496  0.34905  1.0000
  C   C26       1.0  0.46849  0.63507  0.33021  1.0000
  C   C27       1.0  0.45074  0.64790  0.33979  1.0000
  C   C28       1.0  0.44302  0.86189  0.39461  1.0000
  C   C29       1.0  0.41592  0.84290  0.43812  1.0000
  C   C30       1.0  0.40240  0.81226  0.42869  1.0000
  C   C31       1.0  0.18391  0.59061  0.39458  1.0000
  C   C32       1.0  0.20287  0.58232  0.43739  1.0000
  C   C33       1.0  0.23351  0.59940  0.42792  1.0000
  H   H19       1.0  0.48967  0.64804  0.30828  1.0000
  H   H20       1.0  0.45954  0.66971  0.32437  1.0000
  H   H21       1.0  0.38289  0.79935  0.46196  1.0000
  H   H22       1.0  0.40572  0.85120  0.47811  1.0000
  H   H23       1.0  0.19453  0.56371  0.47687  1.0000
  H   H24       1.0  0.24640  0.59268  0.46069  1.0000
  C   C34       1.0  0.32969  0.66955  0.36753  1.0000
  C   C35       1.0  0.34541  0.70055  0.36621  1.0000
  C   C36       1.0  0.37641  0.71613  0.36751  1.0000
  C   C37       1.0  0.39169  0.70042  0.37057  1.0000
  C   C38       1.0  0.37626  0.66942  0.37219  1.0000
  C   C39       1.0  0.34527  0.65413  0.37059  1.0000
  H   H25       1.0  0.41421  0.71165  0.37166  1.0000
  H   H26       1.0  0.33418  0.71184  0.36454  1.0000
  H   H27       1.0  0.33397  0.63161  0.37170  1.0000
  C   C40       1.0  0.27473  0.64148  0.36937  1.0000
  C   C41       1.0  0.30096  0.65521  0.36731  1.0000
  C   C42       1.0  0.40469  0.64288  0.37291  1.0000
  C   C43       1.0  0.39067  0.65509  0.37382  1.0000
  C   C44       1.0  0.39077  0.74486  0.36732  1.0000
  C   C45       1.0  0.40322  0.77109  0.36941  1.0000
  C   C46       1.0  0.15381  0.57386  0.40987  1.0000
  C   C47       1.0  0.45634  0.89200  0.40985  1.0000
  C   C48       1.0  0.47528  0.59279  0.33414  1.0000
  H   H28       1.0  0.49131  0.60228  0.28784  1.0000
  H   H29       1.0  0.45054  0.89870  0.46621  1.0000
  H   H30       1.0  0.14712  0.56135  0.46620  1.0000
  C   C49       1.0  0.63873  0.23716  0.37399  1.0000
  C   C50       1.0  0.63457  0.40675  0.37499  1.0000
  C   C51       1.0  0.80874  0.41091  0.37406  1.0000
  C   C52       1.0  0.59829  0.43264  0.39462  1.0000
  C   C53       1.0  0.59011  0.40488  0.43355  1.0000
  C   C54       1.0  0.60788  0.39209  0.42395  1.0000
  C   C55       1.0  0.61135  0.17494  0.39461  1.0000
  C   C56       1.0  0.63753  0.19411  0.44248  1.0000
  C   C57       1.0  0.65109  0.22473  0.43229  1.0000
  C   C58       1.0  0.87093  0.44580  0.39471  1.0000
  C   C59       1.0  0.85174  0.45276  0.44265  1.0000
  C   C60       1.0  0.82113  0.43567  0.43247  1.0000
  H   H31       1.0  0.57097  0.39356  0.47001  1.0000
  H   H32       1.0  0.60108  0.37201  0.45358  1.0000
  H   H33       1.0  0.66991  0.23775  0.46870  1.0000
  H   H34       1.0  0.64703  0.18595  0.48612  1.0000
  H   H35       1.0  0.85988  0.47042  0.48629  1.0000
  H   H36       1.0  0.80808  0.44145  0.46886  1.0000
  C   C61       1.0  0.72525  0.36707  0.36176  1.0000
  C   C62       1.0  0.70938  0.33608  0.36179  1.0000
  C   C63       1.0  0.67837  0.32067  0.36181  1.0000
  C   C64       1.0  0.66326  0.33656  0.36221  1.0000
  C   C65       1.0  0.67886  0.36757  0.36221  1.0000
  C   C66       1.0  0.70985  0.38268  0.36216  1.0000
  H   H37       1.0  0.64074  0.32546  0.36292  1.0000
  H   H38       1.0  0.72049  0.32466  0.36219  1.0000
  H   H39       1.0  0.72127  0.40520  0.36284  1.0000
  C   C67       1.0  0.78019  0.39496  0.36659  1.0000
  C   C68       1.0  0.75398  0.38129  0.36315  1.0000
  C   C69       1.0  0.65092  0.39458  0.36755  1.0000
  C   C70       1.0  0.66466  0.38210  0.36393  1.0000
  C   C71       1.0  0.66387  0.29193  0.36320  1.0000
  C   C72       1.0  0.65134  0.26572  0.36660  1.0000
  C   C73       1.0  0.90105  0.46263  0.41009  1.0000
  C   C74       1.0  0.59801  0.14482  0.41008  1.0000
  C   C75       1.0  0.58021  0.44468  0.40822  1.0000
  H   H40       1.0  0.56362  0.43457  0.45237  1.0000
  H   H41       1.0  0.60366  0.13817  0.46686  1.0000
  H   H42       1.0  0.90771  0.47500  0.46671  1.0000
  C   C76       1.0  0.53558  0.51125  0.37804  1.0000
  C   C77       1.0  0.53614  0.49583  0.45789  1.0000
  C   C78       1.0  0.55244  0.48113  0.45429  1.0000
  H   H43       1.0  0.55347  0.47034  0.51157  1.0000
  C   C79       1.0  0.51953  0.52622  0.37880  1.0000
  C   C80       1.0  0.48811  0.55680  0.37764  1.0000
  C   C81       1.0  0.48806  0.54115  0.45681  1.0000
  C   C82       1.0  0.50381  0.52585  0.45916  1.0000
  C   C83       1.0  0.50445  0.51041  0.53826  1.0000
  C   C84       1.0  0.52053  0.49560  0.53770  1.0000
  H   H44       1.0  0.47662  0.54125  0.51388  1.0000
  O   O1        1.0  0.48976  0.50957  0.61607  1.0000
  O   O2        1.0  0.52054  0.48106  0.61492  1.0000
  N   N10       1.0  0.47291  0.57088  0.38073  1.0000
  C   C85       1.0  0.53477  0.03387  0.36335  1.0000
  C   C86       1.0  0.54247  0.04948  0.44839  1.0000
  C   C87       1.0  0.55753  0.08048  0.44553  1.0000
  H   H45       1.0  0.56283  0.09203  0.50601  1.0000
  C   C88       1.0  0.51973  0.00284  0.36332  1.0000
  C   C89       1.0  0.48926  0.94081  0.36055  1.0000
  C   C90       1.0  0.49730  0.95622  0.44538  1.0000
  C   C91       1.0  0.51236  0.98722  0.44832  1.0000
  C   C92       1.0  0.52016  0.00291  0.53257  1.0000
  C   C93       1.0  0.53502  0.03377  0.53261  1.0000
  H   H46       1.0  0.49222  0.94464  0.50579  1.0000
  O   O3        1.0  0.51344  0.98872  0.61479  1.0000
  O   O4        1.0  0.54208  0.04795  0.61486  1.0000
  N   N11       1.0  0.47497  0.91154  0.35418  1.0000
  C   C94       1.0  0.01196  0.51033  0.36340  1.0000
  C   C95       1.0  0.99636  0.50247  0.44844  1.0000
  C   C96       1.0  0.96536  0.48649  0.44560  1.0000
  H   H47       1.0  0.95381  0.48026  0.50608  1.0000
  C   C97       1.0  0.04300  0.52637  0.36334  1.0000
  C   C98       1.0  0.10502  0.55797  0.36052  1.0000
  C   C99       1.0  0.08962  0.55066  0.44537  1.0000
  C   C100      1.0  0.05862  0.53469  0.44833  1.0000
  C   C101      1.0  0.04293  0.52683  0.53260  1.0000
  C   C102      1.0  0.01207  0.51079  0.53265  1.0000
  H   H48       1.0  0.10121  0.55720  0.50576  1.0000
  O   O5        1.0  0.05714  0.53438  0.61481  1.0000
  O   O6        1.0  0.99789  0.50371  0.61491  1.0000
  N   N12       1.0  0.13428  0.57296  0.35413  1.0000
