data_image0
_chemical_formula_structural       C8H5CN2HNC8H5CN2HNC8HC7HCH4C4H4C10H6CNCN2C10H6CNCN2C8H5CN2HNC8H5CN2HNC8HC7HCH4C4H4C10H6CNCN2C10H6CNCN2
_chemical_formula_sum              "C124 H68 N24"
_cell_length_a       30.0434
_cell_length_b       36.5909
_cell_length_c       15.0512
_cell_angle_alpha    90.0002
_cell_angle_beta     90
_cell_angle_gamma    90.973

_space_group_name_H-M_alt    "P 1"
_space_group_IT_number       1

loop_
  _space_group_symop_operation_xyz
  'x, y, z'

loop_
  _atom_site_type_symbol
  _atom_site_label
  _atom_site_symmetry_multiplicity
  _atom_site_fract_x
  _atom_site_fract_y
  _atom_site_fract_z
  _atom_site_occupancy
  C   C1        1.0  0.22166  0.17377  0.36448  1.0000
  C   C2        1.0  0.38497  0.20732  0.32813  1.0000
  C   C3        1.0  0.43160  0.20738  0.32058  1.0000
  C   C4        1.0  0.15141  0.33855  0.34222  1.0000
  C   C5        1.0  0.17511  0.30596  0.35137  1.0000
  C   C6        1.0  0.17474  0.17293  0.37454  1.0000
  C   C7        1.0  0.15041  0.13986  0.37060  1.0000
  C   C8        1.0  0.17216  0.10666  0.35541  1.0000
  H   H1        1.0  0.44773  0.18295  0.31999  1.0000
  H   H2        1.0  0.15714  0.28216  0.35900  1.0000
  H   H3        1.0  0.11747  0.33710  0.34411  1.0000
  H   H4        1.0  0.15733  0.19652  0.38192  1.0000
  H   H5        1.0  0.11639  0.14049  0.37417  1.0000
  C   C9        1.0  0.24549  0.20737  0.36004  1.0000
  N   N1        1.0  0.22425  0.23989  0.35998  1.0000
  N   N2        1.0  0.29042  0.20861  0.35038  1.0000
  H   H6        1.0  0.36872  0.18258  0.33220  1.0000
  N   N3        1.0  0.14566  0.07714  0.34096  1.0000
  C   C10       1.0  0.80458  0.32931  0.36442  1.0000
  C   C11       1.0  0.64127  0.29577  0.32812  1.0000
  C   C12       1.0  0.59464  0.29571  0.32054  1.0000
  C   C13       1.0  0.87481  0.16452  0.34257  1.0000
  C   C14       1.0  0.85111  0.19711  0.35170  1.0000
  C   C15       1.0  0.85150  0.33015  0.37442  1.0000
  C   C16       1.0  0.87583  0.36322  0.37048  1.0000
  C   C17       1.0  0.85409  0.39642  0.35526  1.0000
  H   H7        1.0  0.57851  0.32014  0.31995  1.0000
  H   H8        1.0  0.86908  0.22091  0.35935  1.0000
  H   H9        1.0  0.90875  0.16597  0.34448  1.0000
  H   H10       1.0  0.86891  0.30657  0.38195  1.0000
  H   H11       1.0  0.90985  0.36260  0.37406  1.0000
  C   C18       1.0  0.78075  0.29571  0.36006  1.0000
  N   N4        1.0  0.80198  0.26319  0.36009  1.0000
  N   N5        1.0  0.73581  0.29448  0.35037  1.0000
  H   H12       1.0  0.65752  0.32050  0.33221  1.0000
  N   N6        1.0  0.88058  0.42594  0.34080  1.0000
  C   C19       1.0  0.03636  0.99702  0.29755  1.0000
  C   C20       1.0  0.04964  0.45970  0.29659  1.0000
  C   C21       1.0  0.09548  0.45035  0.30349  1.0000
  C   C22       1.0  0.12730  0.47920  0.30661  1.0000
  C   C23       1.0  0.11588  0.01650  0.30620  1.0000
  C   C24       1.0  0.06985  0.02522  0.29750  1.0000
  C   C25       1.0  0.01585  0.43296  0.28307  1.0000
  C   C26       1.0  0.05532  0.06122  0.28244  1.0000
  H   H13       1.0  0.16019  0.47280  0.31389  1.0000
  C   C27       1.0  0.98986  0.00607  0.29754  1.0000
  C   C28       1.0  0.95637  0.47787  0.29740  1.0000
  C   C29       1.0  0.91034  0.48659  0.30602  1.0000
  C   C30       1.0  0.89892  0.02389  0.30658  1.0000
  C   C31       1.0  0.93074  0.05274  0.30357  1.0000
  C   C32       1.0  0.97659  0.04339  0.29666  1.0000
  C   C33       1.0  0.97090  0.44187  0.28238  1.0000
  H   H14       1.0  0.86604  0.03028  0.31386  1.0000
  C   C34       1.0  0.01038  0.07014  0.28327  1.0000
  H   H15       1.0  0.94940  0.42123  0.26599  1.0000
  H   H16       1.0  0.02295  0.40634  0.27036  1.0000
  H   H17       1.0  0.00328  0.09676  0.27061  1.0000
  H   H18       1.0  0.07683  0.08189  0.26630  1.0000
  C   C35       1.0  0.15165  0.04177  0.32015  1.0000
  C   C36       1.0  0.91585  0.08916  0.31354  1.0000
  C   C37       1.0  0.87458  0.46131  0.32003  1.0000
  C   C38       1.0  0.11038  0.41392  0.31333  1.0000
  H   H19       1.0  0.18374  0.03282  0.31947  1.0000
  H   H20       1.0  0.93846  0.10988  0.32051  1.0000
  H   H21       1.0  0.84248  0.47025  0.31933  1.0000
  H   H22       1.0  0.08777  0.39319  0.32022  1.0000
  C   C39       1.0  0.22226  0.30579  0.34751  1.0000
  C   C40       1.0  0.36121  0.24045  0.33175  1.0000
  C   C41       1.0  0.45593  0.24056  0.31630  1.0000
  C   C42       1.0  0.43263  0.27377  0.31836  1.0000
  C   C43       1.0  0.38600  0.27366  0.32583  1.0000
  C   C44       1.0  0.24467  0.33992  0.33662  1.0000
  C   C45       1.0  0.22098  0.37259  0.32821  1.0000
  C   C46       1.0  0.17408  0.37231  0.32969  1.0000
  C   C47       1.0  0.21900  0.10674  0.34933  1.0000
  C   C48       1.0  0.24337  0.13985  0.35466  1.0000
  H   H23       1.0  0.44947  0.29829  0.31625  1.0000
  H   H24       1.0  0.37054  0.29833  0.32845  1.0000
  H   H25       1.0  0.27866  0.34147  0.33342  1.0000
  H   H26       1.0  0.23833  0.39663  0.31916  1.0000
  H   H27       1.0  0.23555  0.08307  0.33747  1.0000
  H   H28       1.0  0.27714  0.13891  0.34651  1.0000
  C   C49       1.0  0.24582  0.27267  0.35144  1.0000
  N   N7        1.0  0.29083  0.27193  0.34258  1.0000
  C   C50       1.0  0.31411  0.24038  0.34205  1.0000
  N   N8        1.0  0.15380  0.40477  0.31798  1.0000
  N   N9        1.0  0.49980  0.23867  0.31516  1.0000
  C   C51       1.0  0.80396  0.19729  0.34777  1.0000
  C   C52       1.0  0.66502  0.26264  0.33177  1.0000
  C   C53       1.0  0.57031  0.26253  0.31623  1.0000
  C   C54       1.0  0.59360  0.22932  0.31835  1.0000
  C   C55       1.0  0.64023  0.22943  0.32584  1.0000
  C   C56       1.0  0.78155  0.16316  0.33690  1.0000
  C   C57       1.0  0.80524  0.13048  0.32848  1.0000
  C   C58       1.0  0.85214  0.13077  0.33001  1.0000
  C   C59       1.0  0.80724  0.39634  0.34923  1.0000
  C   C60       1.0  0.78287  0.36322  0.35453  1.0000
  H   H29       1.0  0.57675  0.20481  0.31626  1.0000
  H   H30       1.0  0.65569  0.20476  0.32851  1.0000
  H   H31       1.0  0.74756  0.16161  0.33359  1.0000
  H   H32       1.0  0.78789  0.10645  0.31937  1.0000
  H   H33       1.0  0.79069  0.42000  0.33724  1.0000
  H   H34       1.0  0.74911  0.36417  0.34638  1.0000
  C   C61       1.0  0.78040  0.23041  0.35162  1.0000
  N   N10       1.0  0.73540  0.23115  0.34272  1.0000
  C   C62       1.0  0.71212  0.26270  0.34210  1.0000
  N   N11       1.0  0.87242  0.09831  0.31821  1.0000
  N   N12       1.0  0.52643  0.26442  0.31515  1.0000
  C   C63       1.0  0.22166  0.67377  0.36448  1.0000
  C   C64       1.0  0.38497  0.70732  0.32813  1.0000
  C   C65       1.0  0.43160  0.70738  0.32058  1.0000
  C   C66       1.0  0.15141  0.83855  0.34222  1.0000
  C   C67       1.0  0.17511  0.80596  0.35137  1.0000
  C   C68       1.0  0.17474  0.67293  0.37454  1.0000
  C   C69       1.0  0.15041  0.63986  0.37060  1.0000
  C   C70       1.0  0.17216  0.60666  0.35541  1.0000
  H   H35       1.0  0.44773  0.68295  0.31999  1.0000
  H   H36       1.0  0.15714  0.78216  0.35900  1.0000
  H   H37       1.0  0.11747  0.83710  0.34411  1.0000
  H   H38       1.0  0.15733  0.69652  0.38192  1.0000
  H   H39       1.0  0.11639  0.64049  0.37417  1.0000
  C   C71       1.0  0.24549  0.70737  0.36004  1.0000
  N   N13       1.0  0.22425  0.73989  0.35998  1.0000
  N   N14       1.0  0.29042  0.70860  0.35038  1.0000
  H   H40       1.0  0.36872  0.68258  0.33220  1.0000
  N   N15       1.0  0.14566  0.57714  0.34096  1.0000
  C   C72       1.0  0.80458  0.82931  0.36442  1.0000
  C   C73       1.0  0.64127  0.79576  0.32812  1.0000
  C   C74       1.0  0.59464  0.79571  0.32054  1.0000
  C   C75       1.0  0.87481  0.66452  0.34257  1.0000
  C   C76       1.0  0.85111  0.69711  0.35170  1.0000
  C   C77       1.0  0.85150  0.83015  0.37442  1.0000
  C   C78       1.0  0.87583  0.86322  0.37048  1.0000
  C   C79       1.0  0.85408  0.89642  0.35526  1.0000
  H   H41       1.0  0.57851  0.82014  0.31995  1.0000
  H   H42       1.0  0.86908  0.72091  0.35935  1.0000
  H   H43       1.0  0.90875  0.66597  0.34448  1.0000
  H   H44       1.0  0.86891  0.80657  0.38195  1.0000
  H   H45       1.0  0.90985  0.86260  0.37406  1.0000
  C   C80       1.0  0.78075  0.79571  0.36006  1.0000
  N   N16       1.0  0.80198  0.76319  0.36009  1.0000
  N   N17       1.0  0.73581  0.79448  0.35037  1.0000
  H   H46       1.0  0.65752  0.82050  0.33221  1.0000
  N   N18       1.0  0.88058  0.92594  0.34080  1.0000
  C   C81       1.0  0.03636  0.49702  0.29755  1.0000
  C   C82       1.0  0.04964  0.95970  0.29659  1.0000
  C   C83       1.0  0.09548  0.95035  0.30349  1.0000
  C   C84       1.0  0.12730  0.97920  0.30661  1.0000
  C   C85       1.0  0.11588  0.51650  0.30620  1.0000
  C   C86       1.0  0.06985  0.52522  0.29750  1.0000
  C   C87       1.0  0.01585  0.93296  0.28307  1.0000
  C   C88       1.0  0.05532  0.56122  0.28244  1.0000
  H   H47       1.0  0.16019  0.97280  0.31389  1.0000
  C   C89       1.0  0.98986  0.50607  0.29754  1.0000
  C   C90       1.0  0.95637  0.97787  0.29740  1.0000
  C   C91       1.0  0.91034  0.98659  0.30602  1.0000
  C   C92       1.0  0.89892  0.52388  0.30658  1.0000
  C   C93       1.0  0.93074  0.55274  0.30357  1.0000
  C   C94       1.0  0.97659  0.54339  0.29666  1.0000
  C   C95       1.0  0.97090  0.94187  0.28238  1.0000
  H   H48       1.0  0.86604  0.53028  0.31386  1.0000
  C   C96       1.0  0.01038  0.57014  0.28327  1.0000
  H   H49       1.0  0.94940  0.92123  0.26599  1.0000
  H   H50       1.0  0.02295  0.90634  0.27036  1.0000
  H   H51       1.0  0.00328  0.59676  0.27061  1.0000
  H   H52       1.0  0.07683  0.58189  0.26630  1.0000
  C   C97       1.0  0.15165  0.54177  0.32015  1.0000
  C   C98       1.0  0.91584  0.58916  0.31354  1.0000
  C   C99       1.0  0.87459  0.96131  0.32003  1.0000
  C   C100      1.0  0.11038  0.91392  0.31333  1.0000
  H   H53       1.0  0.18374  0.53283  0.31947  1.0000
  H   H54       1.0  0.93845  0.60988  0.32051  1.0000
  H   H55       1.0  0.84248  0.97025  0.31933  1.0000
  H   H56       1.0  0.08777  0.89319  0.32022  1.0000
  C   C101      1.0  0.22226  0.80579  0.34751  1.0000
  C   C102      1.0  0.36121  0.74045  0.33175  1.0000
  C   C103      1.0  0.45593  0.74056  0.31630  1.0000
  C   C104      1.0  0.43263  0.77378  0.31836  1.0000
  C   C105      1.0  0.38600  0.77366  0.32583  1.0000
  C   C106      1.0  0.24467  0.83992  0.33662  1.0000
  C   C107      1.0  0.22098  0.87259  0.32821  1.0000
  C   C108      1.0  0.17408  0.87231  0.32969  1.0000
  C   C109      1.0  0.21900  0.60674  0.34933  1.0000
  C   C110      1.0  0.24337  0.63985  0.35466  1.0000
  H   H57       1.0  0.44947  0.79829  0.31625  1.0000
  H   H58       1.0  0.37054  0.79833  0.32845  1.0000
  H   H59       1.0  0.27866  0.84147  0.33342  1.0000
  H   H60       1.0  0.23833  0.89663  0.31916  1.0000
  H   H61       1.0  0.23555  0.58307  0.33747  1.0000
  H   H62       1.0  0.27714  0.63891  0.34651  1.0000
  C   C111      1.0  0.24582  0.77267  0.35144  1.0000
  N   N19       1.0  0.29083  0.77193  0.34258  1.0000
  C   C112      1.0  0.31411  0.74038  0.34205  1.0000
  N   N20       1.0  0.15380  0.90477  0.31798  1.0000
  N   N21       1.0  0.49980  0.73867  0.31516  1.0000
  C   C113      1.0  0.80396  0.69729  0.34777  1.0000
  C   C114      1.0  0.66502  0.76264  0.33177  1.0000
  C   C115      1.0  0.57031  0.76253  0.31623  1.0000
  C   C116      1.0  0.59360  0.72932  0.31835  1.0000
  C   C117      1.0  0.64023  0.72943  0.32584  1.0000
  C   C118      1.0  0.78155  0.66316  0.33690  1.0000
  C   C119      1.0  0.80524  0.63048  0.32848  1.0000
  C   C120      1.0  0.85214  0.63077  0.33001  1.0000
  C   C121      1.0  0.80724  0.89634  0.34923  1.0000
  C   C122      1.0  0.78287  0.86322  0.35453  1.0000
  H   H63       1.0  0.57675  0.70481  0.31626  1.0000
  H   H64       1.0  0.65569  0.70476  0.32851  1.0000
  H   H65       1.0  0.74756  0.66161  0.33359  1.0000
  H   H66       1.0  0.78789  0.60645  0.31937  1.0000
  H   H67       1.0  0.79069  0.92000  0.33724  1.0000
  H   H68       1.0  0.74911  0.86417  0.34638  1.0000
  C   C123      1.0  0.78040  0.73041  0.35162  1.0000
  N   N22       1.0  0.73540  0.73115  0.34272  1.0000
  C   C124      1.0  0.71213  0.76270  0.34210  1.0000
  N   N23       1.0  0.87242  0.59831  0.31821  1.0000
  N   N24       1.0  0.52643  0.76442  0.31515  1.0000
