data_image0
_chemical_formula_structural       NC3H2C2HNC3H2C2HC4N2CHC2HC2HN2CHC2HC2HN3HC6H2C2HC2HC2HN3HC6H2C2HC2HC2HN6C6H3C6H3C4H2C4H2C4H2N6C6H3C6H3C4H2C4H2C4H2
_chemical_formula_sum              "N24 C96 H48"
_cell_length_a       29.1989
_cell_length_b       29.1989
_cell_length_c       14.7493
_cell_angle_alpha    90
_cell_angle_beta     90
_cell_angle_gamma    120

_space_group_name_H-M_alt    "P 1"
_space_group_IT_number       1

loop_
  _space_group_symop_operation_xyz
  'x, y, z'

loop_
  _atom_site_type_symbol
  _atom_site_label
  _atom_site_symmetry_multiplicity
  _atom_site_fract_x
  _atom_site_fract_y
  _atom_site_fract_z
  _atom_site_occupancy
  N   N1        1.0  0.03869  0.27147  0.27517  1.0000
  C   C1        1.0  0.12331  0.31378  0.34817  1.0000
  C   C2        1.0  0.15158  0.36967  0.34873  1.0000
  C   C3        1.0  0.15157  0.28615  0.34870  1.0000
  H   H1        1.0  0.13130  0.24561  0.35029  1.0000
  H   H2        1.0  0.13131  0.38995  0.35029  1.0000
  C   C4        1.0  0.04057  0.27241  0.43613  1.0000
  C   C5        1.0  0.06782  0.28604  0.35267  1.0000
  H   H3        1.0  0.06069  0.28247  0.49632  1.0000
  N   N2        1.0  0.03869  0.77147  0.27517  1.0000
  C   C6        1.0  0.12331  0.81378  0.34817  1.0000
  C   C7        1.0  0.15158  0.86968  0.34873  1.0000
  C   C8        1.0  0.15157  0.78615  0.34870  1.0000
  H   H4        1.0  0.13130  0.74562  0.35029  1.0000
  H   H5        1.0  0.13131  0.88995  0.35029  1.0000
  C   C9        1.0  0.04057  0.77241  0.43613  1.0000
  C   C10       1.0  0.06782  0.78604  0.35267  1.0000
  H   H6        1.0  0.06070  0.78248  0.49632  1.0000
  C   C11       1.0  0.20747  0.39794  0.34820  1.0000
  C   C12       1.0  0.20746  0.31378  0.34818  1.0000
  C   C13       1.0  0.20747  0.89794  0.34820  1.0000
  C   C14       1.0  0.20747  0.81378  0.34818  1.0000
  N   N3        1.0  0.24977  0.27146  0.27517  1.0000
  N   N4        1.0  0.24978  0.48256  0.27518  1.0000
  C   C15       1.0  0.23509  0.36967  0.34874  1.0000
  H   H7        1.0  0.24987  0.12706  0.35029  1.0000
  C   C16       1.0  0.24884  0.27241  0.43613  1.0000
  C   C17       1.0  0.23520  0.28602  0.35267  1.0000
  H   H8        1.0  0.23877  0.28247  0.49633  1.0000
  C   C18       1.0  0.24884  0.48068  0.43614  1.0000
  C   C19       1.0  0.23522  0.45343  0.35268  1.0000
  H   H9        1.0  0.23879  0.46056  0.49633  1.0000
  N   N5        1.0  0.24977  0.77146  0.27517  1.0000
  N   N6        1.0  0.24978  0.98256  0.27518  1.0000
  C   C20       1.0  0.23509  0.86967  0.34874  1.0000
  H   H10       1.0  0.24987  0.62706  0.35029  1.0000
  C   C21       1.0  0.24884  0.77241  0.43613  1.0000
  C   C22       1.0  0.23520  0.78602  0.35267  1.0000
  H   H11       1.0  0.23878  0.78247  0.49633  1.0000
  C   C23       1.0  0.24885  0.98068  0.43614  1.0000
  C   C24       1.0  0.23522  0.95343  0.35268  1.0000
  H   H12       1.0  0.23879  0.96056  0.49633  1.0000
  N   N7        1.0  0.27571  0.24553  0.27516  1.0000
  N   N8        1.0  0.27571  0.03443  0.27517  1.0000
  N   N9        1.0  0.48681  0.24553  0.27516  1.0000
  H   H13       1.0  0.27563  0.38993  0.35030  1.0000
  C   C25       1.0  0.40219  0.20321  0.34816  1.0000
  C   C26       1.0  0.37392  0.14732  0.34872  1.0000
  C   C27       1.0  0.31803  0.11906  0.34815  1.0000
  C   C28       1.0  0.29040  0.14733  0.34869  1.0000
  C   C29       1.0  0.31803  0.20322  0.34816  1.0000
  C   C30       1.0  0.37392  0.23084  0.34870  1.0000
  H   H14       1.0  0.39419  0.27138  0.35029  1.0000
  H   H15       1.0  0.39418  0.12705  0.35029  1.0000
  C   C31       1.0  0.29029  0.23097  0.35267  1.0000
  C   C32       1.0  0.27666  0.24459  0.43612  1.0000
  H   H16       1.0  0.28673  0.23453  0.49632  1.0000
  C   C33       1.0  0.29028  0.06357  0.35266  1.0000
  C   C34       1.0  0.27666  0.03633  0.43613  1.0000
  H   H17       1.0  0.28673  0.05646  0.49631  1.0000
  C   C35       1.0  0.45768  0.23096  0.35266  1.0000
  C   C36       1.0  0.48492  0.24458  0.43612  1.0000
  H   H18       1.0  0.46479  0.23452  0.49631  1.0000
  N   N10       1.0  0.27571  0.74553  0.27516  1.0000
  N   N11       1.0  0.27571  0.53443  0.27517  1.0000
  N   N12       1.0  0.48681  0.74553  0.27516  1.0000
  H   H19       1.0  0.27563  0.88994  0.35030  1.0000
  C   C37       1.0  0.40219  0.70322  0.34816  1.0000
  C   C38       1.0  0.37392  0.64732  0.34872  1.0000
  C   C39       1.0  0.31803  0.61906  0.34815  1.0000
  C   C40       1.0  0.29040  0.64733  0.34869  1.0000
  C   C41       1.0  0.31803  0.70322  0.34816  1.0000
  C   C42       1.0  0.37392  0.73084  0.34870  1.0000
  H   H20       1.0  0.39419  0.77138  0.35029  1.0000
  H   H21       1.0  0.39418  0.62705  0.35029  1.0000
  C   C43       1.0  0.29029  0.73097  0.35267  1.0000
  C   C44       1.0  0.27667  0.74459  0.43612  1.0000
  H   H22       1.0  0.28674  0.73453  0.49632  1.0000
  C   C45       1.0  0.29028  0.56357  0.35266  1.0000
  C   C46       1.0  0.27666  0.53633  0.43613  1.0000
  H   H23       1.0  0.28673  0.55646  0.49631  1.0000
  C   C47       1.0  0.45768  0.73096  0.35266  1.0000
  C   C48       1.0  0.48492  0.74458  0.43612  1.0000
  H   H24       1.0  0.46480  0.73452  0.49631  1.0000
  N   N13       1.0  0.74977  0.27146  0.27517  1.0000
  N   N14       1.0  0.77571  0.24553  0.27516  1.0000
  N   N15       1.0  0.74978  0.48256  0.27518  1.0000
  N   N16       1.0  0.77570  0.03443  0.27517  1.0000
  N   N17       1.0  0.53869  0.27147  0.27517  1.0000
  N   N18       1.0  0.98681  0.24553  0.27516  1.0000
  C   C49       1.0  0.62331  0.31378  0.34817  1.0000
  C   C50       1.0  0.65158  0.36967  0.34873  1.0000
  C   C51       1.0  0.70747  0.39794  0.34820  1.0000
  C   C52       1.0  0.73510  0.36967  0.34874  1.0000
  C   C53       1.0  0.70747  0.31378  0.34818  1.0000
  C   C54       1.0  0.65157  0.28615  0.34870  1.0000
  H   H25       1.0  0.77563  0.38993  0.35030  1.0000
  H   H26       1.0  0.63130  0.24561  0.35029  1.0000
  H   H27       1.0  0.63131  0.38995  0.35029  1.0000
  C   C55       1.0  0.90219  0.20321  0.34816  1.0000
  C   C56       1.0  0.87392  0.14732  0.34872  1.0000
  C   C57       1.0  0.81802  0.11906  0.34815  1.0000
  C   C58       1.0  0.79040  0.14733  0.34869  1.0000
  C   C59       1.0  0.81803  0.20322  0.34816  1.0000
  C   C60       1.0  0.87392  0.23084  0.34870  1.0000
  H   H28       1.0  0.74987  0.12706  0.35029  1.0000
  H   H29       1.0  0.89419  0.27138  0.35029  1.0000
  H   H30       1.0  0.89418  0.12705  0.35029  1.0000
  C   C61       1.0  0.79029  0.23097  0.35267  1.0000
  C   C62       1.0  0.77667  0.24459  0.43612  1.0000
  C   C63       1.0  0.74884  0.27241  0.43613  1.0000
  C   C64       1.0  0.73520  0.28602  0.35267  1.0000
  H   H31       1.0  0.73878  0.28247  0.49633  1.0000
  H   H32       1.0  0.78673  0.23453  0.49632  1.0000
  C   C65       1.0  0.79027  0.06357  0.35266  1.0000
  C   C66       1.0  0.77666  0.03633  0.43613  1.0000
  C   C67       1.0  0.74884  0.48068  0.43614  1.0000
  C   C68       1.0  0.73522  0.45343  0.35268  1.0000
  H   H33       1.0  0.73879  0.46056  0.49633  1.0000
  H   H34       1.0  0.78673  0.05646  0.49631  1.0000
  C   C69       1.0  0.95768  0.23096  0.35266  1.0000
  C   C70       1.0  0.98492  0.24458  0.43612  1.0000
  C   C71       1.0  0.54057  0.27241  0.43613  1.0000
  C   C72       1.0  0.56782  0.28604  0.35267  1.0000
  H   H35       1.0  0.56070  0.28247  0.49632  1.0000
  H   H36       1.0  0.96479  0.23452  0.49631  1.0000
  N   N19       1.0  0.74977  0.77146  0.27517  1.0000
  N   N20       1.0  0.77571  0.74553  0.27516  1.0000
  N   N21       1.0  0.74978  0.98256  0.27518  1.0000
  N   N22       1.0  0.77571  0.53443  0.27517  1.0000
  N   N23       1.0  0.53869  0.77147  0.27517  1.0000
  N   N24       1.0  0.98682  0.74553  0.27516  1.0000
  C   C73       1.0  0.62331  0.81378  0.34817  1.0000
  C   C74       1.0  0.65158  0.86968  0.34873  1.0000
  C   C75       1.0  0.70747  0.89794  0.34820  1.0000
  C   C76       1.0  0.73510  0.86967  0.34874  1.0000
  C   C77       1.0  0.70747  0.81378  0.34818  1.0000
  C   C78       1.0  0.65157  0.78615  0.34870  1.0000
  H   H37       1.0  0.77563  0.88994  0.35030  1.0000
  H   H38       1.0  0.63130  0.74562  0.35029  1.0000
  H   H39       1.0  0.63131  0.88995  0.35029  1.0000
  C   C79       1.0  0.90219  0.70322  0.34816  1.0000
  C   C80       1.0  0.87392  0.64732  0.34872  1.0000
  C   C81       1.0  0.81803  0.61906  0.34815  1.0000
  C   C82       1.0  0.79040  0.64733  0.34869  1.0000
  C   C83       1.0  0.81803  0.70322  0.34816  1.0000
  C   C84       1.0  0.87392  0.73084  0.34870  1.0000
  H   H40       1.0  0.74987  0.62706  0.35029  1.0000
  H   H41       1.0  0.89419  0.77138  0.35029  1.0000
  H   H42       1.0  0.89419  0.62705  0.35029  1.0000
  C   C85       1.0  0.79029  0.73097  0.35267  1.0000
  C   C86       1.0  0.77667  0.74459  0.43612  1.0000
  C   C87       1.0  0.74884  0.77241  0.43613  1.0000
  C   C88       1.0  0.73520  0.78602  0.35267  1.0000
  H   H43       1.0  0.73878  0.78247  0.49633  1.0000
  H   H44       1.0  0.78673  0.73453  0.49632  1.0000
  C   C89       1.0  0.79028  0.56357  0.35266  1.0000
  C   C90       1.0  0.77666  0.53633  0.43613  1.0000
  C   C91       1.0  0.74885  0.98068  0.43614  1.0000
  C   C92       1.0  0.73522  0.95343  0.35268  1.0000
  H   H45       1.0  0.73879  0.96056  0.49633  1.0000
  H   H46       1.0  0.78673  0.55646  0.49631  1.0000
  C   C93       1.0  0.95768  0.73096  0.35266  1.0000
  C   C94       1.0  0.98492  0.74458  0.43612  1.0000
  C   C95       1.0  0.54057  0.77241  0.43613  1.0000
  C   C96       1.0  0.56782  0.78604  0.35267  1.0000
  H   H47       1.0  0.56070  0.78248  0.49632  1.0000
  H   H48       1.0  0.96479  0.73452  0.49631  1.0000
