data_image0
_chemical_formula_structural       C3H3NCNCHC3H3NCNCH5CHC3H3CHC3H4CNCNCH2CNCNCHC4HCH3C3HCH3C3HCH2C3HCH3C3HCH3CNCNCNCNCNCNCNCNC3HCH3C3HCH3C3HCH3C3HCH3C3HCH2C3HCH3C3HCH3C3HCH2C3HCH3C3HCH3CNCNCNCNCNCNCNCNC3HCH3C3HCH3C3HCH3C3HCH3C3HCH2C3HCH3C3H4C3HCHC3HCH3C3HCH3C3HCH3CNCNCNCNCNCNCNCNCNCNCNCNC3HCH3C3HCH3C3HCH3C3HCH3C3HCH3C3HCH3C3HCH3C3HCH3C3HCHC3HCH3C3HCH3C3HCH3CNCNCNCNCNCNCNCNCNCNCNCNC3HCH3C3HCH3C3HCH3C3HCH3C3HCH3C3HCH3
_chemical_formula_sum              "C240 H192 N48"
_cell_length_a       45.0971
_cell_length_b       45.1019
_cell_length_c       14.8391
_cell_angle_alpha    90
_cell_angle_beta     90
_cell_angle_gamma    120.01

_space_group_name_H-M_alt    "P 1"
_space_group_IT_number       1

loop_
  _space_group_symop_operation_xyz
  'x, y, z'

loop_
  _atom_site_type_symbol
  _atom_site_label
  _atom_site_symmetry_multiplicity
  _atom_site_fract_x
  _atom_site_fract_y
  _atom_site_fract_z
  _atom_site_occupancy
  C   C1        1.0  0.07905  0.04023  0.33862  1.0000
  C   C2        1.0  0.09931  0.06872  0.28138  1.0000
  C   C3        1.0  0.08504  0.08047  0.20794  1.0000
  H   H1        1.0  0.05806  0.06290  0.19444  1.0000
  H   H2        1.0  0.09864  0.08297  0.14495  1.0000
  H   H3        1.0  0.08825  0.10540  0.22550  1.0000
  N   N1        1.0  0.02435  0.03900  0.33999  1.0000
  C   C4        1.0  0.04235  0.02209  0.33945  1.0000
  N   N2        1.0  0.02309  0.48716  0.33414  1.0000
  C   C5        1.0  0.09640  0.03006  0.39979  1.0000
  H   H4        1.0  0.08216  0.00997  0.44245  1.0000
  C   C6        1.0  0.07765  0.54058  0.33397  1.0000
  C   C7        1.0  0.09809  0.56944  0.27802  1.0000
  C   C8        1.0  0.08408  0.58146  0.20463  1.0000
  H   H5        1.0  0.05710  0.56404  0.19068  1.0000
  H   H6        1.0  0.09781  0.58406  0.14181  1.0000
  H   H7        1.0  0.08736  0.60640  0.22254  1.0000
  N   N3        1.0  0.02248  0.53852  0.33422  1.0000
  C   C9        1.0  0.04093  0.52207  0.33348  1.0000
  N   N4        1.0  0.02412  0.98717  0.33949  1.0000
  C   C10       1.0  0.09483  0.53033  0.39551  1.0000
  H   H8        1.0  0.08048  0.51003  0.43745  1.0000
  H   H9        1.0  0.01402  0.45256  0.19058  1.0000
  H   H10       1.0  0.02636  0.42251  0.22281  1.0000
  H   H11       1.0  0.01463  0.95319  0.19428  1.0000
  H   H12       1.0  0.02639  0.92256  0.22486  1.0000
  C   C11       1.0  0.13549  0.08627  0.28973  1.0000
  H   H13       1.0  0.14971  0.10635  0.24700  1.0000
  C   C12       1.0  0.15286  0.07621  0.35112  1.0000
  C   C13       1.0  0.13262  0.04759  0.40799  1.0000
  C   C14       1.0  0.14699  0.03571  0.48080  1.0000
  H   H14       1.0  0.17416  0.05289  0.49286  1.0000
  H   H15       1.0  0.14314  0.01049  0.46354  1.0000
  H   H16       1.0  0.13390  0.03373  0.54436  1.0000
  C   C15       1.0  0.13425  0.58710  0.28758  1.0000
  H   H17       1.0  0.14861  0.60738  0.24555  1.0000
  C   C16       1.0  0.15144  0.57687  0.34913  1.0000
  C   C17       1.0  0.13100  0.54800  0.40506  1.0000
  C   C18       1.0  0.14506  0.53593  0.47821  1.0000
  H   H18       1.0  0.17211  0.55326  0.49163  1.0000
  H   H19       1.0  0.14158  0.51091  0.46038  1.0000
  H   H20       1.0  0.13151  0.53351  0.54123  1.0000
  H   H21       1.0  0.24063  0.07784  0.17342  1.0000
  C   C19       1.0  0.24213  0.14756  0.34643  1.0000
  N   N5        1.0  0.20729  0.12966  0.34917  1.0000
  C   C20       1.0  0.18956  0.09460  0.34994  1.0000
  N   N6        1.0  0.20780  0.07780  0.34679  1.0000
  C   C21       1.0  0.24266  0.09530  0.34409  1.0000
  H   H22       1.0  0.24270  0.16083  0.51999  1.0000
  H   H23       1.0  0.23958  0.57794  0.17402  1.0000
  C   C22       1.0  0.24099  0.64796  0.34630  1.0000
  N   N7        1.0  0.20612  0.63026  0.34811  1.0000
  C   C23       1.0  0.18816  0.59518  0.34878  1.0000
  N   N8        1.0  0.20622  0.57819  0.34638  1.0000
  C   C24       1.0  0.24109  0.59548  0.34455  1.0000
  H   H24       1.0  0.24210  0.66118  0.51996  1.0000
  C   C25       1.0  0.93845  0.01270  0.19091  1.0000
  C   C26       1.0  0.47143  0.04080  0.33675  1.0000
  C   C27       1.0  0.44614  0.03532  0.27105  1.0000
  C   C28       1.0  0.42821  0.05362  0.27788  1.0000
  H   H25       1.0  0.41038  0.04977  0.22951  1.0000
  C   C29       1.0  0.43845  0.01270  0.19091  1.0000
  H   H26       1.0  0.45545  0.00220  0.18388  1.0000
  H   H27       1.0  0.44111  0.02718  0.12951  1.0000
  H   H28       1.0  0.41219  0.99141  0.19518  1.0000
  C   C30       1.0  0.47005  0.43199  0.33397  1.0000
  C   C31       1.0  0.47859  0.41159  0.27821  1.0000
  C   C32       1.0  0.46022  0.37544  0.28798  1.0000
  H   H29       1.0  0.46620  0.36111  0.24605  1.0000
  C   C33       1.0  0.50461  0.42563  0.20477  1.0000
  H   H30       1.0  0.51402  0.45256  0.19058  1.0000
  H   H31       1.0  0.49352  0.41180  0.14206  1.0000
  H   H32       1.0  0.52636  0.42251  0.22281  1.0000
  C   C34       1.0  0.26395  0.08049  0.34292  1.0000
  C   C35       1.0  0.27905  0.07807  0.26107  1.0000
  C   C36       1.0  0.31029  0.07775  0.26437  1.0000
  H   H33       1.0  0.32268  0.07944  0.20495  1.0000
  C   C37       1.0  0.26531  0.07891  0.17045  1.0000
  H   H34       1.0  0.26177  0.05695  0.13095  1.0000
  H   H35       1.0  0.28336  0.10236  0.13527  1.0000
  C   C38       1.0  0.43005  0.18444  0.34186  1.0000
  C   C39       1.0  0.43204  0.20236  0.26106  1.0000
  C   C40       1.0  0.43189  0.23365  0.26626  1.0000
  H   H36       1.0  0.43006  0.24466  0.20755  1.0000
  C   C41       1.0  0.43125  0.18840  0.16958  1.0000
  H   H37       1.0  0.43278  0.16503  0.17107  1.0000
  H   H38       1.0  0.45297  0.20728  0.13019  1.0000
  H   H39       1.0  0.40760  0.18279  0.13519  1.0000
  C   C42       1.0  0.32566  0.24755  0.34449  1.0000
  C   C43       1.0  0.30818  0.23198  0.26298  1.0000
  C   C44       1.0  0.27698  0.20041  0.26705  1.0000
  H   H40       1.0  0.26631  0.18769  0.20797  1.0000
  C   C45       1.0  0.32252  0.24559  0.17208  1.0000
  H   H41       1.0  0.34577  0.27058  0.17460  1.0000
  H   H42       1.0  0.30372  0.24843  0.13229  1.0000
  H   H43       1.0  0.32845  0.22781  0.13749  1.0000
  C   C46       1.0  0.48820  0.46871  0.33341  1.0000
  N   N9        1.0  0.47111  0.48654  0.33419  1.0000
  C   C47       1.0  0.48947  0.02224  0.33867  1.0000
  N   N10       1.0  0.25912  0.12993  0.34449  1.0000
  C   C48       1.0  0.36337  0.09545  0.34217  1.0000
  N   N11       1.0  0.38136  0.07857  0.34383  1.0000
  C   C49       1.0  0.41642  0.09611  0.34478  1.0000
  N   N12       1.0  0.43319  0.13116  0.34343  1.0000
  C   C50       1.0  0.41555  0.14839  0.34141  1.0000
  N   N13       1.0  0.38094  0.13008  0.34149  1.0000
  C   C51       1.0  0.41431  0.26864  0.34670  1.0000
  N   N14       1.0  0.43153  0.30352  0.34842  1.0000
  C   C52       1.0  0.41444  0.32151  0.34929  1.0000
  N   N15       1.0  0.37940  0.30349  0.34694  1.0000
  C   C53       1.0  0.36178  0.26864  0.34513  1.0000
  N   N16       1.0  0.37969  0.25194  0.34548  1.0000
  C   C54       1.0  0.43499  0.07807  0.34632  1.0000
  C   C55       1.0  0.46063  0.08391  0.41130  1.0000
  C   C56       1.0  0.47845  0.06547  0.40473  1.0000
  H   H44       1.0  0.49632  0.06934  0.45299  1.0000
  C   C57       1.0  0.46892  0.10717  0.49024  1.0000
  H   H45       1.0  0.45215  0.11793  0.49703  1.0000
  H   H46       1.0  0.49523  0.12829  0.48453  1.0000
  H   H47       1.0  0.46654  0.09315  0.55236  1.0000
  C   C58       1.0  0.43282  0.35822  0.34959  1.0000
  C   C59       1.0  0.42430  0.37862  0.40541  1.0000
  C   C60       1.0  0.44267  0.41477  0.39562  1.0000
  H   H48       1.0  0.43666  0.42910  0.43748  1.0000
  C   C61       1.0  0.39821  0.36452  0.47865  1.0000
  H   H49       1.0  0.38870  0.33754  0.49243  1.0000
  H   H50       1.0  0.37653  0.36776  0.46067  1.0000
  H   H51       1.0  0.40929  0.37822  0.54153  1.0000
  C   C62       1.0  0.32726  0.08019  0.34658  1.0000
  C   C63       1.0  0.31118  0.08072  0.42859  1.0000
  C   C64       1.0  0.27977  0.08067  0.42532  1.0000
  H   H52       1.0  0.27005  0.08431  0.48414  1.0000
  C   C65       1.0  0.32736  0.08478  0.51865  1.0000
  H   H53       1.0  0.35058  0.08299  0.51615  1.0000
  H   H54       1.0  0.30946  0.06469  0.56393  1.0000
  H   H55       1.0  0.33390  0.10964  0.54716  1.0000
  C   C66       1.0  0.42930  0.24753  0.34941  1.0000
  C   C67       1.0  0.42890  0.23044  0.43038  1.0000
  C   C68       1.0  0.42956  0.19942  0.42517  1.0000
  H   H56       1.0  0.42610  0.18572  0.48328  1.0000
  C   C69       1.0  0.42452  0.24172  0.52130  1.0000
  H   H57       1.0  0.42574  0.26648  0.52033  1.0000
  H   H58       1.0  0.44480  0.24406  0.56608  1.0000
  H   H59       1.0  0.39980  0.22284  0.54941  1.0000
  C   C70       1.0  0.26284  0.18369  0.34975  1.0000
  C   C71       1.0  0.27929  0.20025  0.43145  1.0000
  C   C72       1.0  0.31030  0.23196  0.42737  1.0000
  H   H60       1.0  0.32371  0.24208  0.48594  1.0000
  C   C73       1.0  0.26743  0.18440  0.52196  1.0000
  H   H61       1.0  0.26475  0.20223  0.56636  1.0000
  H   H62       1.0  0.28615  0.17857  0.55116  1.0000
  C   C74       1.0  0.46908  0.53968  0.33407  1.0000
  C   C75       1.0  0.44022  0.53131  0.27813  1.0000
  C   C76       1.0  0.42264  0.54988  0.28763  1.0000
  H   H63       1.0  0.40237  0.54399  0.24562  1.0000
  C   C77       1.0  0.42812  0.50524  0.20480  1.0000
  H   H64       1.0  0.44547  0.49561  0.19091  1.0000
  H   H65       1.0  0.42557  0.51638  0.14195  1.0000
  H   H66       1.0  0.40314  0.48364  0.22273  1.0000
  C   C78       1.0  0.47059  0.93240  0.33745  1.0000
  C   C79       1.0  0.47879  0.91199  0.28069  1.0000
  C   C80       1.0  0.46004  0.87580  0.28932  1.0000
  H   H67       1.0  0.46585  0.86150  0.24680  1.0000
  C   C81       1.0  0.50487  0.92613  0.20740  1.0000
  H   H68       1.0  0.51463  0.95319  0.19428  1.0000
  H   H69       1.0  0.49368  0.91270  0.14428  1.0000
  H   H70       1.0  0.52639  0.92256  0.22486  1.0000
  C   C82       1.0  0.26223  0.58052  0.34422  1.0000
  C   C83       1.0  0.27780  0.57840  0.26289  1.0000
  C   C84       1.0  0.30914  0.57832  0.26725  1.0000
  H   H71       1.0  0.32183  0.58018  0.20824  1.0000
  C   C85       1.0  0.26442  0.57933  0.17182  1.0000
  H   H72       1.0  0.26133  0.55758  0.13211  1.0000
  H   H73       1.0  0.28246  0.60296  0.13734  1.0000
  C   C86       1.0  0.42922  0.68450  0.34437  1.0000
  C   C87       1.0  0.43132  0.70220  0.26308  1.0000
  C   C88       1.0  0.43139  0.73362  0.26735  1.0000
  H   H74       1.0  0.42954  0.74444  0.20831  1.0000
  C   C89       1.0  0.43039  0.68788  0.17203  1.0000
  H   H75       1.0  0.43178  0.66443  0.17426  1.0000
  H   H76       1.0  0.45215  0.70654  0.13232  1.0000
  H   H77       1.0  0.40677  0.68228  0.13752  1.0000
  C   C90       1.0  0.32528  0.74767  0.34425  1.0000
  C   C91       1.0  0.30770  0.73214  0.26280  1.0000
  C   C92       1.0  0.27630  0.70074  0.26697  1.0000
  H   H78       1.0  0.26551  0.68808  0.20790  1.0000
  C   C93       1.0  0.32206  0.74560  0.17184  1.0000
  H   H79       1.0  0.34548  0.77046  0.17421  1.0000
  H   H80       1.0  0.30340  0.74867  0.13209  1.0000
  H   H81       1.0  0.32771  0.72762  0.13730  1.0000
  C   C94       1.0  0.48919  0.96912  0.33810  1.0000
  N   N17       1.0  0.47249  0.98733  0.33823  1.0000
  C   C95       1.0  0.48756  0.52144  0.33353  1.0000
  N   N18       1.0  0.25775  0.63010  0.34506  1.0000
  C   C96       1.0  0.36186  0.59578  0.34672  1.0000
  N   N19       1.0  0.37958  0.57863  0.34833  1.0000
  C   C97       1.0  0.41465  0.59577  0.34888  1.0000
  N   N20       1.0  0.43163  0.63083  0.34652  1.0000
  C   C98       1.0  0.41432  0.64840  0.34488  1.0000
  N   N21       1.0  0.37970  0.63040  0.34548  1.0000
  C   C99       1.0  0.41400  0.76897  0.34674  1.0000
  N   N22       1.0  0.43118  0.80384  0.34899  1.0000
  C   C100      1.0  0.41407  0.82181  0.34978  1.0000
  N   N23       1.0  0.37901  0.80375  0.34713  1.0000
  C   C101      1.0  0.36141  0.76888  0.34484  1.0000
  N   N24       1.0  0.37938  0.75223  0.34519  1.0000
  C   C102      1.0  0.43294  0.57734  0.34912  1.0000
  C   C103      1.0  0.46178  0.58569  0.40511  1.0000
  C   C104      1.0  0.47937  0.56712  0.39560  1.0000
  H   H82       1.0  0.49966  0.57303  0.43757  1.0000
  C   C105      1.0  0.47387  0.61181  0.47828  1.0000
  H   H83       1.0  0.45662  0.62161  0.49160  1.0000
  H   H84       1.0  0.49895  0.63330  0.46057  1.0000
  H   H85       1.0  0.47621  0.60064  0.54133  1.0000
  C   C106      1.0  0.43256  0.85854  0.35069  1.0000
  C   C107      1.0  0.42430  0.87894  0.40730  1.0000
  C   C108      1.0  0.44307  0.91515  0.39872  1.0000
  H   H86       1.0  0.43728  0.92947  0.44120  1.0000
  C   C109      1.0  0.39810  0.86477  0.48026  1.0000
  H   H87       1.0  0.38808  0.83763  0.49274  1.0000
  H   H88       1.0  0.37675  0.86863  0.46288  1.0000
  H   H89       1.0  0.40927  0.87797  0.54365  1.0000
  C   C110      1.0  0.32575  0.58069  0.35003  1.0000
  C   C111      1.0  0.30925  0.58095  0.43149  1.0000
  C   C112      1.0  0.27772  0.58062  0.42715  1.0000
  H   H90       1.0  0.26767  0.58408  0.48562  1.0000
  C   C113      1.0  0.32503  0.58492  0.52209  1.0000
  H   H91       1.0  0.34845  0.58347  0.52036  1.0000
  H   H92       1.0  0.30706  0.56459  0.56666  1.0000
  H   H93       1.0  0.33113  0.60961  0.55092  1.0000
  C   C114      1.0  0.42902  0.74789  0.35007  1.0000
  C   C115      1.0  0.42873  0.73112  0.43155  1.0000
  C   C116      1.0  0.42906  0.69992  0.42724  1.0000
  H   H94       1.0  0.42560  0.68643  0.48574  1.0000
  C   C117      1.0  0.42473  0.74292  0.52213  1.0000
  H   H95       1.0  0.42617  0.76778  0.52039  1.0000
  H   H96       1.0  0.44504  0.74527  0.56676  1.0000
  H   H97       1.0  0.40002  0.72432  0.55089  1.0000
  C   C118      1.0  0.26206  0.68408  0.34967  1.0000
  C   C119      1.0  0.27876  0.70049  0.43129  1.0000
  C   C120      1.0  0.30992  0.73208  0.42713  1.0000
  H   H98       1.0  0.32340  0.74211  0.48565  1.0000
  C   C121      1.0  0.26695  0.68462  0.52180  1.0000
  H   H99       1.0  0.26454  0.70252  0.56651  1.0000
  H   H100      1.0  0.28557  0.67854  0.55054  1.0000
  C   C122      1.0  0.57905  0.04023  0.33862  1.0000
  C   C123      1.0  0.59930  0.06872  0.28138  1.0000
  C   C124      1.0  0.63549  0.08627  0.28973  1.0000
  H   H101      1.0  0.64971  0.10635  0.24700  1.0000
  C   C125      1.0  0.58504  0.08047  0.20794  1.0000
  H   H102      1.0  0.55806  0.06290  0.19444  1.0000
  H   H103      1.0  0.59864  0.08297  0.14495  1.0000
  H   H104      1.0  0.58825  0.10540  0.22550  1.0000
  C   C126      1.0  0.97144  0.04080  0.33675  1.0000
  C   C127      1.0  0.94614  0.03532  0.27105  1.0000
  C   C128      1.0  0.92821  0.05362  0.27788  1.0000
  H   H105      1.0  0.91038  0.04977  0.22951  1.0000
  H   H106      1.0  0.95545  0.00220  0.18388  1.0000
  H   H107      1.0  0.94111  0.02718  0.12951  1.0000
  H   H108      1.0  0.91219  0.99141  0.19518  1.0000
  C   C129      1.0  0.97005  0.43199  0.33397  1.0000
  C   C130      1.0  0.97859  0.41159  0.27821  1.0000
  C   C131      1.0  0.96022  0.37544  0.28798  1.0000
  H   H109      1.0  0.96620  0.36111  0.24605  1.0000
  C   C132      1.0  0.00461  0.42563  0.20477  1.0000
  H   H110      1.0  0.99352  0.41180  0.14206  1.0000
  C   C133      1.0  0.76395  0.08049  0.34292  1.0000
  C   C134      1.0  0.77905  0.07807  0.26107  1.0000
  C   C135      1.0  0.81029  0.07775  0.26437  1.0000
  H   H111      1.0  0.82268  0.07944  0.20495  1.0000
  C   C136      1.0  0.76531  0.07891  0.17045  1.0000
  H   H112      1.0  0.74063  0.07784  0.17342  1.0000
  H   H113      1.0  0.76177  0.05695  0.13095  1.0000
  H   H114      1.0  0.78336  0.10236  0.13527  1.0000
  C   C137      1.0  0.93005  0.18444  0.34186  1.0000
  C   C138      1.0  0.93205  0.20236  0.26106  1.0000
  C   C139      1.0  0.93189  0.23365  0.26626  1.0000
  H   H115      1.0  0.93006  0.24466  0.20755  1.0000
  C   C140      1.0  0.93125  0.18840  0.16958  1.0000
  H   H116      1.0  0.93278  0.16503  0.17107  1.0000
  H   H117      1.0  0.95297  0.20728  0.13019  1.0000
  H   H118      1.0  0.90760  0.18279  0.13519  1.0000
  C   C141      1.0  0.82566  0.24755  0.34449  1.0000
  C   C142      1.0  0.80819  0.23198  0.26298  1.0000
  C   C143      1.0  0.77698  0.20041  0.26705  1.0000
  H   H119      1.0  0.76631  0.18769  0.20797  1.0000
  C   C144      1.0  0.82252  0.24559  0.17208  1.0000
  H   H120      1.0  0.84577  0.27058  0.17460  1.0000
  H   H121      1.0  0.80372  0.24843  0.13229  1.0000
  H   H122      1.0  0.82846  0.22781  0.13749  1.0000
  C   C145      1.0  0.98820  0.46871  0.33341  1.0000
  N   N25       1.0  0.97111  0.48654  0.33419  1.0000
  C   C146      1.0  0.98948  0.02224  0.33867  1.0000
  N   N26       1.0  0.52435  0.03900  0.33999  1.0000
  C   C147      1.0  0.54235  0.02209  0.33945  1.0000
  N   N27       1.0  0.52309  0.48716  0.33414  1.0000
  C   C148      1.0  0.74213  0.14756  0.34643  1.0000
  N   N28       1.0  0.70729  0.12966  0.34917  1.0000
  C   C149      1.0  0.68956  0.09460  0.34994  1.0000
  N   N29       1.0  0.70780  0.07780  0.34679  1.0000
  C   C150      1.0  0.74266  0.09530  0.34409  1.0000
  N   N30       1.0  0.75912  0.12993  0.34449  1.0000
  C   C151      1.0  0.86337  0.09545  0.34217  1.0000
  N   N31       1.0  0.88136  0.07857  0.34383  1.0000
  C   C152      1.0  0.91642  0.09611  0.34478  1.0000
  N   N32       1.0  0.93319  0.13116  0.34343  1.0000
  C   C153      1.0  0.91555  0.14839  0.34141  1.0000
  N   N33       1.0  0.88094  0.13008  0.34149  1.0000
  C   C154      1.0  0.91431  0.26864  0.34670  1.0000
  N   N34       1.0  0.93153  0.30352  0.34842  1.0000
  C   C155      1.0  0.91445  0.32151  0.34929  1.0000
  N   N35       1.0  0.87940  0.30349  0.34694  1.0000
  C   C156      1.0  0.86177  0.26864  0.34513  1.0000
  N   N36       1.0  0.87969  0.25194  0.34548  1.0000
  C   C157      1.0  0.65286  0.07621  0.35112  1.0000
  C   C158      1.0  0.63262  0.04759  0.40799  1.0000
  C   C159      1.0  0.59640  0.03006  0.39979  1.0000
  H   H123      1.0  0.58216  0.00997  0.44245  1.0000
  C   C160      1.0  0.64699  0.03571  0.48080  1.0000
  H   H124      1.0  0.67416  0.05289  0.49286  1.0000
  H   H125      1.0  0.64314  0.01049  0.46354  1.0000
  H   H126      1.0  0.63390  0.03373  0.54436  1.0000
  C   C161      1.0  0.93499  0.07807  0.34632  1.0000
  C   C162      1.0  0.96063  0.08391  0.41130  1.0000
  C   C163      1.0  0.97845  0.06547  0.40473  1.0000
  H   H127      1.0  0.99632  0.06934  0.45299  1.0000
  C   C164      1.0  0.96892  0.10717  0.49024  1.0000
  H   H128      1.0  0.95215  0.11793  0.49703  1.0000
  H   H129      1.0  0.99523  0.12829  0.48453  1.0000
  H   H130      1.0  0.96654  0.09315  0.55236  1.0000
  C   C165      1.0  0.93282  0.35822  0.34959  1.0000
  C   C166      1.0  0.92430  0.37862  0.40541  1.0000
  C   C167      1.0  0.94267  0.41477  0.39562  1.0000
  H   H131      1.0  0.93666  0.42910  0.43748  1.0000
  C   C168      1.0  0.89821  0.36452  0.47865  1.0000
  H   H132      1.0  0.88870  0.33754  0.49243  1.0000
  H   H133      1.0  0.87653  0.36776  0.46067  1.0000
  H   H134      1.0  0.90929  0.37822  0.54153  1.0000
  C   C169      1.0  0.82726  0.08019  0.34658  1.0000
  C   C170      1.0  0.81118  0.08072  0.42859  1.0000
  C   C171      1.0  0.77978  0.08067  0.42532  1.0000
  H   H135      1.0  0.77005  0.08431  0.48414  1.0000
  C   C172      1.0  0.82736  0.08478  0.51865  1.0000
  H   H136      1.0  0.85058  0.08299  0.51615  1.0000
  H   H137      1.0  0.80947  0.06469  0.56393  1.0000
  H   H138      1.0  0.83390  0.10964  0.54716  1.0000
  C   C173      1.0  0.92930  0.24753  0.34941  1.0000
  C   C174      1.0  0.92890  0.23044  0.43038  1.0000
  C   C175      1.0  0.92956  0.19942  0.42517  1.0000
  H   H139      1.0  0.92610  0.18572  0.48328  1.0000
  C   C176      1.0  0.92453  0.24172  0.52130  1.0000
  H   H140      1.0  0.92574  0.26648  0.52033  1.0000
  H   H141      1.0  0.94480  0.24406  0.56608  1.0000
  H   H142      1.0  0.89980  0.22284  0.54941  1.0000
  C   C177      1.0  0.76284  0.18369  0.34975  1.0000
  C   C178      1.0  0.77929  0.20025  0.43145  1.0000
  C   C179      1.0  0.81030  0.23196  0.42737  1.0000
  H   H143      1.0  0.82371  0.24208  0.48594  1.0000
  C   C180      1.0  0.76743  0.18440  0.52196  1.0000
  H   H144      1.0  0.74270  0.16083  0.51999  1.0000
  H   H145      1.0  0.76475  0.20223  0.56636  1.0000
  H   H146      1.0  0.78616  0.17857  0.55116  1.0000
  C   C181      1.0  0.57765  0.54058  0.33397  1.0000
  C   C182      1.0  0.59809  0.56944  0.27802  1.0000
  C   C183      1.0  0.63425  0.58710  0.28758  1.0000
  H   H147      1.0  0.64861  0.60738  0.24555  1.0000
  C   C184      1.0  0.58408  0.58146  0.20463  1.0000
  H   H148      1.0  0.55710  0.56404  0.19068  1.0000
  H   H149      1.0  0.59781  0.58406  0.14181  1.0000
  H   H150      1.0  0.58736  0.60640  0.22254  1.0000
  C   C185      1.0  0.96908  0.53968  0.33407  1.0000
  C   C186      1.0  0.94022  0.53131  0.27813  1.0000
  C   C187      1.0  0.92264  0.54988  0.28763  1.0000
  H   H151      1.0  0.90237  0.54399  0.24562  1.0000
  C   C188      1.0  0.92812  0.50524  0.20480  1.0000
  H   H152      1.0  0.94547  0.49561  0.19091  1.0000
  H   H153      1.0  0.92557  0.51638  0.14195  1.0000
  H   H154      1.0  0.90314  0.48364  0.22273  1.0000
  C   C189      1.0  0.97059  0.93240  0.33745  1.0000
  C   C190      1.0  0.97879  0.91199  0.28069  1.0000
  C   C191      1.0  0.96004  0.87580  0.28932  1.0000
  H   H155      1.0  0.96585  0.86150  0.24680  1.0000
  C   C192      1.0  0.00487  0.92613  0.20740  1.0000
  H   H156      1.0  0.99368  0.91270  0.14428  1.0000
  C   C193      1.0  0.76224  0.58052  0.34422  1.0000
  C   C194      1.0  0.77779  0.57840  0.26289  1.0000
  C   C195      1.0  0.80914  0.57832  0.26725  1.0000
  H   H157      1.0  0.82183  0.58018  0.20824  1.0000
  C   C196      1.0  0.76442  0.57933  0.17182  1.0000
  H   H158      1.0  0.73958  0.57794  0.17402  1.0000
  H   H159      1.0  0.76133  0.55758  0.13211  1.0000
  H   H160      1.0  0.78246  0.60296  0.13734  1.0000
  C   C197      1.0  0.92922  0.68450  0.34437  1.0000
  C   C198      1.0  0.93132  0.70220  0.26308  1.0000
  C   C199      1.0  0.93139  0.73362  0.26735  1.0000
  H   H161      1.0  0.92954  0.74444  0.20831  1.0000
  C   C200      1.0  0.93039  0.68788  0.17203  1.0000
  H   H162      1.0  0.93178  0.66443  0.17426  1.0000
  H   H163      1.0  0.95215  0.70654  0.13232  1.0000
  H   H164      1.0  0.90677  0.68228  0.13752  1.0000
  C   C201      1.0  0.82528  0.74767  0.34425  1.0000
  C   C202      1.0  0.80770  0.73214  0.26280  1.0000
  C   C203      1.0  0.77630  0.70074  0.26697  1.0000
  H   H165      1.0  0.76551  0.68808  0.20790  1.0000
  C   C204      1.0  0.82206  0.74560  0.17184  1.0000
  H   H166      1.0  0.84548  0.77046  0.17421  1.0000
  H   H167      1.0  0.80340  0.74867  0.13209  1.0000
  H   H168      1.0  0.82771  0.72762  0.13730  1.0000
  C   C205      1.0  0.98919  0.96912  0.33810  1.0000
  N   N37       1.0  0.97249  0.98733  0.33823  1.0000
  C   C206      1.0  0.98756  0.52144  0.33353  1.0000
  N   N38       1.0  0.52249  0.53852  0.33422  1.0000
  C   C207      1.0  0.54093  0.52207  0.33348  1.0000
  N   N39       1.0  0.52412  0.98717  0.33949  1.0000
  C   C208      1.0  0.74099  0.64796  0.34630  1.0000
  N   N40       1.0  0.70612  0.63026  0.34811  1.0000
  C   C209      1.0  0.68816  0.59518  0.34878  1.0000
  N   N41       1.0  0.70622  0.57819  0.34638  1.0000
  C   C210      1.0  0.74109  0.59548  0.34455  1.0000
  N   N42       1.0  0.75775  0.63010  0.34506  1.0000
  C   C211      1.0  0.86186  0.59578  0.34672  1.0000
  N   N43       1.0  0.87958  0.57863  0.34833  1.0000
  C   C212      1.0  0.91465  0.59577  0.34888  1.0000
  N   N44       1.0  0.93163  0.63083  0.34652  1.0000
  C   C213      1.0  0.91432  0.64840  0.34488  1.0000
  N   N45       1.0  0.87970  0.63040  0.34548  1.0000
  C   C214      1.0  0.91400  0.76897  0.34674  1.0000
  N   N46       1.0  0.93118  0.80384  0.34899  1.0000
  C   C215      1.0  0.91407  0.82181  0.34978  1.0000
  N   N47       1.0  0.87901  0.80375  0.34713  1.0000
  C   C216      1.0  0.86141  0.76888  0.34484  1.0000
  N   N48       1.0  0.87938  0.75223  0.34519  1.0000
  C   C217      1.0  0.65144  0.57687  0.34913  1.0000
  C   C218      1.0  0.63100  0.54800  0.40506  1.0000
  C   C219      1.0  0.59483  0.53033  0.39551  1.0000
  H   H169      1.0  0.58048  0.51003  0.43745  1.0000
  C   C220      1.0  0.64506  0.53593  0.47821  1.0000
  H   H170      1.0  0.67211  0.55326  0.49163  1.0000
  H   H171      1.0  0.64158  0.51091  0.46038  1.0000
  H   H172      1.0  0.63151  0.53351  0.54123  1.0000
  C   C221      1.0  0.93294  0.57734  0.34912  1.0000
  C   C222      1.0  0.96178  0.58569  0.40511  1.0000
  C   C223      1.0  0.97937  0.56712  0.39560  1.0000
  H   H173      1.0  0.99966  0.57303  0.43757  1.0000
  C   C224      1.0  0.97387  0.61181  0.47828  1.0000
  H   H174      1.0  0.95662  0.62161  0.49160  1.0000
  H   H175      1.0  0.99895  0.63330  0.46057  1.0000
  H   H176      1.0  0.97621  0.60064  0.54133  1.0000
  C   C225      1.0  0.93256  0.85854  0.35069  1.0000
  C   C226      1.0  0.92430  0.87894  0.40730  1.0000
  C   C227      1.0  0.94307  0.91515  0.39872  1.0000
  H   H177      1.0  0.93728  0.92947  0.44120  1.0000
  C   C228      1.0  0.89810  0.86477  0.48026  1.0000
  H   H178      1.0  0.88808  0.83763  0.49274  1.0000
  H   H179      1.0  0.87675  0.86863  0.46288  1.0000
  H   H180      1.0  0.90927  0.87797  0.54365  1.0000
  C   C229      1.0  0.82575  0.58069  0.35003  1.0000
  C   C230      1.0  0.80925  0.58095  0.43149  1.0000
  C   C231      1.0  0.77772  0.58062  0.42715  1.0000
  H   H181      1.0  0.76767  0.58408  0.48562  1.0000
  C   C232      1.0  0.82503  0.58492  0.52209  1.0000
  H   H182      1.0  0.84845  0.58347  0.52036  1.0000
  H   H183      1.0  0.80705  0.56459  0.56666  1.0000
  H   H184      1.0  0.83113  0.60961  0.55092  1.0000
  C   C233      1.0  0.92902  0.74789  0.35007  1.0000
  C   C234      1.0  0.92873  0.73112  0.43155  1.0000
  C   C235      1.0  0.92906  0.69992  0.42724  1.0000
  H   H185      1.0  0.92560  0.68643  0.48574  1.0000
  C   C236      1.0  0.92473  0.74292  0.52213  1.0000
  H   H186      1.0  0.92617  0.76778  0.52039  1.0000
  H   H187      1.0  0.94504  0.74527  0.56676  1.0000
  H   H188      1.0  0.90002  0.72432  0.55089  1.0000
  C   C237      1.0  0.76206  0.68408  0.34967  1.0000
  C   C238      1.0  0.77876  0.70049  0.43129  1.0000
  C   C239      1.0  0.80992  0.73208  0.42713  1.0000
  H   H189      1.0  0.82340  0.74211  0.48565  1.0000
  C   C240      1.0  0.76695  0.68462  0.52180  1.0000
  H   H190      1.0  0.74211  0.66118  0.51996  1.0000
  H   H191      1.0  0.76454  0.70252  0.56651  1.0000
  H   H192      1.0  0.78557  0.67854  0.55054  1.0000
