data_image0
_chemical_formula_structural       C8H3NO2C8H3NO2C8H3NO2C2H2C2H2C2H2C2H2C2H2C2H2CNCNCNC18H12CNCNCNC18H12CNCNCNC18H12CNCNCNC18H12C2H2C2H2C2H2C2H2C2H2C2H2C8H3NO2C8H3NO2C8H3NO2
_chemical_formula_sum              "C156 H90 N18 O12"
_cell_length_a       56.8262
_cell_length_b       56.8262
_cell_length_c       14.9603
_cell_angle_alpha    90
_cell_angle_beta     90
_cell_angle_gamma    120

_space_group_name_H-M_alt    "P 1"
_space_group_IT_number       1

loop_
  _space_group_symop_operation_xyz
  'x, y, z'

loop_
  _atom_site_type_symbol
  _atom_site_label
  _atom_site_symmetry_multiplicity
  _atom_site_fract_x
  _atom_site_fract_y
  _atom_site_fract_z
  _atom_site_occupancy
  C   C1        1.0  0.14002  0.07038  0.33070  1.0000
  C   C2        1.0  0.15481  0.07196  0.25219  1.0000
  C   C3        1.0  0.18361  0.08664  0.25423  1.0000
  C   C4        1.0  0.19821  0.09962  0.33281  1.0000
  C   C5        1.0  0.22726  0.11417  0.33378  1.0000
  C   C6        1.0  0.24231  0.13301  0.26554  1.0000
  C   C7        1.0  0.27092  0.14742  0.26667  1.0000
  C   C8        1.0  0.28559  0.14326  0.33534  1.0000
  H   H1        1.0  0.23253  0.13676  0.21487  1.0000
  H   H2        1.0  0.28097  0.16072  0.21569  1.0000
  H   H3        1.0  0.19399  0.08742  0.19734  1.0000
  N   N1        1.0  0.14059  0.05948  0.17242  1.0000
  O   O1        1.0  0.14606  0.04183  0.14525  1.0000
  O   O2        1.0  0.14604  0.07663  0.11136  1.0000
  C   C9        1.0  0.92343  0.07031  0.33071  1.0000
  C   C10       1.0  0.92185  0.08351  0.25220  1.0000
  C   C11       1.0  0.90717  0.09764  0.25424  1.0000
  C   C12       1.0  0.89420  0.09925  0.33282  1.0000
  C   C13       1.0  0.87964  0.11375  0.33379  1.0000
  C   C14       1.0  0.86081  0.10996  0.26555  1.0000
  C   C15       1.0  0.84640  0.12416  0.26665  1.0000
  C   C16       1.0  0.85055  0.14299  0.33534  1.0000
  H   H4        1.0  0.85704  0.09643  0.21489  1.0000
  H   H5        1.0  0.83309  0.12091  0.21570  1.0000
  H   H6        1.0  0.90639  0.10723  0.19734  1.0000
  N   N2        1.0  0.93433  0.08178  0.17243  1.0000
  O   O3        1.0  0.95198  0.10489  0.14524  1.0000
  O   O4        1.0  0.91717  0.07006  0.11138  1.0000
  C   C17       1.0  0.92351  0.85380  0.33070  1.0000
  C   C18       1.0  0.91031  0.83901  0.25218  1.0000
  C   C19       1.0  0.89617  0.81021  0.25422  1.0000
  C   C20       1.0  0.89455  0.79561  0.33279  1.0000
  C   C21       1.0  0.88006  0.76656  0.33375  1.0000
  C   C22       1.0  0.88384  0.75151  0.26550  1.0000
  C   C23       1.0  0.86965  0.72290  0.26663  1.0000
  C   C24       1.0  0.85082  0.70823  0.33531  1.0000
  H   H7        1.0  0.89739  0.76129  0.21486  1.0000
  H   H8        1.0  0.87290  0.71285  0.21566  1.0000
  H   H9        1.0  0.88659  0.79983  0.19732  1.0000
  N   N3        1.0  0.91204  0.85323  0.17241  1.0000
  O   O5        1.0  0.88893  0.84776  0.14523  1.0000
  O   O6        1.0  0.92375  0.84779  0.11136  1.0000
  C   C25       1.0  0.59288  0.13623  0.26762  1.0000
  C   C26       1.0  0.61958  0.14101  0.27563  1.0000
  H   H10       1.0  0.58361  0.13062  0.20651  1.0000
  H   H11       1.0  0.62905  0.13939  0.21966  1.0000
  C   C27       1.0  0.53156  0.16188  0.24744  1.0000
  C   C28       1.0  0.55274  0.15596  0.25270  1.0000
  H   H12       1.0  0.53143  0.17334  0.19482  1.0000
  H   H13       1.0  0.56751  0.16393  0.20460  1.0000
  C   C29       1.0  0.85761  0.45732  0.26763  1.0000
  C   C30       1.0  0.85284  0.47925  0.27567  1.0000
  H   H14       1.0  0.86324  0.45368  0.20652  1.0000
  H   H15       1.0  0.85447  0.49035  0.21969  1.0000
  C   C31       1.0  0.83198  0.37036  0.24746  1.0000
  C   C32       1.0  0.83789  0.39746  0.25278  1.0000
  H   H16       1.0  0.82047  0.35877  0.19493  1.0000
  H   H17       1.0  0.82991  0.40425  0.20470  1.0000
  C   C33       1.0  0.53651  0.40093  0.26760  1.0000
  C   C34       1.0  0.51460  0.37422  0.27561  1.0000
  H   H18       1.0  0.54016  0.41020  0.20650  1.0000
  H   H19       1.0  0.50346  0.36476  0.21972  1.0000
  C   C35       1.0  0.62350  0.46220  0.24756  1.0000
  C   C36       1.0  0.59638  0.44105  0.25277  1.0000
  H   H20       1.0  0.63507  0.46233  0.19490  1.0000
  H   H21       1.0  0.58958  0.42626  0.20472  1.0000
  C   C37       1.0  0.98160  0.97009  0.33603  1.0000
  N   N4        1.0  0.00925  0.98453  0.33597  1.0000
  C   C38       1.0  0.02373  0.01218  0.33602  1.0000
  N   N5        1.0  0.00928  0.02539  0.33597  1.0000
  C   C39       1.0  0.98164  0.01222  0.33604  1.0000
  N   N6        1.0  0.96844  0.98457  0.33598  1.0000
  C   C40       1.0  0.05277  0.02669  0.33542  1.0000
  C   C41       1.0  0.06768  0.01324  0.31892  1.0000
  C   C42       1.0  0.09629  0.02756  0.31713  1.0000
  C   C43       1.0  0.11107  0.05587  0.33266  1.0000
  C   C44       1.0  0.09642  0.06940  0.35036  1.0000
  C   C45       1.0  0.06780  0.05509  0.35101  1.0000
  C   C46       1.0  0.96707  0.94105  0.33544  1.0000
  C   C47       1.0  0.98044  0.92602  0.35102  1.0000
  C   C48       1.0  0.96613  0.89740  0.35038  1.0000
  C   C49       1.0  0.93795  0.88275  0.33266  1.0000
  C   C50       1.0  0.92442  0.89753  0.31713  1.0000
  C   C51       1.0  0.93871  0.92614  0.31893  1.0000
  C   C52       1.0  0.96713  0.02675  0.33545  1.0000
  C   C53       1.0  0.93873  0.01338  0.35105  1.0000
  C   C54       1.0  0.92442  0.02769  0.35040  1.0000
  C   C55       1.0  0.93795  0.05587  0.33268  1.0000
  C   C56       1.0  0.96625  0.06939  0.31713  1.0000
  C   C57       1.0  0.98057  0.05511  0.31896  1.0000
  H   H22       1.0  0.97658  0.88732  0.36155  1.0000
  H   H23       1.0  0.00086  0.93574  0.36379  1.0000
  H   H24       1.0  0.90395  0.88755  0.30503  1.0000
  H   H25       1.0  0.92805  0.93594  0.30693  1.0000
  H   H26       1.0  0.92803  0.99296  0.36379  1.0000
  H   H27       1.0  0.90389  0.01724  0.36157  1.0000
  H   H28       1.0  0.00103  0.06577  0.30693  1.0000
  H   H29       1.0  0.97674  0.08987  0.30504  1.0000
  H   H30       1.0  0.05808  0.06579  0.36378  1.0000
  H   H31       1.0  0.10650  0.08992  0.36155  1.0000
  H   H32       1.0  0.10627  0.01708  0.30503  1.0000
  H   H33       1.0  0.05788  0.99279  0.30693  1.0000
  C   C58       1.0  0.44434  0.20207  0.33479  1.0000
  N   N7        1.0  0.41669  0.18857  0.33506  1.0000
  C   C59       1.0  0.40214  0.20178  0.33848  1.0000
  N   N8        1.0  0.41636  0.22953  0.34213  1.0000
  C   C60       1.0  0.44399  0.24404  0.34301  1.0000
  N   N9        1.0  0.45692  0.22952  0.33902  1.0000
  C   C61       1.0  0.37310  0.18717  0.33782  1.0000
  C   C62       1.0  0.35815  0.15866  0.35092  1.0000
  C   C63       1.0  0.32953  0.14431  0.35078  1.0000
  C   C64       1.0  0.31463  0.15781  0.33622  1.0000
  C   C65       1.0  0.32947  0.18624  0.32252  1.0000
  C   C66       1.0  0.35808  0.20063  0.32391  1.0000
  C   C67       1.0  0.46054  0.18936  0.32955  1.0000
  C   C68       1.0  0.44949  0.16099  0.34030  1.0000
  C   C69       1.0  0.46618  0.14913  0.33650  1.0000
  C   C70       1.0  0.49439  0.16519  0.31974  1.0000
  C   C71       1.0  0.50543  0.19349  0.30923  1.0000
  C   C72       1.0  0.48890  0.20527  0.31403  1.0000
  C   C73       1.0  0.45975  0.27299  0.34762  1.0000
  C   C74       1.0  0.48828  0.28601  0.36042  1.0000
  C   C75       1.0  0.50437  0.31438  0.36395  1.0000
  C   C76       1.0  0.49258  0.33100  0.35531  1.0000
  C   C77       1.0  0.46424  0.31840  0.34129  1.0000
  C   C78       1.0  0.44804  0.28980  0.33850  1.0000
  H   H34       1.0  0.45750  0.12858  0.34482  1.0000
  H   H35       1.0  0.42918  0.14867  0.35227  1.0000
  H   H36       1.0  0.52585  0.20603  0.29946  1.0000
  H   H37       1.0  0.49815  0.22586  0.30566  1.0000
  H   H38       1.0  0.49797  0.27503  0.36737  1.0000
  H   H39       1.0  0.52493  0.32281  0.37193  1.0000
  H   H40       1.0  0.42759  0.28138  0.32830  1.0000
  H   H41       1.0  0.45519  0.32997  0.33381  1.0000
  H   H42       1.0  0.36780  0.22117  0.31372  1.0000
  H   H43       1.0  0.31954  0.19690  0.31294  1.0000
  H   H44       1.0  0.31963  0.12370  0.35985  1.0000
  H   H45       1.0  0.36793  0.14791  0.36161  1.0000
  C   C79       1.0  0.79175  0.24294  0.33480  1.0000
  N   N10       1.0  0.80525  0.22878  0.33505  1.0000
  C   C80       1.0  0.79203  0.20103  0.33847  1.0000
  N   N11       1.0  0.76429  0.18750  0.34215  1.0000
  C   C81       1.0  0.74978  0.20062  0.34304  1.0000
  N   N12       1.0  0.76431  0.22808  0.33904  1.0000
  C   C82       1.0  0.80664  0.18660  0.33781  1.0000
  C   C83       1.0  0.83515  0.20015  0.35092  1.0000
  C   C84       1.0  0.84950  0.18588  0.35077  1.0000
  C   C85       1.0  0.83600  0.15748  0.33622  1.0000
  C   C86       1.0  0.80757  0.14389  0.32253  1.0000
  C   C87       1.0  0.79319  0.15812  0.32391  1.0000
  C   C88       1.0  0.80447  0.27185  0.32955  1.0000
  C   C89       1.0  0.83284  0.28917  0.34024  1.0000
  C   C90       1.0  0.84470  0.31772  0.33651  1.0000
  C   C91       1.0  0.82864  0.32987  0.31977  1.0000
  C   C92       1.0  0.80034  0.31262  0.30927  1.0000
  C   C93       1.0  0.78857  0.28431  0.31407  1.0000
  C   C94       1.0  0.72084  0.18744  0.34766  1.0000
  C   C95       1.0  0.70783  0.20296  0.36057  1.0000
  C   C96       1.0  0.67945  0.19068  0.36411  1.0000
  C   C97       1.0  0.66282  0.16228  0.35536  1.0000
  C   C98       1.0  0.67542  0.14653  0.34122  1.0000
  C   C99       1.0  0.70402  0.15893  0.33844  1.0000
  H   H46       1.0  0.86526  0.32959  0.34480  1.0000
  H   H47       1.0  0.84516  0.28117  0.35225  1.0000
  H   H48       1.0  0.78781  0.32051  0.29953  1.0000
  H   H49       1.0  0.76797  0.27297  0.30572  1.0000
  H   H50       1.0  0.71880  0.22362  0.36759  1.0000
  H   H51       1.0  0.67103  0.20283  0.37210  1.0000
  H   H52       1.0  0.71243  0.14690  0.32812  1.0000
  H   H53       1.0  0.66384  0.12593  0.33360  1.0000
  H   H54       1.0  0.77264  0.14729  0.31371  1.0000
  H   H55       1.0  0.79691  0.12331  0.31294  1.0000
  H   H56       1.0  0.87011  0.19659  0.35983  1.0000
  H   H57       1.0  0.84590  0.22068  0.36159  1.0000
  C   C100      1.0  0.75090  0.54948  0.33479  1.0000
  N   N13       1.0  0.76505  0.57713  0.33505  1.0000
  C   C101      1.0  0.79280  0.59167  0.33847  1.0000
  N   N14       1.0  0.80634  0.57746  0.34214  1.0000
  C   C102      1.0  0.79323  0.54983  0.34304  1.0000
  N   N15       1.0  0.76577  0.53690  0.33904  1.0000
  C   C103      1.0  0.80723  0.62072  0.33780  1.0000
  C   C104      1.0  0.79367  0.63567  0.35090  1.0000
  C   C105      1.0  0.80794  0.66429  0.35076  1.0000
  C   C106      1.0  0.83633  0.67919  0.33619  1.0000
  C   C107      1.0  0.84993  0.66435  0.32248  1.0000
  C   C108      1.0  0.83571  0.63574  0.32389  1.0000
  C   C109      1.0  0.72199  0.53327  0.32955  1.0000
  C   C110      1.0  0.70466  0.54431  0.34030  1.0000
  C   C111      1.0  0.67611  0.52760  0.33651  1.0000
  C   C112      1.0  0.66397  0.49939  0.31974  1.0000
  C   C113      1.0  0.68124  0.48837  0.30925  1.0000
  C   C114      1.0  0.70954  0.50491  0.31404  1.0000
  C   C115      1.0  0.80641  0.53408  0.34764  1.0000
  C   C116      1.0  0.79090  0.50555  0.36055  1.0000
  C   C117      1.0  0.80318  0.48945  0.36407  1.0000
  C   C118      1.0  0.83159  0.50124  0.35533  1.0000
  C   C119      1.0  0.84733  0.52958  0.34121  1.0000
  C   C120      1.0  0.83493  0.54578  0.33842  1.0000
  H   H58       1.0  0.66423  0.53628  0.34485  1.0000
  H   H59       1.0  0.71265  0.56462  0.35228  1.0000
  H   H60       1.0  0.67336  0.46795  0.29951  1.0000
  H   H61       1.0  0.72090  0.49567  0.30568  1.0000
  H   H62       1.0  0.77024  0.49586  0.36758  1.0000
  H   H63       1.0  0.79104  0.46889  0.37210  1.0000
  H   H64       1.0  0.84696  0.56622  0.32817  1.0000
  H   H65       1.0  0.86794  0.53862  0.33365  1.0000
  H   H66       1.0  0.84654  0.62603  0.31369  1.0000
  H   H67       1.0  0.87052  0.67428  0.31290  1.0000
  H   H68       1.0  0.79723  0.67419  0.35983  1.0000
  H   H69       1.0  0.77315  0.62589  0.36159  1.0000
  C   C121      1.0  0.18312  0.09777  0.41026  1.0000
  C   C122      1.0  0.15454  0.08360  0.40906  1.0000
  H   H70       1.0  0.19284  0.10717  0.46823  1.0000
  H   H71       1.0  0.14438  0.08270  0.46664  1.0000
  C   C123      1.0  0.27054  0.12427  0.40320  1.0000
  C   C124      1.0  0.24193  0.11016  0.40282  1.0000
  H   H72       1.0  0.28032  0.12087  0.45473  1.0000
  H   H73       1.0  0.23187  0.09649  0.45291  1.0000
  C   C125      1.0  0.89604  0.08601  0.41027  1.0000
  C   C126      1.0  0.91022  0.07161  0.40908  1.0000
  H   H74       1.0  0.88665  0.08634  0.46823  1.0000
  H   H75       1.0  0.91112  0.06235  0.46665  1.0000
  C   C127      1.0  0.86953  0.14693  0.40323  1.0000
  C   C128      1.0  0.88365  0.13243  0.40282  1.0000
  H   H76       1.0  0.87294  0.16011  0.45472  1.0000
  H   H77       1.0  0.89732  0.13604  0.45289  1.0000
  C   C129      1.0  0.90780  0.81070  0.41025  1.0000
  C   C130      1.0  0.92220  0.83928  0.40906  1.0000
  H   H78       1.0  0.90747  0.80098  0.46821  1.0000
  H   H79       1.0  0.93147  0.84944  0.46663  1.0000
  C   C131      1.0  0.84689  0.72328  0.40320  1.0000
  C   C132      1.0  0.86137  0.75189  0.40277  1.0000
  H   H80       1.0  0.83370  0.71350  0.45470  1.0000
  H   H81       1.0  0.85778  0.76195  0.45289  1.0000
  C   C133      1.0  0.63414  0.15095  0.35639  1.0000
  C   C134      1.0  0.62085  0.15443  0.43138  1.0000
  C   C135      1.0  0.59387  0.14926  0.42232  1.0000
  C   C136      1.0  0.57980  0.14112  0.33988  1.0000
  C   C137      1.0  0.55531  0.14208  0.32736  1.0000
  C   C138      1.0  0.53484  0.13296  0.39390  1.0000
  C   C139      1.0  0.51353  0.13883  0.38860  1.0000
  C   C140      1.0  0.51212  0.15422  0.31667  1.0000
  H   H82       1.0  0.53607  0.12316  0.44955  1.0000
  H   H83       1.0  0.50039  0.13369  0.44136  1.0000
  H   H84       1.0  0.58540  0.15374  0.47528  1.0000
  N   N16       1.0  0.63512  0.16394  0.51319  1.0000
  O   O7        1.0  0.63725  0.18618  0.53646  1.0000
  O   O8        1.0  0.62358  0.14696  0.57484  1.0000
  C   C141      1.0  0.84292  0.48389  0.35644  1.0000
  C   C142      1.0  0.83945  0.46712  0.43139  1.0000
  C   C143      1.0  0.84461  0.44530  0.42234  1.0000
  C   C144      1.0  0.85274  0.43936  0.33989  1.0000
  C   C145      1.0  0.85180  0.41391  0.32738  1.0000
  C   C146      1.0  0.86087  0.40254  0.39397  1.0000
  C   C147      1.0  0.85503  0.37538  0.38863  1.0000
  C   C148      1.0  0.83963  0.35857  0.31671  1.0000
  H   H85       1.0  0.87073  0.41359  0.44953  1.0000
  H   H86       1.0  0.86017  0.36738  0.44137  1.0000
  H   H87       1.0  0.84013  0.43235  0.47531  1.0000
  N   N17       1.0  0.82994  0.47188  0.51321  1.0000
  O   O9        1.0  0.80769  0.45177  0.53646  1.0000
  O   O10       1.0  0.84691  0.47730  0.57486  1.0000
  C   C149      1.0  0.50993  0.35968  0.35645  1.0000
  C   C150      1.0  0.52670  0.37298  0.43142  1.0000
  C   C151      1.0  0.54853  0.39994  0.42235  1.0000
  C   C152      1.0  0.55448  0.41399  0.33986  1.0000
  C   C153      1.0  0.57993  0.43850  0.32737  1.0000
  C   C154      1.0  0.59129  0.45896  0.39395  1.0000
  C   C155      1.0  0.61848  0.48024  0.38871  1.0000
  C   C156      1.0  0.63527  0.48165  0.31676  1.0000
  H   H88       1.0  0.58024  0.45777  0.44949  1.0000
  H   H89       1.0  0.62646  0.49345  0.44130  1.0000
  H   H90       1.0  0.56149  0.40842  0.47531  1.0000
  N   N18       1.0  0.52192  0.35870  0.51323  1.0000
  O   O11       1.0  0.54202  0.35655  0.53650  1.0000
  O   O12       1.0  0.51651  0.37026  0.57487  1.0000
