data_image0
_chemical_formula_structural       C14H12C7NC12H12C2NC3NC3NC15H14C2H2C2H2C2H2C2H2C2H2C2H2C3NC2NC5NC3NC17H14CNC2NC4NC18H14C2NC19H12C4HCH3C4HCH3C4HCH3C4HCH3C4HCH3C4HCH3
_chemical_formula_sum              "C174 H114 N12"
_cell_length_a       41.8604
_cell_length_b       41.8604
_cell_length_c       15.024
_cell_angle_alpha    90.0372
_cell_angle_beta     89.9628
_cell_angle_gamma    120

_space_group_name_H-M_alt    "P 1"
_space_group_IT_number       1

loop_
  _space_group_symop_operation_xyz
  'x, y, z'

loop_
  _atom_site_type_symbol
  _atom_site_label
  _atom_site_symmetry_multiplicity
  _atom_site_fract_x
  _atom_site_fract_y
  _atom_site_fract_z
  _atom_site_occupancy
  C   C1        1.0  0.94872  0.54792  0.32234  1.0000
  C   C2        1.0  0.09780  0.53621  0.32684  1.0000
  C   C3        1.0  0.10978  0.57451  0.32181  1.0000
  C   C4        1.0  0.14621  0.63597  0.31221  1.0000
  C   C5        1.0  0.14626  0.60311  0.31351  1.0000
  C   C6        1.0  0.15636  0.75548  0.27418  1.0000
  C   C7        1.0  0.12882  0.71809  0.26954  1.0000
  C   C8        1.0  0.12552  0.52572  0.32650  1.0000
  C   C9        1.0  0.17696  0.52433  0.25298  1.0000
  C   C10       1.0  0.14738  0.53124  0.25038  1.0000
  C   C11       1.0  0.92999  0.40438  0.26930  1.0000
  C   C12       1.0  0.90264  0.36693  0.27388  1.0000
  C   C13       1.0  0.91110  0.59099  0.25026  1.0000
  C   C14       1.0  0.88138  0.59768  0.25277  1.0000
  H   H1        1.0  0.86505  0.58989  0.19763  1.0000
  H   H2        1.0  0.91526  0.57973  0.19396  1.0000
  H   H3        1.0  0.99500  0.66449  0.35147  1.0000
  H   H4        1.0  0.94840  0.41311  0.21763  1.0000
  H   H5        1.0  0.90229  0.34954  0.22551  1.0000
  H   H6        1.0  0.06350  0.45803  0.35248  1.0000
  H   H7        1.0  0.16942  0.66124  0.30611  1.0000
  H   H8        1.0  0.16957  0.60116  0.30915  1.0000
  H   H9        1.0  0.14325  0.54241  0.19393  1.0000
  H   H10       1.0  0.19322  0.53187  0.19770  1.0000
  H   H11       1.0  0.11052  0.70945  0.21767  1.0000
  H   H12       1.0  0.15695  0.77291  0.22565  1.0000
  C   C15       1.0  0.43786  0.45049  0.34657  1.0000
  C   C16       1.0  0.44445  0.50710  0.33704  1.0000
  C   C17       1.0  0.54189  0.49268  0.32165  1.0000
  C   C18       1.0  0.61277  0.61275  0.33697  1.0000
  C   C19       1.0  0.61935  0.66937  0.34639  1.0000
  C   C20       1.0  0.55363  0.65348  0.32651  1.0000
  C   C21       1.0  0.51533  0.62716  0.32161  1.0000
  N   N1        1.0  0.49886  0.59001  0.32818  1.0000
  C   C22       1.0  0.45387  0.60212  0.31180  1.0000
  C   C23       1.0  0.48674  0.63503  0.31305  1.0000
  C   C24       1.0  0.33435  0.49270  0.27404  1.0000
  C   C25       1.0  0.37174  0.50254  0.26938  1.0000
  C   C26       1.0  0.56413  0.69168  0.32617  1.0000
  C   C27       1.0  0.58061  0.76751  0.32887  1.0000
  C   C28       1.0  0.56557  0.74451  0.25260  1.0000
  C   C29       1.0  0.55861  0.70800  0.25005  1.0000
  C   C30       1.0  0.68544  0.61740  0.26918  1.0000
  C   C31       1.0  0.72289  0.62748  0.27376  1.0000
  C   C32       1.0  0.49875  0.41193  0.24974  1.0000
  C   C33       1.0  0.49207  0.37553  0.25226  1.0000
  H   H13       1.0  0.49981  0.36695  0.19705  1.0000
  H   H14       1.0  0.50996  0.42731  0.19339  1.0000
  H   H15       1.0  0.42536  0.42246  0.35177  1.0000
  H   H16       1.0  0.67673  0.62707  0.21748  1.0000
  H   H17       1.0  0.74029  0.64450  0.22541  1.0000
  H   H18       1.0  0.63185  0.69740  0.35167  1.0000
  H   H19       1.0  0.42860  0.60003  0.30529  1.0000
  H   H20       1.0  0.48868  0.66028  0.30841  1.0000
  H   H21       1.0  0.54745  0.69268  0.19358  1.0000
  H   H22       1.0  0.55800  0.75319  0.19735  1.0000
  H   H23       1.0  0.38037  0.49281  0.21759  1.0000
  H   H24       1.0  0.31690  0.47579  0.22563  1.0000
  C   C34       1.0  0.63941  0.07931  0.34577  1.0000
  C   C35       1.0  0.58280  0.02927  0.33646  1.0000
  N   N2        1.0  0.58068  0.06044  0.32834  1.0000
  C   C36       1.0  0.62350  0.12914  0.32628  1.0000
  C   C37       1.0  0.59717  0.14112  0.32147  1.0000
  C   C38       1.0  0.47707  0.09190  0.33642  1.0000
  N   N3        1.0  0.47919  0.06073  0.32814  1.0000
  C   C39       1.0  0.42045  0.04186  0.34567  1.0000
  C   C40       1.0  0.43637  0.99202  0.32634  1.0000
  C   C41       1.0  0.46270  0.98004  0.32158  1.0000
  N   N4        1.0  0.49985  0.00073  0.32796  1.0000
  C   C42       1.0  0.48774  0.94362  0.31192  1.0000
  C   C43       1.0  0.45483  0.94357  0.31316  1.0000
  C   C44       1.0  0.56472  0.96375  0.33513  1.0000
  C   C45       1.0  0.58318  0.90642  0.34166  1.0000
  C   C46       1.0  0.59714  0.93350  0.27363  1.0000
  C   C47       1.0  0.58730  0.96105  0.26900  1.0000
  C   C48       1.0  0.39817  0.96430  0.32608  1.0000
  C   C49       1.0  0.32236  0.90496  0.32898  1.0000
  C   C50       1.0  0.34537  0.91280  0.25275  1.0000
  C   C51       1.0  0.38184  0.94241  0.25001  1.0000
  C   C52       1.0  0.47246  0.15991  0.26872  1.0000
  C   C53       1.0  0.46236  0.18727  0.27334  1.0000
  C   C54       1.0  0.67794  0.17877  0.24974  1.0000
  C   C55       1.0  0.73736  0.21649  0.32859  1.0000
  C   C56       1.0  0.71435  0.20850  0.25238  1.0000
  H   H25       1.0  0.72296  0.22481  0.19722  1.0000
  H   H26       1.0  0.66258  0.17462  0.19339  1.0000
  H   H27       1.0  0.66744  0.09485  0.35096  1.0000
  H   H28       1.0  0.55831  0.06045  0.31389  1.0000
  H   H29       1.0  0.50159  0.06070  0.31413  1.0000
  H   H30       1.0  0.46283  0.14154  0.21697  1.0000
  H   H31       1.0  0.44539  0.18767  0.22491  1.0000
  H   H32       1.0  0.39243  0.02632  0.35105  1.0000
  H   H33       1.0  0.48983  0.92044  0.30535  1.0000
  H   H34       1.0  0.42958  0.92026  0.30857  1.0000
  H   H35       1.0  0.39717  0.94644  0.19362  1.0000
  H   H36       1.0  0.33668  0.89649  0.19758  1.0000
  H   H37       1.0  0.59699  0.97935  0.21715  1.0000
  H   H38       1.0  0.61403  0.93293  0.22517  1.0000
  C   C57       1.0  0.26996  0.50487  0.25937  1.0000
  C   C58       1.0  0.23657  0.50504  0.25517  1.0000
  H   H39       1.0  0.28438  0.50923  0.20129  1.0000
  H   H40       1.0  0.22806  0.50742  0.19324  1.0000
  C   C59       1.0  0.58502  0.85696  0.25901  1.0000
  C   C60       1.0  0.58485  0.82340  0.25481  1.0000
  H   H41       1.0  0.58064  0.86698  0.20094  1.0000
  H   H42       1.0  0.58246  0.81248  0.19287  1.0000
  C   C61       1.0  0.23289  0.81986  0.25938  1.0000
  C   C62       1.0  0.26646  0.85323  0.25510  1.0000
  H   H43       1.0  0.22287  0.80539  0.20136  1.0000
  H   H44       1.0  0.27736  0.86171  0.19314  1.0000
  C   C63       1.0  0.78779  0.61615  0.25910  1.0000
  C   C64       1.0  0.82139  0.61642  0.25489  1.0000
  H   H45       1.0  0.77339  0.61170  0.20098  1.0000
  H   H46       1.0  0.83007  0.61424  0.19295  1.0000
  C   C65       1.0  0.47371  0.26350  0.25870  1.0000
  C   C66       1.0  0.47342  0.29683  0.25447  1.0000
  H   H47       1.0  0.47820  0.25355  0.20061  1.0000
  H   H48       1.0  0.47568  0.30767  0.19253  1.0000
  C   C67       1.0  0.82643  0.30203  0.25901  1.0000
  C   C68       1.0  0.79310  0.26842  0.25470  1.0000
  H   H49       1.0  0.83642  0.31644  0.20093  1.0000
  H   H50       1.0  0.78229  0.25979  0.19273  1.0000
  C   C69       1.0  0.01054  0.65201  0.34607  1.0000
  C   C70       1.0  0.04849  0.67071  0.35025  1.0000
  C   C71       1.0  0.06058  0.64541  0.33687  1.0000
  N   N5        1.0  0.02940  0.61213  0.32870  1.0000
  C   C72       1.0  0.99831  0.61452  0.33412  1.0000
  C   C73       1.0  0.96071  0.58624  0.32698  1.0000
  N   N6        1.0  0.96941  0.53145  0.32866  1.0000
  C   C74       1.0  0.94861  0.49426  0.32389  1.0000
  C   C75       1.0  0.91229  0.48645  0.31266  1.0000
  C   C76       1.0  0.91224  0.51931  0.31407  1.0000
  C   C77       1.0  0.96030  0.46778  0.33134  1.0000
  C   C78       1.0  0.99794  0.47707  0.33716  1.0000
  N   N7        1.0  0.02911  0.51037  0.32899  1.0000
  C   C79       1.0  0.06020  0.50796  0.33444  1.0000
  C   C80       1.0  0.04797  0.47051  0.34695  1.0000
  C   C81       1.0  0.01002  0.45181  0.35113  1.0000
  N   N8        1.0  0.08910  0.59098  0.32834  1.0000
  C   C82       1.0  0.10989  0.62817  0.32356  1.0000
  C   C83       1.0  0.09822  0.65466  0.33134  1.0000
  C   C84       1.0  0.12611  0.69284  0.33568  1.0000
  C   C85       1.0  0.15221  0.70604  0.40553  1.0000
  C   C86       1.0  0.18122  0.74279  0.40634  1.0000
  C   C87       1.0  0.18347  0.76862  0.34215  1.0000
  C   C88       1.0  0.13279  0.51100  0.40317  1.0000
  C   C89       1.0  0.16086  0.50185  0.40316  1.0000
  C   C90       1.0  0.18489  0.50929  0.32924  1.0000
  C   C91       1.0  0.93245  0.42958  0.33539  1.0000
  C   C92       1.0  0.87546  0.35363  0.34175  1.0000
  C   C93       1.0  0.87741  0.37941  0.40580  1.0000
  C   C94       1.0  0.90623  0.41625  0.40502  1.0000
  C   C95       1.0  0.93298  0.59671  0.32640  1.0000
  C   C96       1.0  0.92567  0.61155  0.40287  1.0000
  C   C97       1.0  0.89745  0.62049  0.40275  1.0000
  C   C98       1.0  0.87334  0.61272  0.32893  1.0000
  H   H51       1.0  0.89484  0.63240  0.45935  1.0000
  H   H52       1.0  0.94113  0.61625  0.45929  1.0000
  H   H53       1.0  0.06420  0.69854  0.35960  1.0000
  H   H54       1.0  0.02937  0.58968  0.31491  1.0000
  H   H55       1.0  0.02913  0.53268  0.31367  1.0000
  H   H56       1.0  0.88893  0.52125  0.30963  1.0000
  H   H57       1.0  0.88909  0.46119  0.30629  1.0000
  H   H58       1.0  0.90687  0.43378  0.45348  1.0000
  H   H59       1.0  0.85749  0.37176  0.45360  1.0000
  H   H60       1.0  0.99431  0.42399  0.36068  1.0000
  H   H61       1.0  0.11735  0.50647  0.45959  1.0000
  H   H62       1.0  0.16338  0.48998  0.45987  1.0000
  H   H63       1.0  0.20109  0.75030  0.45418  1.0000
  H   H64       1.0  0.15143  0.68844  0.45391  1.0000
  C   C99       1.0  0.41919  0.46976  0.35102  1.0000
  N   N9        1.0  0.47775  0.50922  0.32891  1.0000
  C   C100      1.0  0.47533  0.47571  0.33425  1.0000
  C   C101      1.0  0.50357  0.46636  0.32650  1.0000
  N   N10       1.0  0.55836  0.52983  0.32830  1.0000
  C   C102      1.0  0.59555  0.54622  0.32356  1.0000
  C   C103      1.0  0.60336  0.51771  0.31214  1.0000
  C   C104      1.0  0.57049  0.48481  0.31331  1.0000
  C   C105      1.0  0.62204  0.58439  0.33122  1.0000
  N   N11       1.0  0.57948  0.61064  0.32874  1.0000
  C   C106      1.0  0.58189  0.64413  0.33410  1.0000
  C   C107      1.0  0.63802  0.65010  0.35091  1.0000
  C   C108      1.0  0.46168  0.57361  0.32330  1.0000
  C   C109      1.0  0.43519  0.53545  0.33107  1.0000
  C   C110      1.0  0.39701  0.52517  0.33543  1.0000
  C   C111      1.0  0.38383  0.53815  0.40523  1.0000
  C   C112      1.0  0.34707  0.53038  0.40610  1.0000
  C   C113      1.0  0.32122  0.50671  0.34202  1.0000
  C   C114      1.0  0.57888  0.71372  0.40280  1.0000
  C   C115      1.0  0.58804  0.75094  0.40280  1.0000
  C   C116      1.0  0.66023  0.59471  0.33528  1.0000
  C   C117      1.0  0.73616  0.61363  0.34169  1.0000
  C   C118      1.0  0.71037  0.58985  0.40574  1.0000
  C   C119      1.0  0.67354  0.58185  0.40494  1.0000
  C   C120      1.0  0.49309  0.42816  0.32591  1.0000
  C   C121      1.0  0.47835  0.40608  0.40247  1.0000
  C   C122      1.0  0.46942  0.36891  0.40238  1.0000
  C   C123      1.0  0.47712  0.35251  0.32850  1.0000
  H   H65       1.0  0.45758  0.35446  0.45906  1.0000
  H   H66       1.0  0.47372  0.41689  0.45894  1.0000
  H   H67       1.0  0.39133  0.45762  0.35989  1.0000
  H   H68       1.0  0.50007  0.53150  0.31360  1.0000
  H   H69       1.0  0.55712  0.58828  0.31409  1.0000
  H   H70       1.0  0.56855  0.45955  0.30877  1.0000
  H   H71       1.0  0.62863  0.51978  0.30580  1.0000
  H   H72       1.0  0.65599  0.56496  0.45334  1.0000
  H   H73       1.0  0.71800  0.57758  0.45354  1.0000
  H   H74       1.0  0.66587  0.66224  0.35997  1.0000
  H   H75       1.0  0.58341  0.70285  0.45923  1.0000
  H   H76       1.0  0.59991  0.76536  0.45951  1.0000
  H   H77       1.0  0.33957  0.54277  0.45392  1.0000
  H   H78       1.0  0.40144  0.55502  0.45354  1.0000
  C   C124      1.0  0.62015  0.04136  0.35016  1.0000
  C   C125      1.0  0.61417  0.09154  0.33373  1.0000
  N   N12       1.0  0.56001  0.12044  0.32792  1.0000
  C   C126      1.0  0.54361  0.14122  0.32318  1.0000
  C   C127      1.0  0.57213  0.17755  0.31204  1.0000
  C   C128      1.0  0.60504  0.17760  0.31332  1.0000
  C   C129      1.0  0.50544  0.12953  0.33079  1.0000
  C   C130      1.0  0.44570  0.02963  0.33361  1.0000
  C   C131      1.0  0.43971  0.07980  0.35003  1.0000
  C   C132      1.0  0.51625  0.97994  0.32320  1.0000
  C   C133      1.0  0.55443  0.99164  0.33077  1.0000
  C   C134      1.0  0.55179  0.93765  0.40498  1.0000
  C   C135      1.0  0.55954  0.90865  0.40581  1.0000
  C   C136      1.0  0.37615  0.95712  0.40272  1.0000
  C   C137      1.0  0.33893  0.92905  0.40279  1.0000
  C   C138      1.0  0.49511  0.15740  0.33488  1.0000
  C   C139      1.0  0.47619  0.21441  0.34130  1.0000
  C   C140      1.0  0.49994  0.21242  0.40541  1.0000
  C   C141      1.0  0.50795  0.18359  0.40459  1.0000
  C   C142      1.0  0.66170  0.15686  0.32583  1.0000
  C   C143      1.0  0.68376  0.16416  0.40238  1.0000
  C   C144      1.0  0.72093  0.19238  0.40238  1.0000
  H   H79       1.0  0.73539  0.19496  0.45901  1.0000
  H   H80       1.0  0.67294  0.14869  0.45877  1.0000
  H   H81       1.0  0.63230  0.02565  0.35905  1.0000
  H   H82       1.0  0.63030  0.20091  0.30896  1.0000
  H   H83       1.0  0.57007  0.20075  0.30580  1.0000
  H   H84       1.0  0.52479  0.18291  0.45306  1.0000
  H   H85       1.0  0.51219  0.23232  0.45325  1.0000
  H   H86       1.0  0.42756  0.09550  0.35927  1.0000
  H   H87       1.0  0.38704  0.97260  0.45909  1.0000
  H   H88       1.0  0.32452  0.92658  0.45949  1.0000
  H   H89       1.0  0.54717  0.88879  0.45368  1.0000
  H   H90       1.0  0.53494  0.93842  0.45335  1.0000
  C   C145      1.0  0.21660  0.50381  0.33268  1.0000
  C   C146      1.0  0.23056  0.49809  0.41375  1.0000
  C   C147      1.0  0.26265  0.49488  0.41904  1.0000
  C   C148      1.0  0.28435  0.50082  0.34105  1.0000
  H   H91       1.0  0.21760  0.49657  0.47232  1.0000
  C   C149      1.0  0.27090  0.48425  0.50716  1.0000
  H   H92       1.0  0.24620  0.46035  0.53353  1.0000
  H   H93       1.0  0.27970  0.50708  0.55404  1.0000
  H   H94       1.0  0.29216  0.47654  0.50356  1.0000
  C   C150      1.0  0.58609  0.80470  0.33232  1.0000
  C   C151      1.0  0.59181  0.82442  0.41338  1.0000
  C   C152      1.0  0.59501  0.85971  0.41867  1.0000
  C   C153      1.0  0.58906  0.87544  0.34069  1.0000
  H   H95       1.0  0.59333  0.81300  0.47195  1.0000
  C   C154      1.0  0.60565  0.87863  0.50679  1.0000
  H   H96       1.0  0.62957  0.87785  0.53314  1.0000
  H   H97       1.0  0.58284  0.86464  0.55368  1.0000
  H   H98       1.0  0.61339  0.90761  0.50318  1.0000
  C   C155      1.0  0.28518  0.87324  0.33255  1.0000
  C   C156      1.0  0.26550  0.85931  0.41367  1.0000
  C   C157      1.0  0.23021  0.82722  0.41906  1.0000
  C   C158      1.0  0.21444  0.80550  0.34112  1.0000
  H   H99       1.0  0.27695  0.87230  0.47220  1.0000
  C   C159      1.0  0.21133  0.81901  0.50722  1.0000
  H   H100      1.0  0.21213  0.84373  0.53355  1.0000
  H   H101      1.0  0.22533  0.81022  0.55408  1.0000
  H   H102      1.0  0.18234  0.79777  0.50367  1.0000
  C   C160      1.0  0.84138  0.61780  0.33242  1.0000
  C   C161      1.0  0.82719  0.62321  0.41355  1.0000
  C   C162      1.0  0.79486  0.62599  0.41886  1.0000
  C   C163      1.0  0.77318  0.61992  0.34082  1.0000
  H   H103      1.0  0.84016  0.62479  0.47212  1.0000
  C   C164      1.0  0.78638  0.63641  0.50704  1.0000
  H   H104      1.0  0.81093  0.66044  0.53355  1.0000
  H   H105      1.0  0.77773  0.61358  0.55378  1.0000
  H   H106      1.0  0.76493  0.64387  0.50346  1.0000
  C   C165      1.0  0.47202  0.31547  0.33199  1.0000
  C   C166      1.0  0.46659  0.29589  0.41311  1.0000
  C   C167      1.0  0.46381  0.26078  0.41843  1.0000
  C   C168      1.0  0.46991  0.24515  0.34041  1.0000
  H   H107      1.0  0.46501  0.30730  0.47169  1.0000
  C   C169      1.0  0.45339  0.24193  0.50662  1.0000
  H   H108      1.0  0.42937  0.24247  0.53314  1.0000
  H   H109      1.0  0.47622  0.25613  0.55335  1.0000
  H   H110      1.0  0.44592  0.21302  0.50304  1.0000
  C   C170      1.0  0.77441  0.24842  0.33218  1.0000
  C   C171      1.0  0.79393  0.26259  0.41336  1.0000
  C   C172      1.0  0.82905  0.29491  0.41877  1.0000
  C   C173      1.0  0.84474  0.31661  0.34078  1.0000
  H   H111      1.0  0.78249  0.24962  0.47191  1.0000
  C   C174      1.0  0.84785  0.30337  0.50702  1.0000
  H   H112      1.0  0.84729  0.27881  0.53356  1.0000
  H   H113      1.0  0.83363  0.31202  0.55369  1.0000
  H   H114      1.0  0.87677  0.32481  0.50353  1.0000
