data_image0
_chemical_formula_structural       C2H2C2H2C2H2C2H2C2H2C2H2C4H2C4H2C4H2C4H2C4H2C4H2C4H2C4H2C4H2C4H2C4H2C4H2C6H3C6H3C6H3C6H3C6H3C6H3C6H3C6H3C6H3C6H3C6H3C6H3C4H2C4H2C4H2C4H2C4H2C4H2C2H2C2H2C2H2C2H2C2H2C2H2C2H2C2H2C2H2C2H2C2H2C2H2
_chemical_formula_sum              "C180 H108"
_cell_length_a       37.4033
_cell_length_b       37.4034
_cell_length_c       14.8016
_cell_angle_alpha    90
_cell_angle_beta     90
_cell_angle_gamma    120

_space_group_name_H-M_alt    "P 1"
_space_group_IT_number       1

loop_
  _space_group_symop_operation_xyz
  'x, y, z'

loop_
  _atom_site_type_symbol
  _atom_site_label
  _atom_site_symmetry_multiplicity
  _atom_site_fract_x
  _atom_site_fract_y
  _atom_site_fract_z
  _atom_site_occupancy
  C   C1        1.0  0.19388  0.37430  0.26480  1.0000
  C   C2        1.0  0.21565  0.41782  0.26486  1.0000
  H   H1        1.0  0.18621  0.35897  0.20431  1.0000
  H   H2        1.0  0.22333  0.43318  0.20442  1.0000
  C   C3        1.0  0.63368  0.81412  0.26482  1.0000
  C   C4        1.0  0.59016  0.79234  0.26490  1.0000
  H   H3        1.0  0.64900  0.82178  0.20432  1.0000
  H   H4        1.0  0.57479  0.78465  0.20447  1.0000
  C   C5        1.0  0.19385  0.81415  0.26484  1.0000
  C   C6        1.0  0.21562  0.79239  0.26494  1.0000
  H   H5        1.0  0.18620  0.82180  0.20435  1.0000
  H   H6        1.0  0.22331  0.78471  0.20451  1.0000
  C   C7        1.0  0.82041  0.62741  0.26481  1.0000
  C   C8        1.0  0.79866  0.58388  0.26489  1.0000
  H   H7        1.0  0.82808  0.64273  0.20432  1.0000
  H   H8        1.0  0.79098  0.56852  0.20445  1.0000
  C   C9        1.0  0.38058  0.18757  0.26480  1.0000
  C   C10       1.0  0.42411  0.20933  0.26487  1.0000
  H   H9        1.0  0.36526  0.17991  0.20432  1.0000
  H   H10       1.0  0.43946  0.21701  0.20442  1.0000
  C   C11       1.0  0.82040  0.18759  0.26484  1.0000
  C   C12       1.0  0.79863  0.20935  0.26493  1.0000
  H   H11       1.0  0.82806  0.17994  0.20434  1.0000
  H   H12       1.0  0.79095  0.21703  0.20450  1.0000
  C   C13       1.0  0.21555  0.18750  0.26427  1.0000
  C   C14       1.0  0.19378  0.20926  0.26427  1.0000
  C   C15       1.0  0.18273  0.22046  0.34641  1.0000
  C   C16       1.0  0.22675  0.17646  0.34641  1.0000
  H   H13       1.0  0.18605  0.21688  0.20381  1.0000
  H   H14       1.0  0.22317  0.17978  0.20381  1.0000
  C   C17       1.0  0.82049  0.02263  0.26426  1.0000
  C   C18       1.0  0.79873  0.97910  0.26426  1.0000
  C   C19       1.0  0.78752  0.95685  0.34640  1.0000
  C   C20       1.0  0.83154  0.04489  0.34640  1.0000
  H   H15       1.0  0.79111  0.96376  0.20380  1.0000
  H   H16       1.0  0.82822  0.03798  0.20380  1.0000
  C   C21       1.0  0.98535  0.79245  0.26426  1.0000
  C   C22       1.0  0.02888  0.81422  0.26426  1.0000
  C   C23       1.0  0.05113  0.82527  0.34640  1.0000
  C   C24       1.0  0.96310  0.78124  0.34640  1.0000
  H   H17       1.0  0.04423  0.82194  0.20380  1.0000
  H   H18       1.0  0.97001  0.78483  0.20380  1.0000
  C   C25       1.0  0.79873  0.81422  0.26426  1.0000
  C   C26       1.0  0.82049  0.79245  0.26426  1.0000
  C   C27       1.0  0.83153  0.78124  0.34640  1.0000
  C   C28       1.0  0.78753  0.82527  0.34640  1.0000
  H   H19       1.0  0.82821  0.78483  0.20380  1.0000
  H   H20       1.0  0.79111  0.82195  0.20380  1.0000
  C   C29       1.0  0.19377  0.97910  0.26426  1.0000
  C   C30       1.0  0.21554  0.02263  0.26427  1.0000
  C   C31       1.0  0.22675  0.04488  0.34641  1.0000
  C   C32       1.0  0.18271  0.95685  0.34640  1.0000
  H   H21       1.0  0.22316  0.03797  0.20381  1.0000
  H   H22       1.0  0.18604  0.96376  0.20380  1.0000
  C   C33       1.0  0.02890  0.20927  0.26426  1.0000
  C   C34       1.0  0.98537  0.18751  0.26426  1.0000
  C   C35       1.0  0.96312  0.17646  0.34640  1.0000
  C   C36       1.0  0.05115  0.22047  0.34640  1.0000
  H   H23       1.0  0.97003  0.17979  0.20380  1.0000
  H   H24       1.0  0.04424  0.21689  0.20380  1.0000
  C   C37       1.0  0.22861  0.63033  0.26447  1.0000
  C   C38       1.0  0.22855  0.59265  0.26458  1.0000
  C   C39       1.0  0.22865  0.57319  0.34653  1.0000
  C   C40       1.0  0.22869  0.65007  0.34609  1.0000
  H   H25       1.0  0.23363  0.58225  0.20459  1.0000
  H   H26       1.0  0.23367  0.64569  0.20432  1.0000
  C   C41       1.0  0.37760  0.59271  0.26424  1.0000
  C   C42       1.0  0.41531  0.63031  0.26426  1.0000
  C   C43       1.0  0.43475  0.65000  0.34605  1.0000
  C   C44       1.0  0.35800  0.57323  0.34605  1.0000
  H   H27       1.0  0.42573  0.64568  0.20416  1.0000
  H   H28       1.0  0.36225  0.58220  0.20414  1.0000
  C   C45       1.0  0.41534  0.77960  0.26439  1.0000
  C   C46       1.0  0.37771  0.77964  0.26425  1.0000
  C   C47       1.0  0.35797  0.77938  0.34596  1.0000
  C   C48       1.0  0.43478  0.77931  0.34619  1.0000
  H   H29       1.0  0.36231  0.77461  0.20418  1.0000
  H   H30       1.0  0.42574  0.77455  0.20436  1.0000
  C   C49       1.0  0.78588  0.37139  0.26420  1.0000
  C   C50       1.0  0.78594  0.40907  0.26413  1.0000
  C   C51       1.0  0.78563  0.42850  0.34590  1.0000
  C   C52       1.0  0.78560  0.35169  0.34599  1.0000
  H   H31       1.0  0.78091  0.41946  0.20407  1.0000
  H   H32       1.0  0.78090  0.35601  0.20411  1.0000
  C   C53       1.0  0.63678  0.40890  0.26462  1.0000
  C   C54       1.0  0.59910  0.37127  0.26452  1.0000
  C   C55       1.0  0.57949  0.35169  0.34635  1.0000
  C   C56       1.0  0.65631  0.42849  0.34648  1.0000
  H   H33       1.0  0.58879  0.35581  0.20449  1.0000
  H   H34       1.0  0.65221  0.41924  0.20455  1.0000
  C   C57       1.0  0.59911  0.22244  0.26443  1.0000
  C   C58       1.0  0.63670  0.22231  0.26431  1.0000
  C   C59       1.0  0.65627  0.22237  0.34613  1.0000
  C   C60       1.0  0.57952  0.22240  0.34630  1.0000
  H   H35       1.0  0.65209  0.22734  0.20422  1.0000
  H   H36       1.0  0.58864  0.22736  0.20436  1.0000
  C   C61       1.0  0.09500  0.24239  0.34642  1.0000
  C   C62       1.0  0.11714  0.22087  0.34628  1.0000
  C   C63       1.0  0.16080  0.24238  0.34643  1.0000
  C   C64       1.0  0.18232  0.28604  0.34669  1.0000
  C   C65       1.0  0.16081  0.30819  0.34681  1.0000
  C   C66       1.0  0.11715  0.28605  0.34669  1.0000
  H   H37       1.0  0.21397  0.30186  0.34678  1.0000
  H   H38       1.0  0.10133  0.30188  0.34678  1.0000
  H   H39       1.0  0.10132  0.18923  0.34613  1.0000
  C   C67       1.0  0.76561  0.84720  0.34642  1.0000
  C   C68       1.0  0.78712  0.89086  0.34627  1.0000
  C   C69       1.0  0.76560  0.91300  0.34642  1.0000
  C   C70       1.0  0.72194  0.89086  0.34669  1.0000
  C   C71       1.0  0.69980  0.84720  0.34680  1.0000
  C   C72       1.0  0.72195  0.82568  0.34669  1.0000
  H   H40       1.0  0.70612  0.90668  0.34678  1.0000
  H   H41       1.0  0.70612  0.79404  0.34678  1.0000
  H   H42       1.0  0.81876  0.90668  0.34612  1.0000
  C   C73       1.0  0.16079  0.91300  0.34642  1.0000
  C   C74       1.0  0.11713  0.89085  0.34627  1.0000
  C   C75       1.0  0.09498  0.84719  0.34642  1.0000
  C   C76       1.0  0.11712  0.82568  0.34669  1.0000
  C   C77       1.0  0.16078  0.84720  0.34682  1.0000
  C   C78       1.0  0.18230  0.89086  0.34669  1.0000
  H   H43       1.0  0.10130  0.79404  0.34679  1.0000
  H   H44       1.0  0.21395  0.90668  0.34678  1.0000
  H   H45       1.0  0.10130  0.90668  0.34611  1.0000
  C   C79       1.0  0.91926  0.75932  0.34642  1.0000
  C   C80       1.0  0.89711  0.78084  0.34628  1.0000
  C   C81       1.0  0.85345  0.75932  0.34643  1.0000
  C   C82       1.0  0.83194  0.71566  0.34670  1.0000
  C   C83       1.0  0.85346  0.69352  0.34681  1.0000
  C   C84       1.0  0.89712  0.71566  0.34669  1.0000
  H   H46       1.0  0.80029  0.69984  0.34679  1.0000
  H   H47       1.0  0.91294  0.69984  0.34678  1.0000
  H   H48       1.0  0.91293  0.81248  0.34612  1.0000
  C   C85       1.0  0.24868  0.15453  0.34644  1.0000
  C   C86       1.0  0.22716  0.11087  0.34628  1.0000
  C   C87       1.0  0.24867  0.08872  0.34644  1.0000
  C   C88       1.0  0.29233  0.11086  0.34671  1.0000
  C   C89       1.0  0.31448  0.15453  0.34682  1.0000
  C   C90       1.0  0.29234  0.17605  0.34671  1.0000
  H   H49       1.0  0.30815  0.09504  0.34680  1.0000
  H   H50       1.0  0.30816  0.20769  0.34679  1.0000
  H   H51       1.0  0.19551  0.09505  0.34613  1.0000
  C   C91       1.0  0.85346  0.08873  0.34642  1.0000
  C   C92       1.0  0.89713  0.11088  0.34627  1.0000
  C   C93       1.0  0.91927  0.15454  0.34642  1.0000
  C   C94       1.0  0.89712  0.17606  0.34669  1.0000
  C   C95       1.0  0.85346  0.15454  0.34680  1.0000
  C   C96       1.0  0.83195  0.11087  0.34669  1.0000
  H   H52       1.0  0.91294  0.20770  0.34678  1.0000
  H   H53       1.0  0.80030  0.09505  0.34678  1.0000
  H   H54       1.0  0.91295  0.09506  0.34611  1.0000
  C   C97       1.0  0.31447  0.54956  0.34640  1.0000
  C   C98       1.0  0.29211  0.57079  0.34619  1.0000
  C   C99       1.0  0.24852  0.54954  0.34649  1.0000
  C   C100      1.0  0.22697  0.50593  0.34701  1.0000
  C   C101      1.0  0.24867  0.48387  0.34705  1.0000
  C   C102      1.0  0.29243  0.50595  0.34681  1.0000
  H   H55       1.0  0.19534  0.49021  0.34717  1.0000
  H   H56       1.0  0.30835  0.49024  0.34681  1.0000
  H   H57       1.0  0.30796  0.60250  0.34594  1.0000
  C   C103      1.0  0.45844  0.75946  0.34661  1.0000
  C   C104      1.0  0.43719  0.71588  0.34629  1.0000
  C   C105      1.0  0.45842  0.69351  0.34659  1.0000
  C   C106      1.0  0.50204  0.71556  0.34694  1.0000
  C   C107      1.0  0.52412  0.75932  0.34713  1.0000
  C   C108      1.0  0.50205  0.78102  0.34701  1.0000
  H   H58       1.0  0.51774  0.69964  0.34694  1.0000
  H   H59       1.0  0.51777  0.81264  0.34707  1.0000
  H   H60       1.0  0.40548  0.70003  0.34592  1.0000
  C   C109      1.0  0.24852  0.69357  0.34643  1.0000
  C   C110      1.0  0.29211  0.71593  0.34599  1.0000
  C   C111      1.0  0.31446  0.75952  0.34642  1.0000
  C   C112      1.0  0.29240  0.78107  0.34693  1.0000
  C   C113      1.0  0.24863  0.75937  0.34717  1.0000
  C   C114      1.0  0.22695  0.71561  0.34707  1.0000
  H   H61       1.0  0.30831  0.81269  0.34698  1.0000
  H   H62       1.0  0.19533  0.69969  0.34718  1.0000
  H   H63       1.0  0.30797  0.70008  0.34556  1.0000
  C   C115      1.0  0.69983  0.45215  0.34646  1.0000
  C   C116      1.0  0.72218  0.43091  0.34611  1.0000
  C   C117      1.0  0.76577  0.45215  0.34638  1.0000
  C   C118      1.0  0.78733  0.49577  0.34678  1.0000
  C   C119      1.0  0.76564  0.51784  0.34709  1.0000
  C   C120      1.0  0.72187  0.49576  0.34709  1.0000
  H   H64       1.0  0.81895  0.51148  0.34675  1.0000
  H   H65       1.0  0.70596  0.51147  0.34729  1.0000
  H   H66       1.0  0.70633  0.39921  0.34579  1.0000
  C   C121      1.0  0.55585  0.24224  0.34621  1.0000
  C   C122      1.0  0.57708  0.28583  0.34595  1.0000
  C   C123      1.0  0.55584  0.30818  0.34624  1.0000
  C   C124      1.0  0.51223  0.28612  0.34690  1.0000
  C   C125      1.0  0.49016  0.24236  0.34703  1.0000
  C   C126      1.0  0.51224  0.22068  0.34686  1.0000
  H   H67       1.0  0.49651  0.30203  0.34707  1.0000
  H   H68       1.0  0.49653  0.18905  0.34701  1.0000
  H   H69       1.0  0.60879  0.30169  0.34573  1.0000
  C   C127      1.0  0.76573  0.30818  0.34653  1.0000
  C   C128      1.0  0.72215  0.28583  0.34617  1.0000
  C   C129      1.0  0.69979  0.24224  0.34656  1.0000
  C   C130      1.0  0.72184  0.22067  0.34708  1.0000
  C   C131      1.0  0.76560  0.24236  0.34717  1.0000
  C   C132      1.0  0.78729  0.28612  0.34694  1.0000
  H   H70       1.0  0.70593  0.18905  0.34715  1.0000
  H   H71       1.0  0.81892  0.30204  0.34694  1.0000
  H   H72       1.0  0.70629  0.30168  0.34576  1.0000
  C   C133      1.0  0.21562  0.41778  0.42915  1.0000
  C   C134      1.0  0.19384  0.37425  0.42909  1.0000
  C   C135      1.0  0.18273  0.35203  0.34691  1.0000
  C   C136      1.0  0.22676  0.44004  0.34704  1.0000
  H   H73       1.0  0.18616  0.35889  0.48952  1.0000
  H   H74       1.0  0.22328  0.43310  0.48963  1.0000
  C   C137      1.0  0.59022  0.79238  0.42919  1.0000
  C   C138      1.0  0.63375  0.81416  0.42910  1.0000
  C   C139      1.0  0.65596  0.82527  0.34692  1.0000
  C   C140      1.0  0.56794  0.78123  0.34709  1.0000
  H   H75       1.0  0.64912  0.82185  0.48954  1.0000
  H   H76       1.0  0.57490  0.78472  0.48968  1.0000
  C   C141      1.0  0.21557  0.79241  0.42923  1.0000
  C   C142      1.0  0.19381  0.81418  0.42914  1.0000
  C   C143      1.0  0.18270  0.82528  0.34694  1.0000
  C   C144      1.0  0.22672  0.78128  0.34713  1.0000
  H   H77       1.0  0.18612  0.82186  0.48956  1.0000
  H   H78       1.0  0.22323  0.78475  0.48973  1.0000
  C   C145      1.0  0.79867  0.58394  0.42918  1.0000
  C   C146      1.0  0.82043  0.62747  0.42910  1.0000
  C   C147      1.0  0.83154  0.64968  0.34692  1.0000
  C   C148      1.0  0.78755  0.56166  0.34707  1.0000
  H   H79       1.0  0.82810  0.64283  0.48954  1.0000
  H   H80       1.0  0.79100  0.56861  0.48966  1.0000
  C   C149      1.0  0.42407  0.20931  0.42916  1.0000
  C   C150      1.0  0.38054  0.18755  0.42910  1.0000
  C   C151      1.0  0.35832  0.17644  0.34692  1.0000
  C   C152      1.0  0.44633  0.22044  0.34704  1.0000
  H   H81       1.0  0.36518  0.17987  0.48954  1.0000
  H   H82       1.0  0.43940  0.21698  0.48963  1.0000
  C   C153      1.0  0.79866  0.20931  0.42922  1.0000
  C   C154      1.0  0.82043  0.18755  0.42912  1.0000
  C   C155      1.0  0.83154  0.17645  0.34693  1.0000
  C   C156      1.0  0.78752  0.22045  0.34712  1.0000
  H   H83       1.0  0.82812  0.17986  0.48955  1.0000
  H   H84       1.0  0.79100  0.21696  0.48971  1.0000
  C   C157      1.0  0.19393  0.20942  0.42855  1.0000
  C   C158      1.0  0.21570  0.18766  0.42855  1.0000
  H   H85       1.0  0.18631  0.21714  0.48901  1.0000
  H   H86       1.0  0.22343  0.18004  0.48901  1.0000
  C   C159      1.0  0.79857  0.97910  0.42854  1.0000
  C   C160      1.0  0.82034  0.02263  0.42854  1.0000
  H   H87       1.0  0.79085  0.96376  0.48900  1.0000
  H   H88       1.0  0.82796  0.03797  0.48900  1.0000
  C   C161      1.0  0.02888  0.81406  0.42854  1.0000
  C   C162      1.0  0.98536  0.79229  0.42854  1.0000
  H   H89       1.0  0.04423  0.82168  0.48900  1.0000
  H   H90       1.0  0.97001  0.78457  0.48900  1.0000
  C   C163      1.0  0.82033  0.79230  0.42854  1.0000
  C   C164      1.0  0.79857  0.81407  0.42854  1.0000
  H   H91       1.0  0.82795  0.78457  0.48900  1.0000
  H   H92       1.0  0.79085  0.82169  0.48900  1.0000
  C   C165      1.0  0.21569  0.02262  0.42854  1.0000
  C   C166      1.0  0.19392  0.97910  0.42854  1.0000
  H   H93       1.0  0.22342  0.03796  0.48901  1.0000
  H   H94       1.0  0.18630  0.96375  0.48900  1.0000
  C   C167      1.0  0.98537  0.18766  0.42854  1.0000
  C   C168      1.0  0.02890  0.20943  0.42854  1.0000
  H   H95       1.0  0.97003  0.18005  0.48900  1.0000
  H   H96       1.0  0.04424  0.21714  0.48900  1.0000
  C   C169      1.0  0.22809  0.59254  0.42819  1.0000
  C   C170      1.0  0.22816  0.63023  0.42794  1.0000
  H   H97       1.0  0.23275  0.58199  0.48841  1.0000
  H   H98       1.0  0.23272  0.64547  0.48812  1.0000
  C   C171      1.0  0.41532  0.63024  0.42788  1.0000
  C   C172      1.0  0.37773  0.59251  0.42796  1.0000
  H   H99       1.0  0.42586  0.64549  0.48809  1.0000
  H   H100      1.0  0.36240  0.58200  0.48808  1.0000
  C   C173      1.0  0.37769  0.77972  0.42782  1.0000
  C   C174      1.0  0.41539  0.77980  0.42794  1.0000
  H   H101      1.0  0.36243  0.77502  0.48800  1.0000
  H   H102      1.0  0.42583  0.77495  0.48812  1.0000
  C   C175      1.0  0.78605  0.40917  0.42779  1.0000
  C   C176      1.0  0.78598  0.37147  0.42780  1.0000
  H   H103      1.0  0.78114  0.41959  0.48793  1.0000
  H   H104      1.0  0.78113  0.35618  0.48800  1.0000
  C   C177      1.0  0.59870  0.37158  0.42816  1.0000
  C   C178      1.0  0.63639  0.40920  0.42819  1.0000
  H   H105      1.0  0.58805  0.35633  0.48831  1.0000
  H   H106      1.0  0.65158  0.41985  0.48842  1.0000
  C   C179      1.0  0.63650  0.22188  0.42801  1.0000
  C   C180      1.0  0.59878  0.22176  0.42808  1.0000
  H   H107      1.0  0.65173  0.22649  0.48822  1.0000
  H   H108      1.0  0.58825  0.22651  0.48823  1.0000
