data_image0
_chemical_formula_structural       C2HC2HN2C2HC4N2HCHC2HC4N2HCHC4H2C4H2N2C2NCHNCHCHC2NCHNCHCHC2HC2HN2C2HC4N2HCHC2HC4N2HCHC4H2C4H2N2C2NCHNCHCHC2NCHNCHCHC2HC2HN2C2HC4N2HCHC2HC4N2HCHC4H2C4H2N2C2NCHNCHCHC2NCHNCHCHC2HC2HN2C2HC4N2HCHC2HC4N2HCHC4H2C4H2N2C2NCHNCHCHC2NCHNCHCH
_chemical_formula_sum              "C144 H72 N48"
_cell_length_a       38.927
_cell_length_b       38.927
_cell_length_c       15.0618
_cell_angle_alpha    90
_cell_angle_beta     90
_cell_angle_gamma    90

_space_group_name_H-M_alt    "P 1"
_space_group_IT_number       1

loop_
  _space_group_symop_operation_xyz
  'x, y, z'

loop_
  _atom_site_type_symbol
  _atom_site_label
  _atom_site_symmetry_multiplicity
  _atom_site_fract_x
  _atom_site_fract_y
  _atom_site_fract_z
  _atom_site_occupancy
  C   C1        1.0  0.00505  0.04259  0.29171  1.0000
  C   C2        1.0  0.03053  0.06835  0.28876  1.0000
  H   H1        1.0  0.48114  0.04854  0.26860  1.0000
  C   C3        1.0  0.46900  0.42170  0.30772  1.0000
  C   C4        1.0  0.49462  0.44738  0.30825  1.0000
  H   H2        1.0  0.01911  0.44042  0.29216  1.0000
  N   N1        1.0  0.47487  0.38813  0.29040  1.0000
  N   N2        1.0  0.02494  0.10116  0.26340  1.0000
  C   C5        1.0  0.97034  0.28075  0.23354  1.0000
  C   C6        1.0  0.97070  0.31648  0.24693  1.0000
  H   H3        1.0  0.94775  0.32925  0.25013  1.0000
  C   C7        1.0  0.00117  0.22672  0.22417  1.0000
  C   C8        1.0  0.99849  0.15455  0.22498  1.0000
  C   C9        1.0  0.96788  0.17387  0.21594  1.0000
  C   C10       1.0  0.96895  0.20998  0.21748  1.0000
  N   N3        1.0  0.93989  0.22931  0.21792  1.0000
  N   N4        1.0  0.94055  0.26281  0.22565  1.0000
  H   H4        1.0  0.94447  0.16184  0.21493  1.0000
  C   C11       1.0  0.99690  0.11870  0.23653  1.0000
  H   H5        1.0  0.97355  0.10665  0.23558  1.0000
  C   C12       1.0  0.21298  0.02913  0.41042  1.0000
  C   C13       1.0  0.17691  0.02846  0.40803  1.0000
  H   H6        1.0  0.16400  0.05111  0.39914  1.0000
  C   C14       1.0  0.26719  0.99845  0.41194  1.0000
  C   C15       1.0  0.33884  0.00035  0.38852  1.0000
  C   C16       1.0  0.31979  0.03131  0.39139  1.0000
  C   C17       1.0  0.28388  0.03053  0.40139  1.0000
  N   N5        1.0  0.26453  0.05953  0.39730  1.0000
  N   N6        1.0  0.23094  0.05885  0.40125  1.0000
  H   H7        1.0  0.33170  0.05448  0.38175  1.0000
  C   C18       1.0  0.37440  0.00117  0.37201  1.0000
  H   H8        1.0  0.38647  0.02437  0.36547  1.0000
  C   C19       1.0  0.01251  0.00848  0.31918  1.0000
  C   C20       1.0  0.06405  0.06032  0.31636  1.0000
  C   C21       1.0  0.07247  0.02707  0.34542  1.0000
  C   C22       1.0  0.04689  0.00138  0.34491  1.0000
  H   H9        1.0  0.05310  0.47774  0.36942  1.0000
  H   H10       1.0  0.08260  0.07905  0.31577  1.0000
  C   C23       1.0  0.48661  0.48261  0.32118  1.0000
  C   C24       1.0  0.45157  0.49095  0.33609  1.0000
  C   C25       1.0  0.42574  0.46555  0.33985  1.0000
  C   C26       1.0  0.43474  0.43108  0.32462  1.0000
  H   H11       1.0  0.44492  0.01562  0.35107  1.0000
  H   H12       1.0  0.41603  0.41253  0.32558  1.0000
  N   N7        1.0  0.39232  0.47197  0.35779  1.0000
  N   N8        1.0  0.10534  0.02210  0.37104  1.0000
  C   C27       1.0  0.00220  0.33428  0.25755  1.0000
  C   C28       1.0  0.03290  0.31494  0.25171  1.0000
  N   N9        1.0  0.03180  0.28039  0.24039  1.0000
  C   C29       1.0  0.00192  0.26273  0.23153  1.0000
  H   H13       1.0  0.05640  0.32633  0.25905  1.0000
  N   N10       1.0  0.03027  0.20764  0.22844  1.0000
  C   C30       1.0  0.02995  0.17285  0.22833  1.0000
  H   H14       1.0  0.05296  0.16042  0.23424  1.0000
  C   C31       1.0  0.00367  0.36979  0.27467  1.0000
  H   H15       1.0  0.02708  0.38157  0.27942  1.0000
  C   C32       1.0  0.15894  0.99682  0.41285  1.0000
  C   C33       1.0  0.17851  0.96660  0.42565  1.0000
  N   N11       1.0  0.21333  0.96791  0.42571  1.0000
  C   C34       1.0  0.23113  0.99775  0.41771  1.0000
  H   H16       1.0  0.16702  0.94301  0.42898  1.0000
  N   N12       1.0  0.28610  0.96918  0.41141  1.0000
  C   C35       1.0  0.32065  0.96915  0.40038  1.0000
  H   H17       1.0  0.33294  0.94596  0.39969  1.0000
  C   C36       1.0  0.12320  0.99458  0.39998  1.0000
  H   H18       1.0  0.11142  0.97112  0.40270  1.0000
  C   C37       1.0  0.00505  0.54259  0.29171  1.0000
  C   C38       1.0  0.03053  0.56835  0.28876  1.0000
  H   H19       1.0  0.48114  0.54854  0.26860  1.0000
  C   C39       1.0  0.46900  0.92170  0.30772  1.0000
  C   C40       1.0  0.49462  0.94737  0.30825  1.0000
  H   H20       1.0  0.01911  0.94042  0.29216  1.0000
  N   N13       1.0  0.47487  0.88814  0.29040  1.0000
  N   N14       1.0  0.02494  0.60116  0.26340  1.0000
  C   C41       1.0  0.97034  0.78075  0.23354  1.0000
  C   C42       1.0  0.97070  0.81648  0.24693  1.0000
  H   H21       1.0  0.94775  0.82925  0.25013  1.0000
  C   C43       1.0  0.00117  0.72672  0.22417  1.0000
  C   C44       1.0  0.99849  0.65455  0.22498  1.0000
  C   C45       1.0  0.96788  0.67387  0.21594  1.0000
  C   C46       1.0  0.96895  0.70998  0.21748  1.0000
  N   N15       1.0  0.93989  0.72931  0.21792  1.0000
  N   N16       1.0  0.94055  0.76281  0.22565  1.0000
  H   H22       1.0  0.94447  0.66184  0.21493  1.0000
  C   C47       1.0  0.99690  0.61870  0.23653  1.0000
  H   H23       1.0  0.97355  0.60665  0.23558  1.0000
  C   C48       1.0  0.21298  0.52913  0.41042  1.0000
  C   C49       1.0  0.17691  0.52845  0.40803  1.0000
  H   H24       1.0  0.16400  0.55111  0.39914  1.0000
  C   C50       1.0  0.26719  0.49845  0.41194  1.0000
  C   C51       1.0  0.33884  0.50035  0.38852  1.0000
  C   C52       1.0  0.31979  0.53131  0.39139  1.0000
  C   C53       1.0  0.28388  0.53053  0.40139  1.0000
  N   N17       1.0  0.26453  0.55953  0.39730  1.0000
  N   N18       1.0  0.23094  0.55885  0.40125  1.0000
  H   H25       1.0  0.33170  0.55447  0.38175  1.0000
  C   C54       1.0  0.37440  0.50117  0.37201  1.0000
  H   H26       1.0  0.38647  0.52437  0.36547  1.0000
  C   C55       1.0  0.01251  0.50848  0.31918  1.0000
  C   C56       1.0  0.06405  0.56032  0.31636  1.0000
  C   C57       1.0  0.07247  0.52707  0.34542  1.0000
  C   C58       1.0  0.04689  0.50138  0.34491  1.0000
  H   H27       1.0  0.05310  0.97774  0.36942  1.0000
  H   H28       1.0  0.08260  0.57905  0.31577  1.0000
  C   C59       1.0  0.48661  0.98261  0.32118  1.0000
  C   C60       1.0  0.45157  0.99095  0.33609  1.0000
  C   C61       1.0  0.42574  0.96555  0.33985  1.0000
  C   C62       1.0  0.43474  0.93108  0.32462  1.0000
  H   H29       1.0  0.44492  0.51562  0.35107  1.0000
  H   H30       1.0  0.41603  0.91253  0.32558  1.0000
  N   N19       1.0  0.39232  0.97197  0.35779  1.0000
  N   N20       1.0  0.10534  0.52210  0.37104  1.0000
  C   C63       1.0  0.00220  0.83428  0.25755  1.0000
  C   C64       1.0  0.03290  0.81494  0.25171  1.0000
  N   N21       1.0  0.03180  0.78039  0.24039  1.0000
  C   C65       1.0  0.00192  0.76273  0.23153  1.0000
  H   H31       1.0  0.05640  0.82633  0.25905  1.0000
  N   N22       1.0  0.03027  0.70764  0.22844  1.0000
  C   C66       1.0  0.02995  0.67285  0.22833  1.0000
  H   H32       1.0  0.05296  0.66042  0.23424  1.0000
  C   C67       1.0  0.00367  0.86979  0.27467  1.0000
  H   H33       1.0  0.02708  0.88157  0.27942  1.0000
  C   C68       1.0  0.15894  0.49682  0.41285  1.0000
  C   C69       1.0  0.17851  0.46660  0.42565  1.0000
  N   N23       1.0  0.21333  0.46791  0.42571  1.0000
  C   C70       1.0  0.23113  0.49775  0.41771  1.0000
  H   H34       1.0  0.16702  0.44301  0.42898  1.0000
  N   N24       1.0  0.28610  0.46918  0.41141  1.0000
  C   C71       1.0  0.32065  0.46915  0.40038  1.0000
  H   H35       1.0  0.33294  0.44596  0.39969  1.0000
  C   C72       1.0  0.12320  0.49458  0.39998  1.0000
  H   H36       1.0  0.11142  0.47112  0.40270  1.0000
  C   C73       1.0  0.50505  0.04259  0.29171  1.0000
  C   C74       1.0  0.53053  0.06835  0.28876  1.0000
  H   H37       1.0  0.98114  0.04854  0.26860  1.0000
  C   C75       1.0  0.96900  0.42170  0.30772  1.0000
  C   C76       1.0  0.99462  0.44738  0.30825  1.0000
  H   H38       1.0  0.51910  0.44042  0.29216  1.0000
  N   N25       1.0  0.97487  0.38813  0.29040  1.0000
  N   N26       1.0  0.52494  0.10116  0.26340  1.0000
  C   C77       1.0  0.47034  0.28075  0.23354  1.0000
  C   C78       1.0  0.47070  0.31648  0.24693  1.0000
  H   H39       1.0  0.44775  0.32925  0.25013  1.0000
  C   C79       1.0  0.50117  0.22672  0.22417  1.0000
  C   C80       1.0  0.49849  0.15455  0.22498  1.0000
  C   C81       1.0  0.46788  0.17387  0.21594  1.0000
  C   C82       1.0  0.46895  0.20998  0.21748  1.0000
  N   N27       1.0  0.43989  0.22931  0.21792  1.0000
  N   N28       1.0  0.44055  0.26281  0.22565  1.0000
  H   H40       1.0  0.44448  0.16184  0.21493  1.0000
  C   C83       1.0  0.49690  0.11870  0.23653  1.0000
  H   H41       1.0  0.47355  0.10665  0.23558  1.0000
  C   C84       1.0  0.71298  0.02913  0.41042  1.0000
  C   C85       1.0  0.67691  0.02846  0.40803  1.0000
  H   H42       1.0  0.66400  0.05111  0.39914  1.0000
  C   C86       1.0  0.76719  0.99845  0.41194  1.0000
  C   C87       1.0  0.83884  0.00035  0.38852  1.0000
  C   C88       1.0  0.81979  0.03131  0.39139  1.0000
  C   C89       1.0  0.78388  0.03053  0.40139  1.0000
  N   N29       1.0  0.76453  0.05953  0.39730  1.0000
  N   N30       1.0  0.73094  0.05885  0.40125  1.0000
  H   H43       1.0  0.83170  0.05448  0.38175  1.0000
  C   C90       1.0  0.87440  0.00117  0.37201  1.0000
  H   H44       1.0  0.88647  0.02437  0.36547  1.0000
  C   C91       1.0  0.51251  0.00848  0.31918  1.0000
  C   C92       1.0  0.56406  0.06032  0.31636  1.0000
  C   C93       1.0  0.57247  0.02707  0.34542  1.0000
  C   C94       1.0  0.54689  0.00138  0.34491  1.0000
  H   H45       1.0  0.55310  0.47774  0.36942  1.0000
  H   H46       1.0  0.58260  0.07905  0.31577  1.0000
  C   C95       1.0  0.98661  0.48261  0.32118  1.0000
  C   C96       1.0  0.95157  0.49095  0.33609  1.0000
  C   C97       1.0  0.92574  0.46555  0.33985  1.0000
  C   C98       1.0  0.93474  0.43108  0.32462  1.0000
  H   H47       1.0  0.94492  0.01562  0.35107  1.0000
  H   H48       1.0  0.91603  0.41253  0.32558  1.0000
  N   N31       1.0  0.89232  0.47197  0.35779  1.0000
  N   N32       1.0  0.60534  0.02210  0.37104  1.0000
  C   C99       1.0  0.50220  0.33428  0.25755  1.0000
  C   C100      1.0  0.53290  0.31494  0.25171  1.0000
  N   N33       1.0  0.53180  0.28039  0.24039  1.0000
  C   C101      1.0  0.50192  0.26273  0.23153  1.0000
  H   H49       1.0  0.55640  0.32633  0.25905  1.0000
  N   N34       1.0  0.53027  0.20764  0.22844  1.0000
  C   C102      1.0  0.52995  0.17285  0.22833  1.0000
  H   H50       1.0  0.55296  0.16042  0.23424  1.0000
  C   C103      1.0  0.50367  0.36979  0.27467  1.0000
  H   H51       1.0  0.52708  0.38157  0.27942  1.0000
  C   C104      1.0  0.65894  0.99682  0.41285  1.0000
  C   C105      1.0  0.67851  0.96660  0.42565  1.0000
  N   N35       1.0  0.71333  0.96791  0.42571  1.0000
  C   C106      1.0  0.73113  0.99775  0.41771  1.0000
  H   H52       1.0  0.66702  0.94301  0.42898  1.0000
  N   N36       1.0  0.78610  0.96918  0.41141  1.0000
  C   C107      1.0  0.82065  0.96915  0.40038  1.0000
  H   H53       1.0  0.83294  0.94596  0.39969  1.0000
  C   C108      1.0  0.62320  0.99458  0.39998  1.0000
  H   H54       1.0  0.61142  0.97112  0.40270  1.0000
  C   C109      1.0  0.50505  0.54259  0.29171  1.0000
  C   C110      1.0  0.53053  0.56835  0.28876  1.0000
  H   H55       1.0  0.98114  0.54854  0.26860  1.0000
  C   C111      1.0  0.96900  0.92170  0.30772  1.0000
  C   C112      1.0  0.99462  0.94737  0.30825  1.0000
  H   H56       1.0  0.51910  0.94042  0.29216  1.0000
  N   N37       1.0  0.97487  0.88814  0.29040  1.0000
  N   N38       1.0  0.52494  0.60116  0.26340  1.0000
  C   C113      1.0  0.47034  0.78075  0.23354  1.0000
  C   C114      1.0  0.47070  0.81648  0.24693  1.0000
  H   H57       1.0  0.44775  0.82925  0.25013  1.0000
  C   C115      1.0  0.50117  0.72672  0.22417  1.0000
  C   C116      1.0  0.49849  0.65455  0.22498  1.0000
  C   C117      1.0  0.46788  0.67387  0.21594  1.0000
  C   C118      1.0  0.46895  0.70998  0.21748  1.0000
  N   N39       1.0  0.43989  0.72931  0.21792  1.0000
  N   N40       1.0  0.44055  0.76281  0.22565  1.0000
  H   H58       1.0  0.44448  0.66184  0.21493  1.0000
  C   C119      1.0  0.49690  0.61870  0.23653  1.0000
  H   H59       1.0  0.47355  0.60665  0.23558  1.0000
  C   C120      1.0  0.71298  0.52913  0.41042  1.0000
  C   C121      1.0  0.67691  0.52845  0.40803  1.0000
  H   H60       1.0  0.66400  0.55111  0.39914  1.0000
  C   C122      1.0  0.76719  0.49845  0.41194  1.0000
  C   C123      1.0  0.83884  0.50035  0.38852  1.0000
  C   C124      1.0  0.81979  0.53131  0.39139  1.0000
  C   C125      1.0  0.78388  0.53053  0.40139  1.0000
  N   N41       1.0  0.76453  0.55953  0.39730  1.0000
  N   N42       1.0  0.73094  0.55885  0.40125  1.0000
  H   H61       1.0  0.83170  0.55447  0.38175  1.0000
  C   C126      1.0  0.87440  0.50117  0.37201  1.0000
  H   H62       1.0  0.88647  0.52437  0.36547  1.0000
  C   C127      1.0  0.51251  0.50848  0.31918  1.0000
  C   C128      1.0  0.56406  0.56032  0.31636  1.0000
  C   C129      1.0  0.57247  0.52707  0.34542  1.0000
  C   C130      1.0  0.54689  0.50138  0.34491  1.0000
  H   H63       1.0  0.55310  0.97774  0.36942  1.0000
  H   H64       1.0  0.58260  0.57905  0.31577  1.0000
  C   C131      1.0  0.98661  0.98261  0.32118  1.0000
  C   C132      1.0  0.95157  0.99095  0.33609  1.0000
  C   C133      1.0  0.92574  0.96555  0.33985  1.0000
  C   C134      1.0  0.93474  0.93108  0.32462  1.0000
  H   H65       1.0  0.94492  0.51562  0.35107  1.0000
  H   H66       1.0  0.91603  0.91253  0.32558  1.0000
  N   N43       1.0  0.89232  0.97197  0.35779  1.0000
  N   N44       1.0  0.60534  0.52210  0.37104  1.0000
  C   C135      1.0  0.50220  0.83428  0.25755  1.0000
  C   C136      1.0  0.53290  0.81494  0.25171  1.0000
  N   N45       1.0  0.53180  0.78039  0.24039  1.0000
  C   C137      1.0  0.50192  0.76273  0.23153  1.0000
  H   H67       1.0  0.55640  0.82633  0.25905  1.0000
  N   N46       1.0  0.53027  0.70764  0.22844  1.0000
  C   C138      1.0  0.52995  0.67285  0.22833  1.0000
  H   H68       1.0  0.55296  0.66042  0.23424  1.0000
  C   C139      1.0  0.50367  0.86979  0.27467  1.0000
  H   H69       1.0  0.52708  0.88157  0.27942  1.0000
  C   C140      1.0  0.65894  0.49682  0.41285  1.0000
  C   C141      1.0  0.67851  0.46660  0.42565  1.0000
  N   N47       1.0  0.71333  0.46791  0.42571  1.0000
  C   C142      1.0  0.73113  0.49775  0.41771  1.0000
  H   H70       1.0  0.66702  0.44301  0.42898  1.0000
  N   N48       1.0  0.78610  0.46918  0.41141  1.0000
  C   C143      1.0  0.82065  0.46915  0.40038  1.0000
  H   H71       1.0  0.83294  0.44596  0.39969  1.0000
  C   C144      1.0  0.62320  0.49458  0.39998  1.0000
  H   H72       1.0  0.61142  0.47112  0.40270  1.0000
