data_image0
_chemical_formula_structural       C5HC5HC2H3CHNH2C3NH2NCNH3C2NHC2NHCNH2C2NHC8HC7HCH4C3H3C8HC7HCH4C4H4CNH2NC3NH2NH2N2H2C3NH2NH2NC3NH2NH2NC3NH2NH2NC5H2C2H2CHC3NH2NH2N2C3NH2NH2NC3NH2NH2NC3NH2NH2N
_chemical_formula_sum              "C96 H78 N36"
_cell_length_a       31.0354
_cell_length_b       31.0354
_cell_length_c       14.7167
_cell_angle_alpha    90.0002
_cell_angle_beta     89.9998
_cell_angle_gamma    120

_space_group_name_H-M_alt    "P 1"
_space_group_IT_number       1

loop_
  _space_group_symop_operation_xyz
  'x, y, z'

loop_
  _atom_site_type_symbol
  _atom_site_label
  _atom_site_symmetry_multiplicity
  _atom_site_fract_x
  _atom_site_fract_y
  _atom_site_fract_z
  _atom_site_occupancy
  C   C1        1.0  0.04169  0.60415  0.35952  1.0000
  C   C2        1.0  0.02280  0.68448  0.36107  1.0000
  C   C3        1.0  0.07338  0.69609  0.36245  1.0000
  C   C4        1.0  0.08194  0.65468  0.36251  1.0000
  C   C5        1.0  0.13006  0.66131  0.37268  1.0000
  H   H1        1.0  0.01552  0.71325  0.35916  1.0000
  C   C6        1.0  0.05108  0.56277  0.35952  1.0000
  C   C7        1.0  0.01939  0.47084  0.36241  1.0000
  C   C8        1.0  0.06998  0.48245  0.36105  1.0000
  C   C9        1.0  0.11131  0.53138  0.35797  1.0000
  C   C10       1.0  0.10103  0.57164  0.36027  1.0000
  H   H2        1.0  0.07726  0.45368  0.35912  1.0000
  C   C11       1.0  0.13939  0.62171  0.37017  1.0000
  C   C12       1.0  0.11011  0.74809  0.36375  1.0000
  H   H3        1.0  0.09737  0.77263  0.36988  1.0000
  H   H4        1.0  0.18886  0.57338  0.33788  1.0000
  H   H5        1.0  0.21936  0.55640  0.20951  1.0000
  C   C13       1.0  0.20291  0.81632  0.35273  1.0000
  H   H6        1.0  0.21506  0.74723  0.27292  1.0000
  N   N1        1.0  0.16017  0.77042  0.34923  1.0000
  H   H7        1.0  0.17535  0.63089  0.38148  1.0000
  H   H8        1.0  0.15973  0.69510  0.38714  1.0000
  C   C14       1.0  0.16034  0.53837  0.34873  1.0000
  C   C15       1.0  0.21885  0.50346  0.34571  1.0000
  C   C16       1.0  0.22311  0.46455  0.38873  1.0000
  N   N2        1.0  0.18097  0.42404  0.42134  1.0000
  H   H9        1.0  0.14814  0.42003  0.41247  1.0000
  H   H10       1.0  0.18071  0.39383  0.43898  1.0000
  N   N3        1.0  0.17480  0.50365  0.35726  1.0000
  C   C17       1.0  0.20672  0.85880  0.39836  1.0000
  N   N4        1.0  0.17150  0.85210  0.46149  1.0000
  H   H11       1.0  0.17643  0.87834  0.50305  1.0000
  H   H12       1.0  0.14856  0.81911  0.48393  1.0000
  H   H13       1.0  0.22241  0.94912  0.43904  1.0000
  C   C18       1.0  0.30864  0.54494  0.30634  1.0000
  C   C19       1.0  0.26074  0.54092  0.29725  1.0000
  N   N5        1.0  0.25278  0.56705  0.23085  1.0000
  H   H14       1.0  0.27827  0.58737  0.18717  1.0000
  C   C20       1.0  0.24559  0.82120  0.30632  1.0000
  C   C21       1.0  0.28946  0.86911  0.29723  1.0000
  N   N6        1.0  0.24427  0.78002  0.26947  1.0000
  H   H15       1.0  0.27440  0.78027  0.25120  1.0000
  C   C22       1.0  0.27103  0.46846  0.39835  1.0000
  N   N7        1.0  0.27773  0.43994  0.46146  1.0000
  H   H16       1.0  0.25149  0.41862  0.50300  1.0000
  H   H17       1.0  0.31071  0.44998  0.48392  1.0000
  C   C23       1.0  0.29390  0.91100  0.34571  1.0000
  C   C24       1.0  0.25072  0.90672  0.38876  1.0000
  N   N8        1.0  0.25236  0.94886  0.42138  1.0000
  H   H18       1.0  0.28118  0.98169  0.41252  1.0000
  C   C25       1.0  0.52567  0.55806  0.35943  1.0000
  C   C26       1.0  0.53454  0.51698  0.36009  1.0000
  C   C27       1.0  0.49428  0.46645  0.35788  1.0000
  C   C28       1.0  0.44535  0.45885  0.36100  1.0000
  C   C29       1.0  0.43374  0.49782  0.36241  1.0000
  C   C30       1.0  0.47515  0.54779  0.36241  1.0000
  C   C31       1.0  0.58461  0.52869  0.36992  1.0000
  C   C32       1.0  0.46853  0.58928  0.37266  1.0000
  H   H19       1.0  0.41657  0.42280  0.35917  1.0000
  C   C33       1.0  0.56706  0.60884  0.35944  1.0000
  C   C34       1.0  0.61758  0.61912  0.36242  1.0000
  C   C35       1.0  0.65899  0.66909  0.36243  1.0000
  C   C36       1.0  0.64737  0.70806  0.36103  1.0000
  C   C37       1.0  0.59844  0.70045  0.35790  1.0000
  C   C38       1.0  0.55819  0.64992  0.36017  1.0000
  C   C39       1.0  0.62421  0.57762  0.37254  1.0000
  H   H20       1.0  0.67614  0.74411  0.35920  1.0000
  C   C40       1.0  0.50812  0.63822  0.37000  1.0000
  H   H21       1.0  0.65799  0.58173  0.38703  1.0000
  H   H22       1.0  0.59380  0.50192  0.38138  1.0000
  H   H23       1.0  0.49894  0.66498  0.38159  1.0000
  H   H24       1.0  0.43475  0.58516  0.38723  1.0000
  C   C41       1.0  0.59144  0.74249  0.34866  1.0000
  C   C42       1.0  0.71099  0.68436  0.36378  1.0000
  C   C43       1.0  0.50126  0.42441  0.34862  1.0000
  H   H25       1.0  0.55644  0.73598  0.33770  1.0000
  H   H26       1.0  0.73552  0.72164  0.36975  1.0000
  H   H27       1.0  0.53627  0.43089  0.33777  1.0000
  C   C44       1.0  0.57175  0.08816  0.35942  1.0000
  C   C45       1.0  0.61283  0.13811  0.36017  1.0000
  C   C46       1.0  0.66336  0.14838  0.35790  1.0000
  C   C47       1.0  0.67097  0.10705  0.36106  1.0000
  C   C48       1.0  0.63200  0.05647  0.36244  1.0000
  C   C49       1.0  0.58203  0.04791  0.36239  1.0000
  C   C50       1.0  0.60112  0.17647  0.37005  1.0000
  C   C51       1.0  0.54053  0.99979  0.37251  1.0000
  H   H28       1.0  0.70702  0.11434  0.35920  1.0000
  C   C52       1.0  0.52098  0.07877  0.35942  1.0000
  C   C53       1.0  0.51070  0.11902  0.36240  1.0000
  C   C54       1.0  0.46073  0.11046  0.36244  1.0000
  C   C55       1.0  0.42176  0.05988  0.36106  1.0000
  C   C56       1.0  0.42936  0.01854  0.35790  1.0000
  C   C57       1.0  0.47989  0.02882  0.36011  1.0000
  C   C58       1.0  0.55220  0.16714  0.37259  1.0000
  H   H29       1.0  0.38571  0.05260  0.35924  1.0000
  C   C59       1.0  0.49160  0.99045  0.36994  1.0000
  H   H30       1.0  0.54808  0.19679  0.38723  1.0000
  H   H31       1.0  0.62790  0.21241  0.38156  1.0000
  H   H32       1.0  0.46483  0.95451  0.38152  1.0000
  H   H33       1.0  0.54464  0.97013  0.38716  1.0000
  C   C60       1.0  0.64725  0.01973  0.36379  1.0000
  C   C61       1.0  0.38732  0.96951  0.34867  1.0000
  C   C62       1.0  0.44548  0.14720  0.36380  1.0000
  C   C63       1.0  0.70540  0.19742  0.34865  1.0000
  H   H34       1.0  0.68454  0.03249  0.36975  1.0000
  H   H35       1.0  0.39381  0.94100  0.33781  1.0000
  H   H36       1.0  0.40820  0.13446  0.36990  1.0000
  H   H37       1.0  0.69890  0.22592  0.33766  1.0000
  C   C64       1.0  0.31352  0.50714  0.35273  1.0000
  N   N9        1.0  0.34983  0.58482  0.26952  1.0000
  H   H38       1.0  0.38262  0.58839  0.27298  1.0000
  H   H39       1.0  0.34959  0.61470  0.25126  1.0000
  N   N10       1.0  0.35942  0.51030  0.34922  1.0000
  C   C65       1.0  0.62271  0.92694  0.35276  1.0000
  C   C66       1.0  0.58490  0.88426  0.30637  1.0000
  C   C67       1.0  0.58889  0.84037  0.29728  1.0000
  N   N11       1.0  0.54502  0.88561  0.26966  1.0000
  H   H40       1.0  0.54154  0.91489  0.27259  1.0000
  H   H41       1.0  0.51521  0.85560  0.25068  1.0000
  N   N12       1.0  0.56266  0.80622  0.23099  1.0000
  H   H42       1.0  0.57379  0.78383  0.20954  1.0000
  H   H43       1.0  0.54245  0.81143  0.18719  1.0000
  N   N13       1.0  0.61955  0.96968  0.34931  1.0000
  N   N14       1.0  0.32355  0.87708  0.23080  1.0000
  H   H44       1.0  0.34630  0.91050  0.20946  1.0000
  H   H45       1.0  0.31837  0.85159  0.18711  1.0000
  C   C68       1.0  0.77924  0.65981  0.35277  1.0000
  C   C69       1.0  0.78411  0.62201  0.30637  1.0000
  C   C70       1.0  0.83201  0.62601  0.29729  1.0000
  N   N15       1.0  0.74290  0.58214  0.26963  1.0000
  H   H46       1.0  0.71014  0.57866  0.27254  1.0000
  H   H47       1.0  0.74310  0.55233  0.25065  1.0000
  N   N16       1.0  0.83993  0.59979  0.23099  1.0000
  H   H48       1.0  0.87345  0.61092  0.20956  1.0000
  H   H49       1.0  0.81452  0.57958  0.18718  1.0000
  N   N17       1.0  0.73334  0.65664  0.34930  1.0000
  C   C71       1.0  0.47004  0.23999  0.35273  1.0000
  C   C72       1.0  0.50784  0.28267  0.30630  1.0000
  C   C73       1.0  0.50381  0.32654  0.29720  1.0000
  N   N18       1.0  0.54771  0.28134  0.26947  1.0000
  H   H50       1.0  0.55129  0.25214  0.27295  1.0000
  H   H51       1.0  0.57758  0.31147  0.25118  1.0000
  N   N19       1.0  0.52993  0.36062  0.23077  1.0000
  H   H52       1.0  0.51927  0.38338  0.20943  1.0000
  H   H53       1.0  0.55024  0.35544  0.18709  1.0000
  N   N20       1.0  0.47320  0.19725  0.34924  1.0000
  C   C74       1.0  0.88986  0.35059  0.35269  1.0000
  C   C75       1.0  0.84718  0.34572  0.30630  1.0000
  C   C76       1.0  0.80329  0.29784  0.29723  1.0000
  N   N21       1.0  0.84853  0.38694  0.26956  1.0000
  H   H54       1.0  0.87781  0.41970  0.27246  1.0000
  H   H55       1.0  0.81852  0.38674  0.25058  1.0000
  N   N22       1.0  0.76914  0.28991  0.23093  1.0000
  H   H56       1.0  0.74674  0.25639  0.20951  1.0000
  H   H57       1.0  0.77434  0.31532  0.18713  1.0000
  N   N23       1.0  0.93259  0.39649  0.34923  1.0000
  C   C77       1.0  0.99174  0.59529  0.36019  1.0000
  C   C78       1.0  0.98146  0.63555  0.35794  1.0000
  C   C79       1.0  0.95338  0.54522  0.37008  1.0000
  C   C80       1.0  0.01083  0.51225  0.36245  1.0000
  C   C81       1.0  0.96270  0.50561  0.37244  1.0000
  H   H58       1.0  0.93303  0.47183  0.38701  1.0000
  H   H59       1.0  0.91741  0.53603  0.38133  1.0000
  C   C82       1.0  0.98265  0.41884  0.36369  1.0000
  C   C83       1.0  0.93243  0.62856  0.34868  1.0000
  H   H60       1.0  0.99542  0.39431  0.36966  1.0000
  H   H61       1.0  0.90393  0.59355  0.33773  1.0000
  C   C84       1.0  0.38174  0.48256  0.36373  1.0000
  H   H62       1.0  0.35720  0.44529  0.36986  1.0000
  C   C85       1.0  0.62636  0.83592  0.34573  1.0000
  C   C86       1.0  0.66528  0.87909  0.38875  1.0000
  C   C87       1.0  0.66138  0.92310  0.39829  1.0000
  N   N24       1.0  0.68988  0.95827  0.46142  1.0000
  H   H63       1.0  0.71158  0.95377  0.50273  1.0000
  H   H64       1.0  0.68030  0.98161  0.48372  1.0000
  N   N25       1.0  0.70574  0.87741  0.42149  1.0000
  H   H65       1.0  0.70972  0.84856  0.41270  1.0000
  H   H66       1.0  0.73595  0.90734  0.43921  1.0000
  N   N26       1.0  0.62615  0.79168  0.35725  1.0000
  N   N27       1.0  0.33813  0.95504  0.35724  1.0000
  C   C88       1.0  0.87392  0.66347  0.34576  1.0000
  C   C89       1.0  0.86967  0.70239  0.38879  1.0000
  C   C90       1.0  0.82175  0.69848  0.39831  1.0000
  N   N28       1.0  0.81506  0.72697  0.46145  1.0000
  H   H67       1.0  0.84126  0.74867  0.50277  1.0000
  H   H68       1.0  0.78215  0.71739  0.48373  1.0000
  N   N29       1.0  0.91180  0.74284  0.42155  1.0000
  H   H69       1.0  0.94462  0.74682  0.41277  1.0000
  H   H70       1.0  0.91207  0.77305  0.43928  1.0000
  N   N30       1.0  0.91795  0.66327  0.35729  1.0000
  C   C91       1.0  0.46636  0.33098  0.34568  1.0000
  C   C92       1.0  0.42746  0.28782  0.38875  1.0000
  C   C93       1.0  0.43138  0.24381  0.39837  1.0000
  N   N31       1.0  0.40287  0.20860  0.46151  1.0000
  H   H71       1.0  0.38155  0.21353  0.50307  1.0000
  H   H72       1.0  0.41291  0.18566  0.48396  1.0000
  N   N32       1.0  0.38696  0.28946  0.42137  1.0000
  H   H73       1.0  0.38295  0.31828  0.41250  1.0000
  H   H74       1.0  0.35675  0.25950  0.43904  1.0000
  N   N33       1.0  0.46655  0.37522  0.35720  1.0000
  C   C94       1.0  0.79883  0.25592  0.34571  1.0000
  C   C95       1.0  0.84200  0.26017  0.38873  1.0000
  C   C96       1.0  0.88602  0.30808  0.39823  1.0000
  N   N34       1.0  0.92119  0.31476  0.46136  1.0000
  H   H75       1.0  0.91669  0.28856  0.50268  1.0000
  H   H76       1.0  0.94454  0.34767  0.48364  1.0000
  N   N35       1.0  0.84031  0.21803  0.42148  1.0000
  H   H77       1.0  0.81147  0.18521  0.41271  1.0000
  H   H78       1.0  0.87025  0.21775  0.43920  1.0000
  N   N36       1.0  0.75459  0.21189  0.35725  1.0000
