data_image0
_chemical_formula_structural       C3H2CH2C4N2O4C4N2O4C4N2O4C2H2C2H2C2H2C20H11C24H15C24H15C24H15C2H2C2H2C2H2C4N2O4C4N2O4C4N2O4
_chemical_formula_sum              "C132 H72 N12 O24"
_cell_length_a       45.7891
_cell_length_b       45.7891
_cell_length_c       14.9492
_cell_angle_alpha    90
_cell_angle_beta     90
_cell_angle_gamma    120

_space_group_name_H-M_alt    "P 1"
_space_group_IT_number       1

loop_
  _space_group_symop_operation_xyz
  'x, y, z'

loop_
  _atom_site_type_symbol
  _atom_site_label
  _atom_site_symmetry_multiplicity
  _atom_site_fract_x
  _atom_site_fract_y
  _atom_site_fract_z
  _atom_site_occupancy
  C   C1        1.0  0.01168  0.03171  0.35005  1.0000
  C   C2        1.0  0.03064  0.01497  0.34662  1.0000
  C   C3        1.0  0.01240  0.97932  0.34022  1.0000
  H   H1        1.0  0.02424  0.05727  0.35914  1.0000
  H   H2        1.0  0.02544  0.96658  0.33804  1.0000
  C   C4        1.0  0.06697  0.03362  0.34624  1.0000
  H   H3        1.0  0.07487  0.99939  0.42469  1.0000
  H   H4        1.0  0.07240  0.07463  0.26660  1.0000
  C   C5        1.0  0.24800  0.12339  0.32641  1.0000
  C   C6        1.0  0.17574  0.08763  0.33122  1.0000
  C   C7        1.0  0.19316  0.09896  0.24823  1.0000
  C   C8        1.0  0.22915  0.11715  0.24571  1.0000
  N   N1        1.0  0.17361  0.09023  0.16865  1.0000
  N   N2        1.0  0.24435  0.12959  0.16105  1.0000
  O   O1        1.0  0.17896  0.07135  0.11864  1.0000
  O   O2        1.0  0.25927  0.11510  0.13038  1.0000
  O   O3        1.0  0.17791  0.11561  0.12531  1.0000
  O   O4        1.0  0.26344  0.16103  0.15953  1.0000
  C   C9        1.0  0.86627  0.12206  0.32091  1.0000
  C   C10       1.0  0.90262  0.08614  0.32447  1.0000
  C   C11       1.0  0.89721  0.09835  0.24205  1.0000
  C   C12       1.0  0.87945  0.11659  0.24017  1.0000
  N   N3        1.0  0.90870  0.09047  0.16230  1.0000
  N   N4        1.0  0.87734  0.12989  0.15622  1.0000
  O   O5        1.0  0.88489  0.07215  0.11045  1.0000
  O   O6        1.0  0.84811  0.11582  0.12432  1.0000
  O   O7        1.0  0.93014  0.11630  0.12115  1.0000
  O   O8        1.0  0.88982  0.16135  0.15683  1.0000
  C   C13       1.0  0.86908  0.74436  0.31475  1.0000
  C   C14       1.0  0.90494  0.81630  0.31582  1.0000
  C   C15       1.0  0.88461  0.79840  0.24076  1.0000
  C   C16       1.0  0.86673  0.76252  0.24023  1.0000
  N   N5        1.0  0.88025  0.81465  0.16529  1.0000
  N   N6        1.0  0.84631  0.74652  0.16427  1.0000
  O   O9        1.0  0.86822  0.83317  0.18529  1.0000
  O   O10       1.0  0.85659  0.73025  0.11953  1.0000
  O   O11       1.0  0.90683  0.83111  0.12081  1.0000
  O   O12       1.0  0.81573  0.72788  0.18368  1.0000
  C   C17       1.0  0.56537  0.16964  0.29470  1.0000
  C   C18       1.0  0.59587  0.16945  0.29465  1.0000
  H   H5        1.0  0.61469  0.18564  0.25248  1.0000
  H   H6        1.0  0.56295  0.18599  0.25266  1.0000
  C   C19       1.0  0.82164  0.39555  0.28293  1.0000
  C   C20       1.0  0.82173  0.42620  0.28348  1.0000
  H   H7        1.0  0.80494  0.42856  0.24308  1.0000
  H   H8        1.0  0.80473  0.37657  0.24231  1.0000
  C   C21       1.0  0.59733  0.42652  0.27618  1.0000
  C   C22       1.0  0.56667  0.39596  0.27630  1.0000
  H   H9        1.0  0.56460  0.37664  0.23713  1.0000
  H   H10       1.0  0.61657  0.42845  0.23692  1.0000
  C   C23       1.0  0.97605  0.01448  0.34298  1.0000
  C   C24       1.0  0.97672  0.96060  0.33596  1.0000
  C   C25       1.0  0.95924  0.97886  0.33603  1.0000
  C   C26       1.0  0.08496  0.06480  0.30034  1.0000
  C   C27       1.0  0.12042  0.08276  0.29715  1.0000
  C   C28       1.0  0.13963  0.06993  0.33755  1.0000
  C   C29       1.0  0.12190  0.03909  0.38466  1.0000
  C   C30       1.0  0.08640  0.02142  0.38912  1.0000
  C   C31       1.0  0.95786  0.03261  0.34025  1.0000
  C   C32       1.0  0.97124  0.06409  0.29582  1.0000
  C   C33       1.0  0.95348  0.08179  0.29198  1.0000
  C   C34       1.0  0.92104  0.06843  0.33035  1.0000
  C   C35       1.0  0.90766  0.03719  0.37560  1.0000
  C   C36       1.0  0.92571  0.01974  0.38063  1.0000
  C   C37       1.0  0.95882  0.92441  0.33066  1.0000
  C   C38       1.0  0.92889  0.90473  0.38056  1.0000
  C   C39       1.0  0.91126  0.86925  0.37595  1.0000
  C   C40       1.0  0.92293  0.85215  0.32087  1.0000
  C   C41       1.0  0.95305  0.87144  0.27217  1.0000
  C   C42       1.0  0.97052  0.90692  0.27660  1.0000
  H   H11       1.0  0.96459  0.10470  0.26054  1.0000
  H   H12       1.0  0.99403  0.07441  0.26396  1.0000
  H   H13       1.0  0.88431  0.02658  0.40459  1.0000
  H   H14       1.0  0.91506  0.99747  0.41513  1.0000
  H   H15       1.0  0.91979  0.91608  0.42218  1.0000
  H   H16       1.0  0.88968  0.85597  0.41277  1.0000
  H   H17       1.0  0.99174  0.91991  0.23837  1.0000
  H   H18       1.0  0.96240  0.85978  0.23255  1.0000
  H   H19       1.0  0.13474  0.02885  0.41511  1.0000
  H   H20       1.0  0.13213  0.10538  0.26423  1.0000
  H   H21       1.0  0.93364  0.96586  0.32751  1.0000
  C   C43       1.0  0.44692  0.25087  0.34637  1.0000
  C   C44       1.0  0.41143  0.23266  0.33758  1.0000
  C   C45       1.0  0.39280  0.19681  0.33959  1.0000
  C   C46       1.0  0.41127  0.17957  0.34821  1.0000
  C   C47       1.0  0.44679  0.19701  0.35528  1.0000
  C   C48       1.0  0.46408  0.23256  0.35347  1.0000
  C   C49       1.0  0.35650  0.17853  0.33548  1.0000
  C   C50       1.0  0.33698  0.19096  0.37692  1.0000
  C   C51       1.0  0.30149  0.17301  0.37351  1.0000
  C   C52       1.0  0.28397  0.14165  0.32900  1.0000
  C   C53       1.0  0.30307  0.12852  0.28990  1.0000
  C   C54       1.0  0.33856  0.14685  0.29184  1.0000
  C   C55       1.0  0.46598  0.28678  0.34970  1.0000
  C   C56       1.0  0.46528  0.30684  0.27868  1.0000
  C   C57       1.0  0.48876  0.34171  0.27534  1.0000
  C   C58       1.0  0.51297  0.35741  0.34391  1.0000
  C   C59       1.0  0.51303  0.33755  0.41606  1.0000
  C   C60       1.0  0.48967  0.30286  0.41934  1.0000
  C   C61       1.0  0.46568  0.18014  0.36392  1.0000
  C   C62       1.0  0.49032  0.18987  0.43196  1.0000
  C   C63       1.0  0.51358  0.17839  0.43155  1.0000
  C   C64       1.0  0.51244  0.15625  0.36411  1.0000
  C   C65       1.0  0.48727  0.14563  0.29743  1.0000
  C   C66       1.0  0.46394  0.15720  0.29784  1.0000
  H   H22       1.0  0.48910  0.35525  0.22049  1.0000
  H   H23       1.0  0.44940  0.29582  0.22553  1.0000
  H   H24       1.0  0.53121  0.34781  0.46460  1.0000
  H   H25       1.0  0.49134  0.28907  0.47100  1.0000
  H   H26       1.0  0.49281  0.20702  0.47969  1.0000
  H   H27       1.0  0.53244  0.18772  0.47839  1.0000
  H   H28       1.0  0.44734  0.15073  0.24568  1.0000
  H   H29       1.0  0.48684  0.13077  0.24571  1.0000
  H   H30       1.0  0.35118  0.13667  0.26002  1.0000
  H   H31       1.0  0.29128  0.10536  0.25978  1.0000
  H   H32       1.0  0.28847  0.18306  0.40396  1.0000
  H   H33       1.0  0.34840  0.21312  0.41192  1.0000
  H   H34       1.0  0.39907  0.24597  0.33082  1.0000
  H   H35       1.0  0.48992  0.24549  0.35645  1.0000
  H   H36       1.0  0.39874  0.15383  0.35298  1.0000
  C   C67       1.0  0.74138  0.19586  0.35462  1.0000
  C   C68       1.0  0.75941  0.17841  0.34625  1.0000
  C   C69       1.0  0.79513  0.19565  0.33809  1.0000
  C   C70       1.0  0.81242  0.23152  0.33781  1.0000
  C   C71       1.0  0.79518  0.24972  0.34775  1.0000
  C   C72       1.0  0.75970  0.23141  0.35433  1.0000
  C   C73       1.0  0.81312  0.17736  0.33283  1.0000
  C   C74       1.0  0.79951  0.14606  0.28725  1.0000
  C   C75       1.0  0.81663  0.12771  0.28419  1.0000
  C   C76       1.0  0.84865  0.14040  0.32423  1.0000
  C   C77       1.0  0.86235  0.17137  0.37064  1.0000
  C   C78       1.0  0.84486  0.18937  0.37506  1.0000
  C   C79       1.0  0.70561  0.17901  0.36321  1.0000
  C   C80       1.0  0.68439  0.15646  0.29649  1.0000
  C   C81       1.0  0.64953  0.14513  0.29614  1.0000
  C   C82       1.0  0.63500  0.15542  0.36371  1.0000
  C   C83       1.0  0.65604  0.17713  0.43177  1.0000
  C   C84       1.0  0.69075  0.18846  0.43204  1.0000
  C   C85       1.0  0.81207  0.28562  0.35273  1.0000
  C   C86       1.0  0.80420  0.30129  0.42291  1.0000
  C   C87       1.0  0.81563  0.33602  0.42115  1.0000
  C   C88       1.0  0.83598  0.35633  0.35016  1.0000
  C   C89       1.0  0.84478  0.34104  0.28115  1.0000
  C   C90       1.0  0.83322  0.30612  0.28285  1.0000
  H   H37       1.0  0.63509  0.13058  0.24401  1.0000
  H   H38       1.0  0.69450  0.15028  0.24372  1.0000
  H   H39       1.0  0.64659  0.18636  0.47912  1.0000
  H   H40       1.0  0.70543  0.20533  0.48025  1.0000
  H   H41       1.0  0.78843  0.28720  0.47371  1.0000
  H   H42       1.0  0.80744  0.34598  0.46984  1.0000
  H   H43       1.0  0.83841  0.29545  0.22949  1.0000
  H   H44       1.0  0.85836  0.35494  0.22714  1.0000
  H   H45       1.0  0.85548  0.21122  0.41137  1.0000
  H   H46       1.0  0.88526  0.18110  0.40181  1.0000
  H   H47       1.0  0.80536  0.10481  0.25262  1.0000
  H   H48       1.0  0.77686  0.13622  0.25484  1.0000
  H   H49       1.0  0.74617  0.15264  0.34990  1.0000
  H   H50       1.0  0.74681  0.24435  0.35813  1.0000
  H   H51       1.0  0.83811  0.24482  0.33149  1.0000
  C   C91       1.0  0.79658  0.54613  0.34668  1.0000
  C   C92       1.0  0.81404  0.58162  0.33794  1.0000
  C   C93       1.0  0.79670  0.60004  0.33227  1.0000
  C   C94       1.0  0.76087  0.58162  0.33387  1.0000
  C   C95       1.0  0.74269  0.54614  0.34303  1.0000
  C   C96       1.0  0.76101  0.52894  0.34809  1.0000
  C   C97       1.0  0.81486  0.63622  0.32749  1.0000
  C   C98       1.0  0.84422  0.65385  0.27410  1.0000
  C   C99       1.0  0.86220  0.68934  0.27022  1.0000
  C   C100      1.0  0.85122  0.70849  0.31893  1.0000
  C   C101      1.0  0.82229  0.69126  0.37335  1.0000
  C   C102      1.0  0.80444  0.65577  0.37737  1.0000
  C   C103      1.0  0.81338  0.52710  0.35379  1.0000
  C   C104      1.0  0.83528  0.52809  0.28558  1.0000
  C   C105      1.0  0.84646  0.50445  0.28412  1.0000
  C   C106      1.0  0.83656  0.47971  0.35180  1.0000
  C   C107      1.0  0.81548  0.47934  0.42129  1.0000
  C   C108      1.0  0.80434  0.50287  0.42269  1.0000
  C   C109      1.0  0.70681  0.52715  0.34768  1.0000
  C   C110      1.0  0.69097  0.50330  0.41711  1.0000
  C   C111      1.0  0.65625  0.47999  0.41454  1.0000
  C   C112      1.0  0.63614  0.48024  0.34329  1.0000
  C   C113      1.0  0.65161  0.50457  0.27491  1.0000
  C   C114      1.0  0.68648  0.52801  0.27759  1.0000
  H   H52       1.0  0.86060  0.50440  0.23112  1.0000
  H   H53       1.0  0.84125  0.54439  0.23291  1.0000
  H   H54       1.0  0.80653  0.46075  0.46887  1.0000
  H   H55       1.0  0.78789  0.50086  0.47195  1.0000
  H   H56       1.0  0.70495  0.50151  0.46808  1.0000
  H   H57       1.0  0.64612  0.46175  0.46297  1.0000
  H   H58       1.0  0.69729  0.54403  0.22458  1.0000
  H   H59       1.0  0.63785  0.50441  0.22076  1.0000
  H   H60       1.0  0.78392  0.64435  0.41872  1.0000
  H   H61       1.0  0.81389  0.70444  0.41021  1.0000
  H   H62       1.0  0.88335  0.70111  0.23110  1.0000
  H   H63       1.0  0.85261  0.64094  0.23611  1.0000
  H   H64       1.0  0.83985  0.59423  0.33954  1.0000
  H   H65       1.0  0.74806  0.50311  0.35163  1.0000
  H   H66       1.0  0.74765  0.59416  0.32927  1.0000
  C   C115      1.0  0.23034  0.11191  0.40802  1.0000
  C   C116      1.0  0.19497  0.09443  0.41035  1.0000
  H   H67       1.0  0.18332  0.08705  0.47131  1.0000
  H   H68       1.0  0.24319  0.11624  0.46715  1.0000
  C   C117      1.0  0.87177  0.10971  0.40194  1.0000
  C   C118      1.0  0.88959  0.09215  0.40365  1.0000
  H   H69       1.0  0.89340  0.08417  0.46427  1.0000
  H   H70       1.0  0.86284  0.11348  0.46111  1.0000
  C   C119      1.0  0.88883  0.76250  0.38911  1.0000
  C   C120      1.0  0.90648  0.79790  0.38963  1.0000
  H   H71       1.0  0.92063  0.81018  0.44470  1.0000
  H   H72       1.0  0.89063  0.75003  0.44384  1.0000
  C   C121      1.0  0.53971  0.14996  0.35665  1.0000
  C   C122      1.0  0.60156  0.14952  0.35641  1.0000
  C   C123      1.0  0.57532  0.12823  0.41655  1.0000
  C   C124      1.0  0.54438  0.12846  0.41669  1.0000
  N   N7        1.0  0.57842  0.10639  0.47829  1.0000
  N   N8        1.0  0.51938  0.10690  0.47869  1.0000
  O   O13       1.0  0.59960  0.12191  0.53881  1.0000
  O   O14       1.0  0.49208  0.08674  0.44102  1.0000
  O   O15       1.0  0.58525  0.08604  0.44039  1.0000
  O   O16       1.0  0.51403  0.12270  0.53904  1.0000
  C   C125      1.0  0.84218  0.38989  0.34267  1.0000
  C   C126      1.0  0.84236  0.45212  0.34375  1.0000
  C   C127      1.0  0.86438  0.44745  0.40177  1.0000
  C   C128      1.0  0.86431  0.41635  0.40120  1.0000
  N   N9        1.0  0.88679  0.47261  0.46221  1.0000
  N   N10       1.0  0.88682  0.41336  0.46071  1.0000
  O   O17       1.0  0.87182  0.47835  0.52408  1.0000
  O   O18       1.0  0.90644  0.40600  0.42089  1.0000
  O   O19       1.0  0.90667  0.49971  0.42323  1.0000
  O   O20       1.0  0.87205  0.39272  0.52287  1.0000
  C   C129      1.0  0.60262  0.45289  0.33481  1.0000
  C   C130      1.0  0.54040  0.39087  0.33502  1.0000
  C   C131      1.0  0.54470  0.41778  0.39165  1.0000
  C   C132      1.0  0.57582  0.44878  0.39158  1.0000
  N   N11       1.0  0.51913  0.41531  0.45007  1.0000
  N   N12       1.0  0.57856  0.47444  0.45012  1.0000
  O   O21       1.0  0.51303  0.39504  0.51333  1.0000
  O   O22       1.0  0.58612  0.50131  0.40945  1.0000
  O   O23       1.0  0.49227  0.40781  0.40939  1.0000
  O   O24       1.0  0.59897  0.48046  0.51296  1.0000
