data_image0
_chemical_formula_structural       C12H6CH2C2H4C12H6CH2C2H4C12H6CH2C2H4NC2OCH3NHNC2OCH3NHNC2OCH3NHNC2OCH3NHNC2OCH3NHNC2OCH3NHC12H6C2H6C14H6C2H6C14H6C2H6C3NCOCH3NHCNCOCH3NHCNCOCH3NHCNCOCH3NHCNCOCH3NHCNCOCH3NH
_chemical_formula_sum              "C129 H120 N24 O12"
_cell_length_a       34.0051
_cell_length_b       34.0052
_cell_length_c       15.0133
_cell_angle_alpha    90
_cell_angle_beta     90
_cell_angle_gamma    120

_space_group_name_H-M_alt    "P 1"
_space_group_IT_number       1

loop_
  _space_group_symop_operation_xyz
  'x, y, z'

loop_
  _atom_site_type_symbol
  _atom_site_label
  _atom_site_symmetry_multiplicity
  _atom_site_fract_x
  _atom_site_fract_y
  _atom_site_fract_z
  _atom_site_occupancy
  C   C1        1.0  0.96893  0.51126  0.27834  1.0000
  C   C2        1.0  0.97107  0.51314  0.18384  1.0000
  C   C3        1.0  0.02766  0.48603  0.18385  1.0000
  C   C4        1.0  0.02977  0.48788  0.27835  1.0000
  C   C5        1.0  0.06228  0.47956  0.32094  1.0000
  C   C6        1.0  0.09143  0.46914  0.27206  1.0000
  C   C7        1.0  0.08546  0.46355  0.17915  1.0000
  C   C8        1.0  0.05441  0.47243  0.13535  1.0000
  C   C9        1.0  0.94431  0.52670  0.13531  1.0000
  C   C10       1.0  0.91324  0.53557  0.17910  1.0000
  C   C11       1.0  0.90725  0.52997  0.27200  1.0000
  C   C12       1.0  0.93642  0.51957  0.32091  1.0000
  H   H1        1.0  0.06597  0.58284  0.27636  1.0000
  H   H2        1.0  0.93271  0.41632  0.27625  1.0000
  H   H3        1.0  0.10489  0.45458  0.14207  1.0000
  H   H4        1.0  0.05262  0.47041  0.06727  1.0000
  H   H5        1.0  0.94614  0.52878  0.06724  1.0000
  H   H6        1.0  0.89384  0.54458  0.14201  1.0000
  C   C13       1.0  0.99937  0.49958  0.13221  1.0000
  H   H7        1.0  0.02200  0.52812  0.08954  1.0000
  H   H8        1.0  0.97674  0.47105  0.08953  1.0000
  C   C14       1.0  0.86857  0.53160  0.31432  1.0000
  C   C15       1.0  0.13011  0.46753  0.31439  1.0000
  H   H9        1.0  0.12819  0.69255  0.36892  1.0000
  H   H10       1.0  0.12821  0.65964  0.27794  1.0000
  H   H11       1.0  0.87045  0.33953  0.27774  1.0000
  H   H12       1.0  0.87043  0.30657  0.36866  1.0000
  C   C16       1.0  0.48764  0.45745  0.27837  1.0000
  C   C17       1.0  0.48574  0.45770  0.18387  1.0000
  C   C18       1.0  0.51287  0.54140  0.18384  1.0000
  C   C19       1.0  0.51103  0.54168  0.27834  1.0000
  C   C20       1.0  0.51935  0.58251  0.32090  1.0000
  C   C21       1.0  0.52978  0.62208  0.27199  1.0000
  C   C22       1.0  0.53539  0.62170  0.17909  1.0000
  C   C23       1.0  0.52646  0.58174  0.13531  1.0000
  C   C24       1.0  0.47218  0.41736  0.13537  1.0000
  C   C25       1.0  0.46333  0.37744  0.17917  1.0000
  C   C26       1.0  0.46893  0.37706  0.27208  1.0000
  C   C27       1.0  0.47933  0.41663  0.32096  1.0000
  H   H13       1.0  0.41608  0.48294  0.27637  1.0000
  H   H14       1.0  0.58259  0.51619  0.27626  1.0000
  H   H15       1.0  0.54432  0.65007  0.14197  1.0000
  H   H16       1.0  0.52847  0.58196  0.06723  1.0000
  H   H17       1.0  0.47009  0.41711  0.06729  1.0000
  H   H18       1.0  0.45432  0.34902  0.14210  1.0000
  C   C28       1.0  0.49929  0.49954  0.13222  1.0000
  H   H19       1.0  0.47074  0.49364  0.08957  1.0000
  H   H20       1.0  0.52781  0.50543  0.08951  1.0000
  C   C29       1.0  0.46732  0.33677  0.31442  1.0000
  C   C30       1.0  0.53140  0.66239  0.31428  1.0000
  H   H21       1.0  0.30636  0.43545  0.36893  1.0000
  H   H22       1.0  0.33927  0.46838  0.27795  1.0000
  H   H23       1.0  0.65937  0.53070  0.27775  1.0000
  H   H24       1.0  0.69234  0.56366  0.36865  1.0000
  C   C31       1.0  0.54143  0.03000  0.27833  1.0000
  C   C32       1.0  0.54116  0.02787  0.18383  1.0000
  C   C33       1.0  0.45747  0.97127  0.18386  1.0000
  C   C34       1.0  0.45721  0.96914  0.27836  1.0000
  C   C35       1.0  0.41639  0.93663  0.32095  1.0000
  C   C36       1.0  0.37682  0.90748  0.27207  1.0000
  C   C37       1.0  0.37718  0.91346  0.17916  1.0000
  C   C38       1.0  0.41713  0.94448  0.13535  1.0000
  C   C39       1.0  0.58149  0.05464  0.13530  1.0000
  C   C40       1.0  0.62144  0.08566  0.17908  1.0000
  C   C41       1.0  0.62182  0.09166  0.27198  1.0000
  C   C42       1.0  0.58227  0.06249  0.32090  1.0000
  H   H25       1.0  0.51594  0.93294  0.27626  1.0000
  H   H26       1.0  0.48270  0.06620  0.27636  1.0000
  H   H27       1.0  0.34879  0.89403  0.14208  1.0000
  H   H28       1.0  0.41688  0.94632  0.06728  1.0000
  H   H29       1.0  0.58173  0.05279  0.06723  1.0000
  H   H30       1.0  0.64984  0.10508  0.14198  1.0000
  C   C43       1.0  0.49931  0.99956  0.13220  1.0000
  H   H31       1.0  0.50522  0.97693  0.08954  1.0000
  H   H32       1.0  0.49339  0.02218  0.08952  1.0000
  C   C44       1.0  0.66213  0.13034  0.31429  1.0000
  C   C45       1.0  0.33652  0.86880  0.31440  1.0000
  H   H33       1.0  0.56343  0.87068  0.36865  1.0000
  H   H34       1.0  0.53048  0.87069  0.27774  1.0000
  H   H35       1.0  0.46815  0.12846  0.27794  1.0000
  H   H36       1.0  0.43523  0.12845  0.36891  1.0000
  N   N1        1.0  0.28141  0.50607  0.27190  1.0000
  C   C46       1.0  0.24364  0.50560  0.24147  1.0000
  C   C47       1.0  0.21297  0.50524  0.30577  1.0000
  O   O1        1.0  0.24335  0.51182  0.15124  1.0000
  C   C48       1.0  0.20176  0.48668  0.10275  1.0000
  H   H37       1.0  0.20986  0.48674  0.03257  1.0000
  H   H38       1.0  0.18179  0.50351  0.10848  1.0000
  H   H39       1.0  0.18206  0.45145  0.12512  1.0000
  N   N2        1.0  0.17359  0.50678  0.28274  1.0000
  H   H40       1.0  0.17680  0.53649  0.30714  1.0000
  N   N3        1.0  0.49283  0.77514  0.27167  1.0000
  C   C49       1.0  0.49328  0.73783  0.24125  1.0000
  C   C50       1.0  0.49372  0.70756  0.30556  1.0000
  O   O2        1.0  0.48731  0.73144  0.15094  1.0000
  C   C51       1.0  0.51237  0.71482  0.10269  1.0000
  H   H41       1.0  0.51251  0.72294  0.03250  1.0000
  H   H42       1.0  0.49534  0.67801  0.10833  1.0000
  H   H43       1.0  0.54753  0.73016  0.12538  1.0000
  N   N4        1.0  0.49217  0.66663  0.28260  1.0000
  H   H44       1.0  0.46245  0.64015  0.30700  1.0000
  N   N5        1.0  0.22376  0.71750  0.27188  1.0000
  C   C52       1.0  0.26107  0.75527  0.24146  1.0000
  C   C53       1.0  0.29138  0.78594  0.30576  1.0000
  O   O3        1.0  0.26758  0.75556  0.15123  1.0000
  C   C54       1.0  0.28403  0.79716  0.10274  1.0000
  H   H45       1.0  0.27600  0.78906  0.03255  1.0000
  H   H46       1.0  0.32082  0.81713  0.10848  1.0000
  H   H47       1.0  0.26849  0.81685  0.12512  1.0000
  N   N6        1.0  0.33229  0.82532  0.28274  1.0000
  H   H48       1.0  0.35879  0.82210  0.30713  1.0000
  N   N7        1.0  0.71725  0.49304  0.27171  1.0000
  C   C55       1.0  0.75501  0.49348  0.24130  1.0000
  C   C56       1.0  0.78572  0.49393  0.30562  1.0000
  O   O4        1.0  0.75543  0.48749  0.15100  1.0000
  C   C57       1.0  0.79710  0.51259  0.10275  1.0000
  H   H49       1.0  0.78912  0.51272  0.03255  1.0000
  H   H50       1.0  0.81692  0.49559  0.10839  1.0000
  H   H51       1.0  0.81690  0.54775  0.12542  1.0000
  N   N8        1.0  0.82509  0.49237  0.28266  1.0000
  H   H52       1.0  0.82186  0.46265  0.30708  1.0000
  N   N9        1.0  0.50586  0.22401  0.27190  1.0000
  C   C58       1.0  0.50539  0.26132  0.24148  1.0000
  C   C59       1.0  0.50503  0.29163  0.30578  1.0000
  O   O5        1.0  0.51161  0.26783  0.15125  1.0000
  C   C60       1.0  0.48644  0.28425  0.10276  1.0000
  H   H53       1.0  0.48651  0.27623  0.03258  1.0000
  H   H54       1.0  0.50325  0.32105  0.10850  1.0000
  H   H55       1.0  0.45121  0.26871  0.12516  1.0000
  N   N10       1.0  0.50657  0.33254  0.28276  1.0000
  H   H56       1.0  0.53628  0.35904  0.30716  1.0000
  N   N11       1.0  0.77490  0.28166  0.27168  1.0000
  C   C61       1.0  0.73758  0.24390  0.24127  1.0000
  C   C62       1.0  0.70732  0.21319  0.30558  1.0000
  O   O6        1.0  0.73119  0.24348  0.15096  1.0000
  C   C63       1.0  0.71459  0.20180  0.10272  1.0000
  H   H57       1.0  0.72271  0.20977  0.03253  1.0000
  H   H58       1.0  0.67778  0.18199  0.10835  1.0000
  H   H59       1.0  0.72995  0.18199  0.12542  1.0000
  N   N12       1.0  0.66639  0.17382  0.28261  1.0000
  H   H60       1.0  0.63990  0.17706  0.30702  1.0000
  C   C64       1.0  0.96892  0.45744  0.38652  1.0000
  C   C65       1.0  0.97103  0.45769  0.48102  1.0000
  C   C66       1.0  0.02761  0.54139  0.48107  1.0000
  C   C67       1.0  0.02975  0.54166  0.38658  1.0000
  C   C68       1.0  0.05437  0.58171  0.52963  1.0000
  C   C69       1.0  0.08543  0.62166  0.48587  1.0000
  C   C70       1.0  0.09142  0.62206  0.39296  1.0000
  C   C71       1.0  0.06227  0.58250  0.34403  1.0000
  C   C72       1.0  0.93643  0.41661  0.34391  1.0000
  C   C73       1.0  0.90725  0.37704  0.39279  1.0000
  C   C74       1.0  0.91322  0.37741  0.48570  1.0000
  C   C75       1.0  0.94429  0.41734  0.52951  1.0000
  H   H61       1.0  0.89379  0.34901  0.52276  1.0000
  H   H62       1.0  0.94607  0.41709  0.59759  1.0000
  H   H63       1.0  0.05253  0.58195  0.59770  1.0000
  H   H64       1.0  0.10482  0.65006  0.52297  1.0000
  H   H65       1.0  0.06596  0.48292  0.38862  1.0000
  H   H66       1.0  0.93270  0.51618  0.38857  1.0000
  C   C76       1.0  0.99934  0.49956  0.33245  1.0000
  C   C77       1.0  0.99931  0.49953  0.53269  1.0000
  H   H67       1.0  0.97667  0.50542  0.57536  1.0000
  H   H68       1.0  0.02194  0.49362  0.57537  1.0000
  H   H69       1.0  0.87047  0.56366  0.29608  1.0000
  H   H70       1.0  0.87045  0.53073  0.38703  1.0000
  H   H71       1.0  0.12824  0.43547  0.29616  1.0000
  H   H72       1.0  0.12822  0.46840  0.38710  1.0000
  C   C78       1.0  0.13009  0.66238  0.35066  1.0000
  C   C79       1.0  0.86856  0.33676  0.35046  1.0000
  C   C80       1.0  0.54146  0.51127  0.38653  1.0000
  C   C81       1.0  0.54122  0.51315  0.48103  1.0000
  C   C82       1.0  0.45752  0.48603  0.48109  1.0000
  C   C83       1.0  0.45724  0.48789  0.38659  1.0000
  C   C84       1.0  0.41719  0.47246  0.52964  1.0000
  C   C85       1.0  0.37725  0.46357  0.48588  1.0000
  C   C86       1.0  0.37685  0.46916  0.39297  1.0000
  C   C87       1.0  0.41640  0.47956  0.34404  1.0000
  C   C88       1.0  0.58228  0.51957  0.34392  1.0000
  C   C89       1.0  0.62187  0.53001  0.39279  1.0000
  C   C90       1.0  0.62151  0.53565  0.48569  1.0000
  C   C91       1.0  0.58157  0.52674  0.52951  1.0000
  H   H73       1.0  0.64990  0.54458  0.52278  1.0000
  H   H74       1.0  0.58181  0.52876  0.59759  1.0000
  H   H75       1.0  0.41696  0.47038  0.59771  1.0000
  H   H76       1.0  0.34885  0.45456  0.52298  1.0000
  H   H77       1.0  0.51599  0.58284  0.38857  1.0000
  H   H78       1.0  0.48273  0.41633  0.38862  1.0000
  C   C92       1.0  0.49934  0.49957  0.33246  1.0000
  C   C93       1.0  0.49938  0.49957  0.53270  1.0000
  H   H79       1.0  0.49348  0.47103  0.57533  1.0000
  H   H80       1.0  0.50528  0.52810  0.57541  1.0000
  H   H81       1.0  0.43527  0.30659  0.29620  1.0000
  H   H82       1.0  0.46820  0.33954  0.38713  1.0000
  H   H83       1.0  0.56346  0.69256  0.29606  1.0000
  H   H84       1.0  0.53052  0.65964  0.38700  1.0000
  C   C94       1.0  0.33653  0.46751  0.35068  1.0000
  C   C95       1.0  0.66215  0.53160  0.35046  1.0000
  C   C96       1.0  0.48764  0.02998  0.38657  1.0000
  C   C97       1.0  0.48578  0.02784  0.48107  1.0000
  C   C98       1.0  0.51292  0.97128  0.48102  1.0000
  C   C99       1.0  0.51103  0.96915  0.38652  1.0000
  C   C100      1.0  0.52650  0.94451  0.52951  1.0000
  C   C101      1.0  0.53540  0.91348  0.48570  1.0000
  C   C102      1.0  0.52975  0.90748  0.39280  1.0000
  C   C103      1.0  0.51935  0.93664  0.34392  1.0000
  C   C104      1.0  0.47928  0.06247  0.34401  1.0000
  C   C105      1.0  0.46891  0.09165  0.39294  1.0000
  C   C106      1.0  0.46335  0.08567  0.48586  1.0000
  C   C107      1.0  0.47220  0.05460  0.52962  1.0000
  H   H85       1.0  0.45437  0.10509  0.52297  1.0000
  H   H86       1.0  0.47019  0.05280  0.59770  1.0000
  H   H87       1.0  0.52858  0.94634  0.59759  1.0000
  H   H88       1.0  0.54437  0.89405  0.52277  1.0000
  H   H89       1.0  0.41608  0.93294  0.38862  1.0000
  H   H90       1.0  0.58258  0.06622  0.38856  1.0000
  C   C108      1.0  0.49933  0.99957  0.33245  1.0000
  C   C109      1.0  0.49936  0.99956  0.53268  1.0000
  H   H91       1.0  0.52791  0.02221  0.57534  1.0000
  H   H92       1.0  0.47084  0.97693  0.57538  1.0000
  H   H93       1.0  0.69230  0.12844  0.29607  1.0000
  H   H94       1.0  0.65937  0.12846  0.38701  1.0000
  H   H95       1.0  0.30634  0.87067  0.29618  1.0000
  H   H96       1.0  0.33929  0.87068  0.38711  1.0000
  C   C110      1.0  0.53137  0.86880  0.35045  1.0000
  C   C111      1.0  0.46729  0.13034  0.35066  1.0000
  C   C112      1.0  0.29135  0.50520  0.35934  1.0000
  N   N13       1.0  0.22376  0.50609  0.39322  1.0000
  C   C113      1.0  0.26111  0.50570  0.42363  1.0000
  O   O7        1.0  0.26741  0.51151  0.51399  1.0000
  C   C114      1.0  0.28407  0.48646  0.56212  1.0000
  H   H97       1.0  0.27590  0.48621  0.63231  1.0000
  H   H98       1.0  0.32090  0.50356  0.55655  1.0000
  H   H99       1.0  0.26881  0.45134  0.53926  1.0000
  N   N14       1.0  0.33228  0.50675  0.38232  1.0000
  H   H100      1.0  0.35877  0.53646  0.35790  1.0000
  C   C115      1.0  0.49368  0.78595  0.35910  1.0000
  N   N15       1.0  0.49285  0.71751  0.39300  1.0000
  C   C116      1.0  0.49331  0.75528  0.42343  1.0000
  O   O8        1.0  0.48710  0.75559  0.51366  1.0000
  C   C117      1.0  0.51227  0.79720  0.56211  1.0000
  H   H101      1.0  0.51222  0.78912  0.63230  1.0000
  H   H102      1.0  0.49543  0.81716  0.55638  1.0000
  H   H103      1.0  0.54749  0.81690  0.53970  1.0000
  N   N16       1.0  0.49213  0.82532  0.38212  1.0000
  H   H104      1.0  0.46241  0.82210  0.35772  1.0000
  C   C118      1.0  0.21295  0.70756  0.35932  1.0000
  N   N17       1.0  0.28143  0.77514  0.39321  1.0000
  C   C119      1.0  0.24370  0.73780  0.42362  1.0000
  O   O9        1.0  0.24322  0.73150  0.51397  1.0000
  C   C120      1.0  0.20150  0.71483  0.56211  1.0000
  H   H105      1.0  0.20942  0.72299  0.63230  1.0000
  H   H106      1.0  0.18178  0.67800  0.55654  1.0000
  H   H107      1.0  0.18163  0.73009  0.53926  1.0000
  N   N18       1.0  0.17358  0.66663  0.38230  1.0000
  H   H108      1.0  0.17680  0.64014  0.35787  1.0000
  C   C121      1.0  0.70730  0.49389  0.35916  1.0000
  N   N19       1.0  0.77490  0.49306  0.39306  1.0000
  C   C122      1.0  0.73760  0.49353  0.42348  1.0000
  O   O10       1.0  0.73109  0.48733  0.51371  1.0000
  C   C123      1.0  0.71462  0.51248  0.56216  1.0000
  H   H109      1.0  0.72267  0.51245  0.63235  1.0000
  H   H110      1.0  0.67782  0.49563  0.55643  1.0000
  H   H111      1.0  0.73013  0.54770  0.53974  1.0000
  N   N20       1.0  0.66638  0.49236  0.38216  1.0000
  H   H112      1.0  0.63988  0.46264  0.35778  1.0000
  C   C124      1.0  0.50499  0.21319  0.35934  1.0000
  N   N21       1.0  0.50589  0.28168  0.39323  1.0000
  C   C125      1.0  0.50549  0.24394  0.42364  1.0000
  O   O11       1.0  0.51131  0.24346  0.51399  1.0000
  C   C126      1.0  0.48627  0.20174  0.56213  1.0000
  H   H113      1.0  0.48602  0.20966  0.63232  1.0000
  H   H114      1.0  0.50338  0.18203  0.55656  1.0000
  H   H115      1.0  0.45114  0.18187  0.53928  1.0000
  N   N22       1.0  0.50653  0.17381  0.38232  1.0000
  H   H116      1.0  0.53624  0.17704  0.35788  1.0000
  C   C127      1.0  0.78571  0.29162  0.35912  1.0000
  N   N23       1.0  0.71727  0.22402  0.39302  1.0000
  C   C128      1.0  0.75504  0.26132  0.42344  1.0000
  O   O12       1.0  0.75535  0.26784  0.51367  1.0000
  C   C129      1.0  0.79695  0.28428  0.56213  1.0000
  H   H117      1.0  0.78888  0.27625  0.63232  1.0000
  H   H118      1.0  0.81692  0.32108  0.55640  1.0000
  H   H119      1.0  0.81665  0.26876  0.53971  1.0000
  N   N24       1.0  0.82509  0.33253  0.38212  1.0000
  H   H120      1.0  0.82187  0.35903  0.35772  1.0000
