data_image0
_chemical_formula_structural       C2HNHC6H4C4H3C2HNH2NC12H8C6H2C3H2C3H2CH2C3NH2C4HNH2NH3C2H3NC18H12CHC5HNH
_chemical_formula_sum              "C72 H54 N8"
_cell_length_a       32.2787
_cell_length_b       32.2787
_cell_length_c       14.4967
_cell_angle_alpha    90
_cell_angle_beta     90
_cell_angle_gamma    120

_space_group_name_H-M_alt    "P 1"
_space_group_IT_number       1

loop_
  _space_group_symop_operation_xyz
  'x, y, z'

loop_
  _atom_site_type_symbol
  _atom_site_label
  _atom_site_symmetry_multiplicity
  _atom_site_fract_x
  _atom_site_fract_y
  _atom_site_fract_z
  _atom_site_occupancy
  C   C1        1.0  0.12905  0.60680  0.38551  1.0000
  C   C2        1.0  0.07831  0.58296  0.38672  1.0000
  H   H1        1.0  0.14785  0.64242  0.40193  1.0000
  N   N1        1.0  0.05653  0.60826  0.41044  1.0000
  H   H2        1.0  0.07502  0.64206  0.42623  1.0000
  C   C3        1.0  0.30845  0.65882  0.35978  1.0000
  C   C4        1.0  0.28235  0.62952  0.28471  1.0000
  C   C5        1.0  0.23193  0.60442  0.28526  1.0000
  C   C6        1.0  0.20592  0.60836  0.36026  1.0000
  C   C7        1.0  0.23249  0.63800  0.43517  1.0000
  C   C8        1.0  0.28289  0.66256  0.43524  1.0000
  H   H3        1.0  0.30007  0.62637  0.22908  1.0000
  H   H4        1.0  0.21431  0.58403  0.22902  1.0000
  H   H5        1.0  0.30100  0.68340  0.49066  1.0000
  H   H6        1.0  0.21528  0.64135  0.49152  1.0000
  C   C9        1.0  0.15462  0.58344  0.36032  1.0000
  C   C10       1.0  0.05208  0.53357  0.36265  1.0000
  C   C11       1.0  0.07735  0.51008  0.33689  1.0000
  C   C12       1.0  0.12767  0.53463  0.33540  1.0000
  H   H7        1.0  0.05923  0.47450  0.32000  1.0000
  H   H8        1.0  0.14455  0.51602  0.31807  1.0000
  H   H9        1.0  0.03180  0.51299  0.53883  1.0000
  C   C13       1.0  0.43660  0.53093  0.38555  1.0000
  C   C14       1.0  0.46044  0.50404  0.38676  1.0000
  H   H10       1.0  0.40098  0.51412  0.40197  1.0000
  N   N2        1.0  0.43515  0.45696  0.41050  1.0000
  H   H11       1.0  0.40135  0.44166  0.42631  1.0000
  H   H12       1.0  0.44958  0.43680  0.41092  1.0000
  N   N3        1.0  0.35937  0.68402  0.35943  1.0000
  C   C15       1.0  0.38457  0.65831  0.35978  1.0000
  C   C16       1.0  0.38508  0.73493  0.35978  1.0000
  C   C17       1.0  0.41386  0.66150  0.28471  1.0000
  C   C18       1.0  0.43896  0.63617  0.28527  1.0000
  C   C19       1.0  0.43503  0.60625  0.36027  1.0000
  C   C20       1.0  0.40540  0.60317  0.43519  1.0000
  C   C21       1.0  0.38083  0.62902  0.43525  1.0000
  C   C22       1.0  0.41438  0.76049  0.43524  1.0000
  C   C23       1.0  0.44023  0.81089  0.43517  1.0000
  C   C24       1.0  0.43715  0.83746  0.36027  1.0000
  C   C25       1.0  0.40723  0.81146  0.28526  1.0000
  C   C26       1.0  0.38188  0.76104  0.28471  1.0000
  H   H13       1.0  0.45936  0.63896  0.22903  1.0000
  H   H14       1.0  0.41701  0.68238  0.22908  1.0000
  H   H15       1.0  0.35999  0.62628  0.49066  1.0000
  H   H16       1.0  0.40204  0.58262  0.49153  1.0000
  H   H17       1.0  0.41711  0.74238  0.49066  1.0000
  H   H18       1.0  0.46078  0.82810  0.49153  1.0000
  H   H19       1.0  0.40441  0.82908  0.22905  1.0000
  H   H20       1.0  0.36100  0.74331  0.22909  1.0000
  C   C27       1.0  0.45995  0.57986  0.36034  1.0000
  C   C28       1.0  0.50983  0.52720  0.36267  1.0000
  C   C29       1.0  0.50876  0.60172  0.33541  1.0000
  C   C30       1.0  0.46353  0.88877  0.36034  1.0000
  C   C31       1.0  0.46743  0.96603  0.33695  1.0000
  C   C32       1.0  0.44166  0.91571  0.33545  1.0000
  H   H21       1.0  0.44996  0.98415  0.32008  1.0000
  H   H22       1.0  0.40617  0.89883  0.31814  1.0000
  C   C33       1.0  0.51247  0.91434  0.38551  1.0000
  C   C34       1.0  0.54598  0.48673  0.28220  1.0000
  C   C35       1.0  0.57140  0.46182  0.28118  1.0000
  H   H23       1.0  0.53320  0.49182  0.22110  1.0000
  H   H24       1.0  0.57561  0.44923  0.21918  1.0000
  C   C36       1.0  0.53936  0.96507  0.38671  1.0000
  C   C37       1.0  0.55658  0.06793  0.28220  1.0000
  C   C38       1.0  0.58148  0.11825  0.28118  1.0000
  H   H25       1.0  0.55142  0.05005  0.22108  1.0000
  H   H26       1.0  0.52929  0.89553  0.40190  1.0000
  C   C39       1.0  0.53331  0.57596  0.33690  1.0000
  H   H27       1.0  0.56890  0.59342  0.32000  1.0000
  H   H28       1.0  0.52737  0.63721  0.31807  1.0000
  C   C40       1.0  0.53709  0.50343  0.36576  1.0000
  C   C41       1.0  0.58067  0.47034  0.44654  1.0000
  C   C42       1.0  0.55468  0.49510  0.44972  1.0000
  N   N4        1.0  0.54767  0.51016  0.53297  1.0000
  H   H29       1.0  0.53054  0.52763  0.53880  1.0000
  H   H30       1.0  0.55984  0.50403  0.58972  1.0000
  C   C43       1.0  0.51619  0.99130  0.36268  1.0000
  C   C44       1.0  0.53996  0.04233  0.36578  1.0000
  C   C45       1.0  0.57314  0.11901  0.44658  1.0000
  C   C46       1.0  0.54839  0.06826  0.44975  1.0000
  H   H31       1.0  0.57793  0.13727  0.50698  1.0000
  N   N5        1.0  0.53341  0.04619  0.53303  1.0000
  H   H32       1.0  0.51594  0.01158  0.53887  1.0000
  H   H33       1.0  0.53960  0.06449  0.58980  1.0000
  N   N6        1.0  0.58645  0.98686  0.41040  1.0000
  H   H34       1.0  0.59400  0.13504  0.21915  1.0000
  H   H35       1.0  0.60176  0.96836  0.42617  1.0000
  H   H36       1.0  0.60661  0.02145  0.41080  1.0000
  C   C47       1.0  0.97545  0.49735  0.28217  1.0000
  C   C48       1.0  0.92513  0.47193  0.28115  1.0000
  H   H37       1.0  0.99333  0.51009  0.22106  1.0000
  H   H38       1.0  0.90834  0.46768  0.21914  1.0000
  H   H39       1.0  0.02194  0.59384  0.41084  1.0000
  N   N7        1.0  0.69269  0.35069  0.35987  1.0000
  C   C49       1.0  0.66701  0.37597  0.36057  1.0000
  C   C50       1.0  0.66742  0.29973  0.36057  1.0000
  C   C51       1.0  0.74366  0.37638  0.36056  1.0000
  C   C52       1.0  0.76916  0.40717  0.43428  1.0000
  C   C53       1.0  0.81956  0.43279  0.43460  1.0000
  C   C54       1.0  0.84655  0.42804  0.36225  1.0000
  C   C55       1.0  0.82033  0.39663  0.28893  1.0000
  C   C56       1.0  0.76991  0.37161  0.28764  1.0000
  C   C57       1.0  0.63625  0.37071  0.43433  1.0000
  C   C58       1.0  0.61062  0.39548  0.43464  1.0000
  C   C59       1.0  0.61535  0.42720  0.36226  1.0000
  C   C60       1.0  0.64673  0.43235  0.28891  1.0000
  C   C61       1.0  0.67175  0.40696  0.28762  1.0000
  C   C62       1.0  0.63639  0.27347  0.28767  1.0000
  C   C63       1.0  0.61099  0.22305  0.28897  1.0000
  C   C64       1.0  0.61619  0.19683  0.36228  1.0000
  C   C65       1.0  0.64795  0.22382  0.43460  1.0000
  C   C66       1.0  0.67272  0.27422  0.43429  1.0000
  H   H40       1.0  0.58771  0.38936  0.48835  1.0000
  H   H41       1.0  0.63196  0.34826  0.48788  1.0000
  H   H42       1.0  0.69405  0.41164  0.23355  1.0000
  H   H43       1.0  0.65243  0.45544  0.23575  1.0000
  H   H44       1.0  0.75101  0.41149  0.48780  1.0000
  H   H45       1.0  0.83636  0.45575  0.48824  1.0000
  H   H46       1.0  0.63165  0.29108  0.23366  1.0000
  H   H47       1.0  0.58785  0.20567  0.23588  1.0000
  H   H48       1.0  0.65412  0.20703  0.48825  1.0000
  H   H49       1.0  0.69520  0.29238  0.48779  1.0000
  H   H50       1.0  0.75230  0.34928  0.23361  1.0000
  H   H51       1.0  0.83771  0.39090  0.23581  1.0000
  C   C67       1.0  0.58946  0.45292  0.36328  1.0000
  H   H52       1.0  0.59420  0.46561  0.50691  1.0000
  C   C68       1.0  0.59046  0.14521  0.36330  1.0000
  C   C69       1.0  0.00105  0.50631  0.36574  1.0000
  C   C70       1.0  0.89817  0.45394  0.36326  1.0000
  C   C71       1.0  0.92438  0.46279  0.44654  1.0000
  C   C72       1.0  0.97512  0.48878  0.44972  1.0000
  H   H53       1.0  0.90611  0.44930  0.50693  1.0000
  N   N8        1.0  0.99719  0.49585  0.53298  1.0000
  H   H54       1.0  0.97890  0.48372  0.58975  1.0000
