data_image0
_chemical_formula_structural       C16H16C16H16C16H16NC3N3C3N3C3N3C3N3C3N3C3N2C3NC3NC5NC5NC36H26C4H4C3NC3NC5NC5NC36H26C4H4C3NC3NC5NC5NC36H26C4H4CNC2N2CNC2N2CNC2N2CNC2N2CNC2N2CNC2N2
_chemical_formula_sum              "C252 H138 N48"
_cell_length_a       67.5624
_cell_length_b       67.5624
_cell_length_c       14.8423
_cell_angle_alpha    89.7164
_cell_angle_beta     90.2836
_cell_angle_gamma    120

_space_group_name_H-M_alt    "P 1"
_space_group_IT_number       1

loop_
  _space_group_symop_operation_xyz
  'x, y, z'

loop_
  _atom_site_type_symbol
  _atom_site_label
  _atom_site_symmetry_multiplicity
  _atom_site_fract_x
  _atom_site_fract_y
  _atom_site_fract_z
  _atom_site_occupancy
  C   C1        1.0  0.13231  0.68197  0.28543  1.0000
  C   C2        1.0  0.11291  0.65996  0.27967  1.0000
  C   C3        1.0  0.16690  0.73260  0.31278  1.0000
  C   C4        1.0  0.18733  0.75378  0.32117  1.0000
  C   C5        1.0  0.13027  0.54216  0.27968  1.0000
  C   C6        1.0  0.11171  0.54614  0.27610  1.0000
  C   C7        1.0  0.19614  0.54438  0.32536  1.0000
  C   C8        1.0  0.17710  0.54761  0.31885  1.0000
  C   C9        1.0  0.96656  0.47477  0.28013  1.0000
  C   C10       1.0  0.94732  0.45266  0.28610  1.0000
  C   C11       1.0  0.89306  0.38049  0.32017  1.0000
  C   C12       1.0  0.91329  0.40182  0.31145  1.0000
  C   C13       1.0  0.96823  0.58829  0.27642  1.0000
  C   C14       1.0  0.94955  0.59208  0.28007  1.0000
  C   C15       1.0  0.90256  0.58600  0.31933  1.0000
  C   C16       1.0  0.88337  0.58895  0.32587  1.0000
  H   H1        1.0  0.86887  0.57797  0.29117  1.0000
  H   H2        1.0  0.90116  0.57281  0.28103  1.0000
  H   H3        1.0  0.94116  0.59123  0.22137  1.0000
  H   H4        1.0  0.97256  0.58429  0.21594  1.0000
  H   H5        1.0  0.97042  0.48315  0.21950  1.0000
  H   H6        1.0  0.93769  0.44574  0.22931  1.0000
  H   H7        1.0  0.10734  0.55029  0.21564  1.0000
  H   H8        1.0  0.13854  0.54303  0.22096  1.0000
  H   H9        1.0  0.17862  0.56095  0.28072  1.0000
  H   H10       1.0  0.21065  0.55533  0.29078  1.0000
  H   H11       1.0  0.10850  0.65189  0.21857  1.0000
  H   H12       1.0  0.14147  0.68915  0.22798  1.0000
  H   H13       1.0  0.19073  0.76631  0.27467  1.0000
  H   H14       1.0  0.15611  0.73054  0.26054  1.0000
  H   H15       1.0  0.92364  0.40434  0.25738  1.0000
  H   H16       1.0  0.88935  0.36832  0.27201  1.0000
  C   C17       1.0  0.42419  0.54255  0.28752  1.0000
  C   C18       1.0  0.44619  0.54514  0.28207  1.0000
  C   C19       1.0  0.37352  0.52641  0.31400  1.0000
  C   C20       1.0  0.35234  0.52566  0.32199  1.0000
  C   C21       1.0  0.56395  0.68031  0.28323  1.0000
  C   C22       1.0  0.55997  0.65777  0.27957  1.0000
  C   C23       1.0  0.56173  0.74385  0.32901  1.0000
  C   C24       1.0  0.55849  0.72160  0.32252  1.0000
  C   C25       1.0  0.63124  0.58396  0.28259  1.0000
  C   C26       1.0  0.65335  0.58680  0.28821  1.0000
  C   C27       1.0  0.72554  0.60463  0.32088  1.0000
  C   C28       1.0  0.70421  0.60357  0.31262  1.0000
  C   C29       1.0  0.51779  0.47212  0.27985  1.0000
  C   C30       1.0  0.51402  0.44964  0.28357  1.0000
  C   C31       1.0  0.52011  0.40866  0.32295  1.0000
  C   C32       1.0  0.51716  0.38650  0.32954  1.0000
  H   H17       1.0  0.52815  0.38306  0.29484  1.0000
  H   H18       1.0  0.53330  0.42053  0.28463  1.0000
  H   H19       1.0  0.51487  0.44222  0.22489  1.0000
  H   H20       1.0  0.52181  0.48057  0.21936  1.0000
  H   H21       1.0  0.62278  0.57949  0.22215  1.0000
  H   H22       1.0  0.66020  0.58417  0.23130  1.0000
  H   H23       1.0  0.55583  0.64940  0.21908  1.0000
  H   H24       1.0  0.56310  0.68785  0.22452  1.0000
  H   H25       1.0  0.54517  0.70987  0.28425  1.0000
  H   H26       1.0  0.55081  0.74750  0.29436  1.0000
  H   H27       1.0  0.45433  0.54899  0.22111  1.0000
  H   H28       1.0  0.41705  0.54466  0.22994  1.0000
  H   H29       1.0  0.33987  0.51665  0.27525  1.0000
  H   H30       1.0  0.37564  0.51782  0.26179  1.0000
  H   H31       1.0  0.70163  0.61147  0.25856  1.0000
  H   H32       1.0  0.73766  0.61317  0.27250  1.0000
  C   C33       1.0  0.56358  0.97380  0.29039  1.0000
  C   C34       1.0  0.56098  0.99321  0.28479  1.0000
  C   C35       1.0  0.57971  0.93921  0.31722  1.0000
  C   C36       1.0  0.58049  0.91879  0.32535  1.0000
  C   C37       1.0  0.42586  0.97589  0.28407  1.0000
  C   C38       1.0  0.44841  0.99446  0.28089  1.0000
  C   C39       1.0  0.36227  0.90999  0.32832  1.0000
  C   C40       1.0  0.38453  0.92903  0.32230  1.0000
  C   C41       1.0  0.52210  0.13947  0.28533  1.0000
  C   C42       1.0  0.51928  0.15873  0.29111  1.0000
  C   C43       1.0  0.50144  0.21299  0.32426  1.0000
  C   C44       1.0  0.50251  0.19275  0.31587  1.0000
  C   C45       1.0  0.63389  0.13776  0.28110  1.0000
  C   C46       1.0  0.65637  0.15646  0.28440  1.0000
  C   C47       1.0  0.69739  0.20348  0.32278  1.0000
  C   C48       1.0  0.71955  0.22268  0.32892  1.0000
  H   H33       1.0  0.72295  0.23714  0.29398  1.0000
  H   H34       1.0  0.68547  0.20484  0.28457  1.0000
  H   H35       1.0  0.66373  0.16480  0.22554  1.0000
  H   H36       1.0  0.62538  0.13339  0.22073  1.0000
  H   H37       1.0  0.52654  0.13561  0.22480  1.0000
  H   H38       1.0  0.52187  0.16833  0.23423  1.0000
  H   H39       1.0  0.45683  0.99889  0.22054  1.0000
  H   H40       1.0  0.41838  0.96769  0.22519  1.0000
  H   H41       1.0  0.39631  0.92755  0.28422  1.0000
  H   H42       1.0  0.35866  0.89552  0.29351  1.0000
  H   H43       1.0  0.55720  0.99765  0.22375  1.0000
  H   H44       1.0  0.56152  0.96469  0.23281  1.0000
  H   H45       1.0  0.58953  0.91543  0.27874  1.0000
  H   H46       1.0  0.58834  0.95005  0.26509  1.0000
  H   H47       1.0  0.49459  0.18239  0.26181  1.0000
  H   H48       1.0  0.49290  0.21669  0.27593  1.0000
  N   N1        1.0  0.26235  0.53403  0.27190  1.0000
  C   C49       1.0  0.28229  0.53378  0.26461  1.0000
  C   C50       1.0  0.29372  0.53341  0.34426  1.0000
  C   C51       1.0  0.29003  0.53426  0.18411  1.0000
  N   N2        1.0  0.29684  0.53466  0.11299  1.0000
  N   N3        1.0  0.31380  0.53397  0.34212  1.0000
  N   N4        1.0  0.57208  0.82051  0.27552  1.0000
  C   C52       1.0  0.57232  0.84071  0.26818  1.0000
  C   C53       1.0  0.57271  0.85236  0.34779  1.0000
  C   C54       1.0  0.57180  0.84811  0.18765  1.0000
  N   N5        1.0  0.57135  0.85464  0.11652  1.0000
  N   N6        1.0  0.57214  0.87188  0.34559  1.0000
  N   N7        1.0  0.28569  0.84384  0.27319  1.0000
  C   C55       1.0  0.26550  0.82390  0.26540  1.0000
  C   C56       1.0  0.25376  0.81239  0.34475  1.0000
  C   C57       1.0  0.25818  0.81624  0.18470  1.0000
  N   N8        1.0  0.25173  0.80950  0.11341  1.0000
  N   N9        1.0  0.23424  0.79229  0.34212  1.0000
  N   N10       1.0  0.81629  0.59798  0.27315  1.0000
  C   C58       1.0  0.79618  0.59792  0.26587  1.0000
  C   C59       1.0  0.78493  0.59830  0.34550  1.0000
  C   C60       1.0  0.78812  0.59714  0.18540  1.0000
  N   N11       1.0  0.78102  0.59647  0.11433  1.0000
  N   N12       1.0  0.76471  0.59746  0.34338  1.0000
  N   N13       1.0  0.50814  0.31053  0.27678  1.0000
  C   C61       1.0  0.50819  0.29049  0.26945  1.0000
  C   C62       1.0  0.50781  0.27867  0.34904  1.0000
  C   C63       1.0  0.50895  0.28339  0.18895  1.0000
  N   N14       1.0  0.50960  0.27711  0.11786  1.0000
  N   N15       1.0  0.50864  0.25930  0.34687  1.0000
  N   N16       1.0  0.79549  0.28967  0.27447  1.0000
  C   C64       1.0  0.81552  0.30977  0.26670  1.0000
  C   C65       1.0  0.82740  0.32113  0.34605  1.0000
  C   C66       1.0  0.82254  0.31772  0.18605  1.0000
  N   N17       1.0  0.82874  0.32472  0.11480  1.0000
  N   N18       1.0  0.84677  0.34135  0.34347  1.0000
  C   C67       1.0  0.02873  0.62398  0.34942  1.0000
  C   C68       1.0  0.05236  0.63566  0.34983  1.0000
  C   C69       1.0  0.05971  0.61966  0.35266  1.0000
  N   N19       1.0  0.04030  0.59896  0.35366  1.0000
  C   C70       1.0  0.02106  0.60057  0.35222  1.0000
  C   C71       1.0  0.99771  0.58294  0.35380  1.0000
  C   C72       1.0  0.99015  0.55915  0.35559  1.0000
  N   N20       1.0  0.00291  0.54884  0.35255  1.0000
  C   C73       1.0  0.98989  0.52580  0.35607  1.0000
  C   C74       1.0  0.96729  0.52105  0.36189  1.0000
  C   C75       1.0  0.96745  0.54153  0.36141  1.0000
  C   C76       1.0  0.99713  0.50933  0.35460  1.0000
  C   C77       1.0  0.02038  0.51474  0.35257  1.0000
  N   N21       1.0  0.03980  0.53544  0.35388  1.0000
  C   C78       1.0  0.05903  0.53384  0.35202  1.0000
  C   C79       1.0  0.05136  0.51043  0.34873  1.0000
  C   C80       1.0  0.02773  0.49876  0.34910  1.0000
  C   C81       1.0  0.08239  0.55146  0.35351  1.0000
  C   C82       1.0  0.08995  0.57524  0.35520  1.0000
  N   N22       1.0  0.07719  0.58555  0.35243  1.0000
  C   C83       1.0  0.09021  0.60859  0.35571  1.0000
  C   C84       1.0  0.11283  0.61334  0.36092  1.0000
  C   C85       1.0  0.11267  0.59285  0.36054  1.0000
  C   C86       1.0  0.08296  0.62506  0.35455  1.0000
  C   C87       1.0  0.10046  0.64857  0.35776  1.0000
  C   C88       1.0  0.10761  0.65990  0.44135  1.0000
  C   C89       1.0  0.12700  0.68188  0.44681  1.0000
  C   C90       1.0  0.14006  0.69324  0.36936  1.0000
  C   C91       1.0  0.16088  0.71481  0.37654  1.0000
  C   C92       1.0  0.20260  0.75793  0.39368  1.0000
  C   C93       1.0  0.19678  0.74010  0.45676  1.0000
  C   C94       1.0  0.17643  0.71899  0.44811  1.0000
  C   C95       1.0  0.09962  0.54508  0.35510  1.0000
  C   C96       1.0  0.10649  0.53982  0.43753  1.0000
  C   C97       1.0  0.12500  0.53576  0.44076  1.0000
  C   C98       1.0  0.13740  0.53698  0.36211  1.0000
  C   C99       1.0  0.15662  0.53341  0.36640  1.0000
  C   C100      1.0  0.15595  0.51568  0.41992  1.0000
  C   C101      1.0  0.17491  0.51241  0.42624  1.0000
  C   C102      1.0  0.19547  0.52670  0.37938  1.0000
  C   C103      1.0  0.97965  0.48580  0.35755  1.0000
  C   C104      1.0  0.94039  0.44090  0.36958  1.0000
  C   C105      1.0  0.95408  0.45190  0.44623  1.0000
  C   C106      1.0  0.97329  0.47400  0.44059  1.0000
  C   C107      1.0  0.91977  0.41916  0.37722  1.0000
  C   C108      1.0  0.90485  0.41433  0.45123  1.0000
  C   C109      1.0  0.88471  0.39306  0.46020  1.0000
  C   C110      1.0  0.87843  0.37569  0.39505  1.0000
  C   C111      1.0  0.98046  0.58929  0.35541  1.0000
  C   C112      1.0  0.97362  0.59430  0.43791  1.0000
  C   C113      1.0  0.95500  0.59818  0.44120  1.0000
  C   C114      1.0  0.94243  0.59698  0.36257  1.0000
  C   C115      1.0  0.92305  0.60028  0.36697  1.0000
  C   C116      1.0  0.88389  0.60642  0.38006  1.0000
  C   C117      1.0  0.90445  0.62079  0.42705  1.0000
  C   C118      1.0  0.92356  0.61778  0.42069  1.0000
  H   H49       1.0  0.90574  0.63369  0.46712  1.0000
  H   H50       1.0  0.93806  0.62880  0.45533  1.0000
  H   H51       1.0  0.95016  0.60105  0.50275  1.0000
  H   H52       1.0  0.98176  0.59453  0.49660  1.0000
  H   H53       1.0  0.01894  0.63162  0.34778  1.0000
  H   H54       1.0  0.06235  0.65306  0.34835  1.0000
  H   H55       1.0  0.04019  0.58472  0.35741  1.0000
  H   H56       1.0  0.03991  0.54967  0.35821  1.0000
  H   H57       1.0  0.95315  0.54302  0.36583  1.0000
  H   H58       1.0  0.95285  0.50538  0.36658  1.0000
  H   H59       1.0  0.98217  0.48170  0.49817  1.0000
  H   H60       1.0  0.94997  0.44405  0.50789  1.0000
  H   H61       1.0  0.01775  0.48136  0.34710  1.0000
  H   H62       1.0  0.06115  0.50280  0.34650  1.0000
  H   H63       1.0  0.12728  0.62901  0.36523  1.0000
  H   H64       1.0  0.12698  0.59137  0.36461  1.0000
  H   H65       1.0  0.09845  0.53953  0.49623  1.0000
  H   H66       1.0  0.12985  0.53270  0.50227  1.0000
  H   H67       1.0  0.17351  0.49936  0.46620  1.0000
  H   H68       1.0  0.14145  0.50472  0.45450  1.0000
  H   H69       1.0  0.17324  0.70654  0.49472  1.0000
  H   H70       1.0  0.20736  0.74228  0.51008  1.0000
  H   H71       1.0  0.13172  0.68938  0.50886  1.0000
  H   H72       1.0  0.09922  0.65190  0.49935  1.0000
  H   H73       1.0  0.90836  0.42642  0.49947  1.0000
  H   H74       1.0  0.87459  0.39042  0.51527  1.0000
  C   C119      1.0  0.22242  0.77890  0.40699  1.0000
  C   C120      1.0  0.21411  0.52324  0.38952  1.0000
  C   C121      1.0  0.85880  0.35456  0.40836  1.0000
  C   C122      1.0  0.86511  0.60962  0.39014  1.0000
  H   H75       1.0  0.22806  0.78330  0.46990  1.0000
  H   H76       1.0  0.86655  0.62173  0.43213  1.0000
  H   H77       1.0  0.85346  0.34986  0.47137  1.0000
  H   H78       1.0  0.21265  0.51114  0.43206  1.0000
  C   C123      1.0  0.48211  0.49677  0.35254  1.0000
  C   C124      1.0  0.47043  0.50872  0.35280  1.0000
  C   C125      1.0  0.48642  0.53206  0.35570  1.0000
  N   N23       1.0  0.50712  0.53335  0.35687  1.0000
  C   C126      1.0  0.50552  0.51251  0.35543  1.0000
  C   C127      1.0  0.52315  0.50679  0.35712  1.0000
  C   C128      1.0  0.54693  0.52301  0.35883  1.0000
  N   N24       1.0  0.55724  0.54608  0.35571  1.0000
  C   C129      1.0  0.58029  0.55610  0.35912  1.0000
  C   C130      1.0  0.58504  0.53825  0.36488  1.0000
  C   C131      1.0  0.56456  0.51792  0.36466  1.0000
  C   C132      1.0  0.59676  0.57982  0.35759  1.0000
  C   C133      1.0  0.59135  0.59767  0.35574  1.0000
  N   N25       1.0  0.57064  0.59637  0.35718  1.0000
  C   C134      1.0  0.57224  0.61721  0.35538  1.0000
  C   C135      1.0  0.59565  0.63296  0.35211  1.0000
  C   C136      1.0  0.60733  0.62101  0.35235  1.0000
  C   C137      1.0  0.55462  0.62294  0.35686  1.0000
  C   C138      1.0  0.53084  0.60672  0.35849  1.0000
  N   N26       1.0  0.52053  0.58365  0.35567  1.0000
  C   C139      1.0  0.49749  0.57363  0.35881  1.0000
  C   C140      1.0  0.49273  0.59148  0.36399  1.0000
  C   C141      1.0  0.51322  0.61181  0.36375  1.0000
  C   C142      1.0  0.48102  0.54991  0.35752  1.0000
  C   C143      1.0  0.45751  0.54389  0.36034  1.0000
  C   C144      1.0  0.44609  0.53948  0.44376  1.0000
  C   C145      1.0  0.42412  0.53689  0.44887  1.0000
  C   C146      1.0  0.41283  0.53878  0.37125  1.0000
  C   C147      1.0  0.39125  0.53801  0.37808  1.0000
  C   C148      1.0  0.34810  0.53657  0.39443  1.0000
  C   C149      1.0  0.36586  0.54840  0.45784  1.0000
  C   C150      1.0  0.38698  0.54918  0.44956  1.0000
  C   C151      1.0  0.56099  0.64655  0.35856  1.0000
  C   C152      1.0  0.56623  0.65848  0.44105  1.0000
  C   C153      1.0  0.57029  0.68103  0.44435  1.0000
  C   C154      1.0  0.56911  0.69241  0.36571  1.0000
  C   C155      1.0  0.57268  0.71520  0.37007  1.0000
  C   C156      1.0  0.59040  0.73212  0.42368  1.0000
  C   C157      1.0  0.59368  0.75435  0.43001  1.0000
  C   C158      1.0  0.57940  0.76073  0.38310  1.0000
  C   C159      1.0  0.62029  0.58586  0.36023  1.0000
  C   C160      1.0  0.66521  0.59151  0.37147  1.0000
  C   C161      1.0  0.65429  0.59406  0.44832  1.0000
  C   C162      1.0  0.63219  0.59119  0.44306  1.0000
  C   C163      1.0  0.68696  0.59261  0.37872  1.0000
  C   C164      1.0  0.69188  0.58241  0.45266  1.0000
  C   C165      1.0  0.71316  0.58352  0.46122  1.0000
  C   C166      1.0  0.73044  0.59471  0.39570  1.0000
  C   C167      1.0  0.51680  0.48318  0.35881  1.0000
  C   C168      1.0  0.51179  0.47116  0.44133  1.0000
  C   C169      1.0  0.50794  0.44867  0.44470  1.0000
  C   C170      1.0  0.50912  0.43746  0.36611  1.0000
  C   C171      1.0  0.50583  0.41477  0.37057  1.0000
  C   C172      1.0  0.49971  0.36945  0.38377  1.0000
  C   C173      1.0  0.48533  0.37553  0.43075  1.0000
  C   C174      1.0  0.48833  0.39767  0.42432  1.0000
  H   H79       1.0  0.47244  0.36385  0.47084  1.0000
  H   H80       1.0  0.47732  0.40108  0.45897  1.0000
  H   H81       1.0  0.50505  0.44083  0.50627  1.0000
  H   H82       1.0  0.51156  0.47895  0.50000  1.0000
  H   H83       1.0  0.47447  0.47935  0.35086  1.0000
  H   H84       1.0  0.45302  0.50131  0.35121  1.0000
  H   H85       1.0  0.52137  0.54748  0.36071  1.0000
  H   H86       1.0  0.55641  0.58224  0.36124  1.0000
  H   H87       1.0  0.56307  0.50213  0.36911  1.0000
  H   H88       1.0  0.60071  0.53947  0.36967  1.0000
  H   H89       1.0  0.62453  0.59225  0.50078  1.0000
  H   H90       1.0  0.66221  0.59771  0.50984  1.0000
  H   H91       1.0  0.62472  0.62843  0.35028  1.0000
  H   H92       1.0  0.60327  0.65037  0.34990  1.0000
  H   H93       1.0  0.47706  0.59025  0.36815  1.0000
  H   H94       1.0  0.51470  0.62759  0.36775  1.0000
  H   H95       1.0  0.56653  0.65059  0.49971  1.0000
  H   H96       1.0  0.57337  0.68882  0.50586  1.0000
  H   H97       1.0  0.60672  0.76590  0.47000  1.0000
  H   H98       1.0  0.60135  0.72850  0.45824  1.0000
  H   H99       1.0  0.39937  0.55831  0.49640  1.0000
  H   H100      1.0  0.36362  0.55666  0.51110  1.0000
  H   H101      1.0  0.41656  0.53395  0.51081  1.0000
  H   H102      1.0  0.45405  0.53898  0.50190  1.0000
  H   H103      1.0  0.67985  0.57376  0.50115  1.0000
  H   H104      1.0  0.71587  0.57596  0.51625  1.0000
  C   C175      1.0  0.32713  0.53540  0.40728  1.0000
  C   C176      1.0  0.58288  0.78282  0.39321  1.0000
  C   C177      1.0  0.75158  0.59616  0.40857  1.0000
  C   C178      1.0  0.49651  0.34744  0.39388  1.0000
  H   H105      1.0  0.32268  0.53655  0.47006  1.0000
  H   H106      1.0  0.48442  0.33670  0.43592  1.0000
  H   H107      1.0  0.75636  0.59541  0.47147  1.0000
  H   H108      1.0  0.59499  0.79336  0.43573  1.0000
  C   C179      1.0  0.60931  0.07734  0.35485  1.0000
  C   C180      1.0  0.59736  0.05371  0.35532  1.0000
  C   C181      1.0  0.57402  0.04636  0.35816  1.0000
  N   N27       1.0  0.57273  0.06577  0.35918  1.0000
  C   C182      1.0  0.59357  0.08501  0.35757  1.0000
  C   C183      1.0  0.59929  0.10836  0.35898  1.0000
  C   C184      1.0  0.58307  0.11592  0.36079  1.0000
  N   N28       1.0  0.56000  0.10316  0.35788  1.0000
  C   C185      1.0  0.54999  0.11618  0.36143  1.0000
  C   C186      1.0  0.56785  0.13878  0.36713  1.0000
  C   C187      1.0  0.58818  0.13862  0.36655  1.0000
  C   C188      1.0  0.52627  0.10894  0.36007  1.0000
  C   C189      1.0  0.50842  0.08569  0.35807  1.0000
  N   N29       1.0  0.50971  0.06628  0.35941  1.0000
  C   C190      1.0  0.48888  0.04704  0.35745  1.0000
  C   C191      1.0  0.47313  0.05471  0.35412  1.0000
  C   C192      1.0  0.48508  0.07834  0.35455  1.0000
  C   C193      1.0  0.48315  0.02369  0.35888  1.0000
  C   C194      1.0  0.49936  0.01612  0.36063  1.0000
  N   N30       1.0  0.52243  0.02889  0.35798  1.0000
  C   C195      1.0  0.53245  0.01586  0.36119  1.0000
  C   C196      1.0  0.51460  0.99324  0.36627  1.0000
  C   C197      1.0  0.49427  0.99340  0.36583  1.0000
  C   C198      1.0  0.55617  0.02311  0.36001  1.0000
  C   C199      1.0  0.56218  0.00561  0.36301  1.0000
  C   C200      1.0  0.56654  0.99842  0.44652  1.0000
  C   C201      1.0  0.56914  0.97902  0.45179  1.0000
  C   C202      1.0  0.56730  0.96602  0.37422  1.0000
  C   C203      1.0  0.56808  0.94520  0.38116  1.0000
  C   C204      1.0  0.56954  0.90347  0.39772  1.0000
  C   C205      1.0  0.55767  0.90925  0.46098  1.0000
  C   C206      1.0  0.55687  0.92960  0.45261  1.0000
  C   C207      1.0  0.45953  0.00645  0.36014  1.0000
  C   C208      1.0  0.44752  0.99950  0.44241  1.0000
  C   C209      1.0  0.42495  0.98099  0.44523  1.0000
  C   C210      1.0  0.41366  0.96867  0.36633  1.0000
  C   C211      1.0  0.39088  0.94945  0.37021  1.0000
  C   C212      1.0  0.37389  0.95006  0.42360  1.0000
  C   C213      1.0  0.35165  0.93110  0.42946  1.0000
  C   C214      1.0  0.34533  0.91060  0.38223  1.0000
  C   C215      1.0  0.52023  0.12643  0.36288  1.0000
  C   C216      1.0  0.51460  0.16569  0.37447  1.0000
  C   C217      1.0  0.51209  0.15204  0.45125  1.0000
  C   C218      1.0  0.51496  0.13282  0.44582  1.0000
  C   C219      1.0  0.51349  0.18631  0.38186  1.0000
  C   C220      1.0  0.52370  0.20125  0.45581  1.0000
  C   C221      1.0  0.52260  0.22141  0.46447  1.0000
  C   C222      1.0  0.51140  0.22766  0.39904  1.0000
  C   C223      1.0  0.62291  0.12561  0.36030  1.0000
  C   C224      1.0  0.63500  0.13252  0.44263  1.0000
  C   C225      1.0  0.65750  0.15116  0.44557  1.0000
  C   C226      1.0  0.66863  0.16365  0.36673  1.0000
  C   C227      1.0  0.69132  0.18304  0.37074  1.0000
  C   C228      1.0  0.73666  0.22222  0.38297  1.0000
  C   C229      1.0  0.73062  0.20172  0.43028  1.0000
  C   C230      1.0  0.70848  0.18259  0.42433  1.0000
  H   H109      1.0  0.74235  0.20047  0.47026  1.0000
  H   H110      1.0  0.70510  0.16813  0.45920  1.0000
  H   H111      1.0  0.66539  0.15606  0.50701  1.0000
  H   H112      1.0  0.62727  0.12445  0.50148  1.0000
  H   H113      1.0  0.62673  0.08712  0.35308  1.0000
  H   H114      1.0  0.60476  0.04372  0.35381  1.0000
  H   H115      1.0  0.55860  0.06588  0.36267  1.0000
  H   H116      1.0  0.52384  0.06616  0.36377  1.0000
  H   H117      1.0  0.60396  0.15291  0.37112  1.0000
  H   H118      1.0  0.56663  0.15322  0.37205  1.0000
  H   H119      1.0  0.51390  0.12396  0.50347  1.0000
  H   H120      1.0  0.50845  0.15616  0.51283  1.0000
  H   H121      1.0  0.47767  0.08833  0.35252  1.0000
  H   H122      1.0  0.45572  0.04493  0.35185  1.0000
  H   H123      1.0  0.51582  0.97878  0.37036  1.0000
  H   H124      1.0  0.47848  0.97909  0.36969  1.0000
  H   H125      1.0  0.45534  0.00747  0.50126  1.0000
  H   H126      1.0  0.41711  0.97607  0.50662  1.0000
  H   H127      1.0  0.34006  0.93246  0.46934  1.0000
  H   H128      1.0  0.37747  0.96452  0.45842  1.0000
  H   H129      1.0  0.54772  0.93275  0.49934  1.0000
  H   H130      1.0  0.54939  0.89863  0.51422  1.0000
  H   H131      1.0  0.57204  0.97427  0.51379  1.0000
  H   H132      1.0  0.56701  0.00675  0.50462  1.0000
  H   H133      1.0  0.53238  0.19777  0.50420  1.0000
  H   H134      1.0  0.53018  0.23156  0.51948  1.0000
  C   C231      1.0  0.57072  0.88365  0.41071  1.0000
  C   C232      1.0  0.32323  0.89195  0.39188  1.0000
  C   C233      1.0  0.50995  0.24732  0.41201  1.0000
  C   C234      1.0  0.75868  0.24102  0.39260  1.0000
  H   H135      1.0  0.56960  0.87794  0.47351  1.0000
  H   H136      1.0  0.76946  0.23963  0.43459  1.0000
  H   H137      1.0  0.51072  0.25271  0.47492  1.0000
  H   H138      1.0  0.31264  0.89337  0.43430  1.0000
  C   C235      1.0  0.25219  0.53354  0.35138  1.0000
  N   N31       1.0  0.28367  0.53328  0.42382  1.0000
  C   C236      1.0  0.26362  0.53324  0.43133  1.0000
  C   C237      1.0  0.25672  0.53394  0.51219  1.0000
  N   N32       1.0  0.25066  0.53453  0.58378  1.0000
  N   N33       1.0  0.23310  0.53477  0.34673  1.0000
  C   C238      1.0  0.57261  0.81070  0.35502  1.0000
  N   N34       1.0  0.57288  0.84229  0.42739  1.0000
  C   C239      1.0  0.57294  0.82229  0.43494  1.0000
  C   C240      1.0  0.57223  0.81451  0.51582  1.0000
  N   N35       1.0  0.57163  0.80771  0.58743  1.0000
  N   N36       1.0  0.57137  0.79038  0.35040  1.0000
  C   C241      1.0  0.29541  0.85392  0.35292  1.0000
  N   N37       1.0  0.26373  0.82236  0.42457  1.0000
  C   C242      1.0  0.28374  0.84240  0.43258  1.0000
  C   C243      1.0  0.29140  0.84922  0.51363  1.0000
  N   N38       1.0  0.29809  0.85520  0.58539  1.0000
  N   N39       1.0  0.31572  0.87301  0.34877  1.0000
  C   C244      1.0  0.82679  0.59881  0.35259  1.0000
  N   N40       1.0  0.79531  0.59876  0.42505  1.0000
  C   C245      1.0  0.81554  0.59913  0.43253  1.0000
  C   C246      1.0  0.82275  0.59868  0.51341  1.0000
  N   N41       1.0  0.82907  0.59831  0.58503  1.0000
  N   N42       1.0  0.84601  0.59785  0.34795  1.0000
  C   C247      1.0  0.50732  0.32002  0.35624  1.0000
  N   N43       1.0  0.50735  0.28842  0.42862  1.0000
  C   C248      1.0  0.50701  0.30827  0.43615  1.0000
  C   C249      1.0  0.50743  0.31573  0.51706  1.0000
  N   N44       1.0  0.50777  0.32225  0.58869  1.0000
  N   N45       1.0  0.50827  0.34021  0.35164  1.0000
  C   C250      1.0  0.78608  0.27928  0.35416  1.0000
  N   N46       1.0  0.81773  0.31085  0.42585  1.0000
  C   C251      1.0  0.79790  0.29064  0.43382  1.0000
  C   C252      1.0  0.79049  0.28354  0.51488  1.0000
  N   N47       1.0  0.78403  0.27731  0.58666  1.0000
  N   N48       1.0  0.76588  0.26005  0.34999  1.0000
