data_image0
_chemical_formula_structural       NC2HNHNC2HNHNC2HNHCNCNCNC18H12C3O3CNCNCNC18H12C3O3CNCOCH3NHCNCOCH3NHCNCOCH3NH
_chemical_formula_sum              "N18 C63 H42 O9"
_cell_length_a       36.5966
_cell_length_b       36.5961
_cell_length_c       15.0817
_cell_angle_alpha    90
_cell_angle_beta     90
_cell_angle_gamma    120

_space_group_name_H-M_alt    "P 1"
_space_group_IT_number       1

loop_
  _space_group_symop_operation_xyz
  'x, y, z'

loop_
  _atom_site_type_symbol
  _atom_site_label
  _atom_site_symmetry_multiplicity
  _atom_site_fract_x
  _atom_site_fract_y
  _atom_site_fract_z
  _atom_site_occupancy
  N   N1        1.0  0.52412  0.50007  0.27082  1.0000
  C   C1        1.0  0.49978  0.51727  0.25203  1.0000
  C   C2        1.0  0.46891  0.51298  0.31377  1.0000
  H   H1        1.0  0.50380  0.53257  0.19305  1.0000
  N   N2        1.0  0.44511  0.53164  0.29935  1.0000
  H   H2        1.0  0.45472  0.55281  0.25238  1.0000
  N   N3        1.0  0.49317  0.02270  0.27081  1.0000
  C   C3        1.0  0.47597  0.98116  0.25203  1.0000
  C   C4        1.0  0.48025  0.95457  0.31378  1.0000
  H   H3        1.0  0.46067  0.96988  0.19305  1.0000
  N   N4        1.0  0.46158  0.91211  0.29936  1.0000
  H   H4        1.0  0.44042  0.90056  0.25239  1.0000
  N   N5        1.0  0.97052  0.46911  0.27079  1.0000
  C   C5        1.0  0.01206  0.49346  0.25200  1.0000
  C   C6        1.0  0.03865  0.52434  0.31372  1.0000
  H   H5        1.0  0.02334  0.48944  0.19301  1.0000
  N   N6        1.0  0.08111  0.54812  0.29932  1.0000
  H   H6        1.0  0.09266  0.53852  0.25234  1.0000
  C   C7        1.0  0.28640  0.64857  0.32973  1.0000
  N   N7        1.0  0.30256  0.62227  0.32991  1.0000
  C   C8        1.0  0.34465  0.63646  0.32976  1.0000
  N   N8        1.0  0.37094  0.67893  0.32992  1.0000
  C   C9        1.0  0.35675  0.70682  0.32974  1.0000
  N   N9        1.0  0.31429  0.69065  0.32990  1.0000
  C   C10       1.0  0.36060  0.60815  0.33177  1.0000
  C   C11       1.0  0.33340  0.56398  0.33977  1.0000
  C   C12       1.0  0.34958  0.53632  0.34432  1.0000
  C   C13       1.0  0.39347  0.55191  0.33930  1.0000
  C   C14       1.0  0.42069  0.59595  0.33155  1.0000
  C   C15       1.0  0.40456  0.62353  0.32779  1.0000
  C   C16       1.0  0.24213  0.63262  0.33173  1.0000
  C   C17       1.0  0.21355  0.58866  0.32771  1.0000
  C   C18       1.0  0.16984  0.57254  0.33145  1.0000
  C   C19       1.0  0.15303  0.59976  0.33925  1.0000
  C   C20       1.0  0.18133  0.64365  0.34432  1.0000
  C   C21       1.0  0.22516  0.65982  0.33977  1.0000
  C   C22       1.0  0.38506  0.75108  0.33177  1.0000
  C   C23       1.0  0.36968  0.77967  0.32778  1.0000
  C   C24       1.0  0.39727  0.82338  0.33152  1.0000
  C   C25       1.0  0.44130  0.84019  0.33932  1.0000
  C   C26       1.0  0.45689  0.81189  0.34437  1.0000
  C   C27       1.0  0.42924  0.76807  0.33977  1.0000
  H   H7        1.0  0.15049  0.54046  0.33090  1.0000
  H   H8        1.0  0.22408  0.56758  0.32281  1.0000
  H   H9        1.0  0.17029  0.66430  0.35039  1.0000
  H   H10       1.0  0.24450  0.69182  0.34359  1.0000
  H   H11       1.0  0.33806  0.76913  0.32285  1.0000
  H   H12       1.0  0.38454  0.84272  0.33094  1.0000
  H   H13       1.0  0.44190  0.74873  0.34361  1.0000
  H   H14       1.0  0.48858  0.82293  0.35041  1.0000
  H   H15       1.0  0.42564  0.65515  0.32289  1.0000
  H   H16       1.0  0.45276  0.60868  0.33097  1.0000
  H   H17       1.0  0.32892  0.50463  0.35035  1.0000
  H   H18       1.0  0.30140  0.55131  0.34355  1.0000
  C   C28       1.0  0.10881  0.58292  0.34611  1.0000
  C   C29       1.0  0.46868  0.88441  0.34616  1.0000
  C   C30       1.0  0.41030  0.52454  0.34612  1.0000
  O   O1        1.0  0.39103  0.49138  0.40243  1.0000
  O   O2        1.0  0.50184  0.89829  0.40245  1.0000
  O   O3        1.0  0.09494  0.60220  0.40242  1.0000
  C   C31       1.0  0.70550  0.34613  0.31626  1.0000
  N   N10       1.0  0.68921  0.37232  0.31629  1.0000
  C   C32       1.0  0.64710  0.35801  0.31628  1.0000
  N   N11       1.0  0.62091  0.31553  0.31630  1.0000
  C   C33       1.0  0.63523  0.28774  0.31628  1.0000
  N   N12       1.0  0.67770  0.30403  0.31628  1.0000
  C   C34       1.0  0.63104  0.38623  0.31626  1.0000
  C   C35       1.0  0.65822  0.43056  0.31908  1.0000
  C   C36       1.0  0.64202  0.45823  0.31886  1.0000
  C   C37       1.0  0.59803  0.44238  0.31728  1.0000
  C   C38       1.0  0.57083  0.39823  0.31332  1.0000
  C   C39       1.0  0.58703  0.37068  0.31288  1.0000
  C   C40       1.0  0.74978  0.36219  0.31621  1.0000
  C   C41       1.0  0.77824  0.40620  0.31281  1.0000
  C   C42       1.0  0.82199  0.42240  0.31319  1.0000
  C   C43       1.0  0.83894  0.39520  0.31721  1.0000
  C   C44       1.0  0.81080  0.35121  0.31881  1.0000
  C   C45       1.0  0.76693  0.33501  0.31904  1.0000
  C   C46       1.0  0.60701  0.24345  0.31624  1.0000
  C   C47       1.0  0.62256  0.21500  0.31287  1.0000
  C   C48       1.0  0.59500  0.17124  0.31328  1.0000
  C   C49       1.0  0.55085  0.15430  0.31726  1.0000
  C   C50       1.0  0.53500  0.18243  0.31884  1.0000
  C   C51       1.0  0.56268  0.22631  0.31906  1.0000
  H   H19       1.0  0.84131  0.45440  0.30868  1.0000
  H   H20       1.0  0.76758  0.42723  0.30950  1.0000
  H   H21       1.0  0.82198  0.33058  0.32145  1.0000
  H   H22       1.0  0.74769  0.30296  0.32132  1.0000
  H   H23       1.0  0.65424  0.22565  0.30953  1.0000
  H   H24       1.0  0.60769  0.15193  0.30872  1.0000
  H   H25       1.0  0.54985  0.24554  0.32132  1.0000
  H   H26       1.0  0.50319  0.17125  0.32144  1.0000
  H   H27       1.0  0.56600  0.33899  0.30954  1.0000
  H   H28       1.0  0.53883  0.38554  0.30872  1.0000
  H   H29       1.0  0.66265  0.49005  0.32145  1.0000
  H   H30       1.0  0.69028  0.44339  0.32133  1.0000
  C   C52       1.0  0.88323  0.41202  0.31589  1.0000
  C   C53       1.0  0.52339  0.11000  0.31589  1.0000
  C   C54       1.0  0.58121  0.46985  0.31590  1.0000
  O   O4        1.0  0.60246  0.50624  0.26935  1.0000
  O   O5        1.0  0.48699  0.09486  0.26935  1.0000
  O   O6        1.0  0.89838  0.39077  0.26936  1.0000
  C   C55       1.0  0.52150  0.47946  0.34774  1.0000
  N   N13       1.0  0.46641  0.49251  0.39082  1.0000
  C   C56       1.0  0.49112  0.47573  0.41062  1.0000
  O   O7        1.0  0.48504  0.45507  0.48954  1.0000
  C   C57       1.0  0.50961  0.48264  0.56061  1.0000
  H   H31       1.0  0.50291  0.46374  0.62067  1.0000
  H   H32       1.0  0.50122  0.50697  0.57284  1.0000
  H   H33       1.0  0.54342  0.49753  0.54711  1.0000
  N   N14       1.0  0.54490  0.46020  0.35959  1.0000
  H   H34       1.0  0.53365  0.43651  0.40084  1.0000
  C   C58       1.0  0.51378  0.04069  0.34774  1.0000
  N   N15       1.0  0.50072  0.97254  0.39083  1.0000
  C   C59       1.0  0.51749  0.01403  0.41063  1.0000
  O   O8        1.0  0.53815  0.02861  0.48955  1.0000
  C   C60       1.0  0.51058  0.02561  0.56061  1.0000
  H   H35       1.0  0.52947  0.03781  0.62068  1.0000
  H   H36       1.0  0.48625  0.99290  0.57285  1.0000
  H   H37       1.0  0.49569  0.04453  0.54711  1.0000
  N   N16       1.0  0.53304  0.08334  0.35959  1.0000
  H   H38       1.0  0.55673  0.09578  0.40083  1.0000
  C   C61       1.0  0.95253  0.47173  0.34773  1.0000
  N   N17       1.0  0.02068  0.52683  0.39079  1.0000
  C   C62       1.0  0.97919  0.50211  0.41061  1.0000
  O   O9        1.0  0.96462  0.50818  0.48953  1.0000
  C   C63       1.0  0.96763  0.48362  0.56059  1.0000
  H   H39       1.0  0.95543  0.49031  0.62066  1.0000
  H   H40       1.0  0.00035  0.49201  0.57281  1.0000
  H   H41       1.0  0.94872  0.44981  0.54709  1.0000
  N   N18       1.0  0.90989  0.44833  0.35959  1.0000
  H   H42       1.0  0.89743  0.45958  0.40082  1.0000
