data_image0
_chemical_formula_structural       C6H6N2C8H5CN2HNC8H5CN2HNC8H5CN2HNC3HCH3CHC3HCH3CHC3HCH3CHC3HCH3CHC3HCH3CHC3HCH3CHC12H5CNC2NHN2C10H6CNCN2C10H6CNCN2C10H6CNCN2C3HCH3CHC3HCH3CHC3HCH3CHC3HCH3CHC3HCH3CHC3HCH3CH
_chemical_formula_sum              "C144 H108 N24"
_cell_length_a       56.9986
_cell_length_b       57.0084
_cell_length_c       14.8405
_cell_angle_alpha    90
_cell_angle_beta     90
_cell_angle_gamma    119.978

_space_group_name_H-M_alt    "P 1"
_space_group_IT_number       1

loop_
  _space_group_symop_operation_xyz
  'x, y, z'

loop_
  _atom_site_type_symbol
  _atom_site_label
  _atom_site_symmetry_multiplicity
  _atom_site_fract_x
  _atom_site_fract_y
  _atom_site_fract_z
  _atom_site_occupancy
  C   C1        1.0  0.97034  0.02808  0.34534  1.0000
  C   C2        1.0  0.93261  0.90007  0.33338  1.0000
  C   C3        1.0  0.94594  0.92859  0.33268  1.0000
  C   C4        1.0  0.94191  0.01372  0.35935  1.0000
  C   C5        1.0  0.92673  0.02709  0.36112  1.0000
  C   C6        1.0  0.93924  0.05528  0.34695  1.0000
  H   H1        1.0  0.91204  0.88942  0.32533  1.0000
  H   H2        1.0  0.93448  0.93759  0.32266  1.0000
  H   H3        1.0  0.93185  0.99325  0.36984  1.0000
  H   H4        1.0  0.90629  0.01599  0.37230  1.0000
  H   H5        1.0  0.11307  0.02494  0.32520  1.0000
  H   H6        1.0  0.06489  0.99918  0.32258  1.0000
  N   N1        1.0  0.97376  0.98706  0.34493  1.0000
  N   N2        1.0  0.92403  0.06707  0.35162  1.0000
  C   C7        1.0  0.46688  0.27736  0.34359  1.0000
  C   C8        1.0  0.36357  0.20726  0.33187  1.0000
  C   C9        1.0  0.33499  0.19350  0.33183  1.0000
  C   C10       1.0  0.50931  0.19633  0.35608  1.0000
  C   C11       1.0  0.49290  0.20818  0.35792  1.0000
  C   C12       1.0  0.49510  0.28901  0.35989  1.0000
  C   C13       1.0  0.51268  0.31711  0.35844  1.0000
  C   C14       1.0  0.50283  0.33486  0.34070  1.0000
  H   H7        1.0  0.32535  0.20453  0.32703  1.0000
  H   H8        1.0  0.50235  0.22860  0.36921  1.0000
  H   H9        1.0  0.52977  0.20853  0.36429  1.0000
  H   H10       1.0  0.50353  0.27720  0.37305  1.0000
  H   H11       1.0  0.53291  0.32448  0.36995  1.0000
  C   C15       1.0  0.44978  0.24854  0.34218  1.0000
  N   N3        1.0  0.46172  0.23317  0.34307  1.0000
  N   N4        1.0  0.42218  0.23481  0.33973  1.0000
  H   H12       1.0  0.37363  0.22792  0.32691  1.0000
  N   N5        1.0  0.52144  0.36094  0.33964  1.0000
  C   C16       1.0  0.72524  0.19207  0.34384  1.0000
  C   C17       1.0  0.79536  0.15886  0.33185  1.0000
  C   C18       1.0  0.80912  0.14404  0.33179  1.0000
  C   C19       1.0  0.80624  0.31548  0.35608  1.0000
  C   C20       1.0  0.79440  0.28723  0.35799  1.0000
  C   C21       1.0  0.71358  0.20861  0.36043  1.0000
  C   C22       1.0  0.68548  0.19812  0.35876  1.0000
  C   C23       1.0  0.66774  0.17056  0.34057  1.0000
  H   H13       1.0  0.79808  0.12337  0.32697  1.0000
  H   H14       1.0  0.77399  0.27627  0.36935  1.0000
  H   H15       1.0  0.79403  0.32373  0.36438  1.0000
  H   H16       1.0  0.72539  0.22883  0.37388  1.0000
  H   H17       1.0  0.67810  0.21097  0.37042  1.0000
  C   C24       1.0  0.75407  0.20379  0.34239  1.0000
  N   N6        1.0  0.76943  0.23109  0.34325  1.0000
  N   N7        1.0  0.76781  0.18992  0.33986  1.0000
  H   H18       1.0  0.77469  0.14828  0.32689  1.0000
  N   N8        1.0  0.64167  0.16312  0.33913  1.0000
  C   C25       1.0  0.81041  0.53558  0.34363  1.0000
  C   C26       1.0  0.84362  0.63888  0.33185  1.0000
  C   C27       1.0  0.85844  0.66744  0.33181  1.0000
  C   C28       1.0  0.68698  0.49323  0.35632  1.0000
  C   C29       1.0  0.71523  0.50964  0.35821  1.0000
  C   C30       1.0  0.79385  0.50738  0.36001  1.0000
  C   C31       1.0  0.80436  0.48978  0.35848  1.0000
  C   C32       1.0  0.83195  0.49961  0.34062  1.0000
  H   H19       1.0  0.87911  0.67706  0.32698  1.0000
  H   H20       1.0  0.72620  0.50018  0.36964  1.0000
  H   H21       1.0  0.67873  0.47278  0.36472  1.0000
  H   H22       1.0  0.77362  0.49896  0.37324  1.0000
  H   H23       1.0  0.79152  0.46956  0.37003  1.0000
  C   C33       1.0  0.79868  0.55270  0.34222  1.0000
  N   N9        1.0  0.77138  0.54077  0.34314  1.0000
  N   N10       1.0  0.81255  0.58029  0.33975  1.0000
  H   H24       1.0  0.85420  0.62879  0.32685  1.0000
  N   N11       1.0  0.83942  0.48099  0.33944  1.0000
  C   C34       1.0  0.18927  0.09364  0.32345  1.0000
  C   C35       1.0  0.20800  0.10694  0.25206  1.0000
  C   C36       1.0  0.23614  0.12013  0.27057  1.0000
  H   H25       1.0  0.24948  0.12858  0.21800  1.0000
  C   C37       1.0  0.19986  0.10754  0.15702  1.0000
  H   H26       1.0  0.17803  0.09825  0.14808  1.0000
  H   H27       1.0  0.20699  0.09689  0.11380  1.0000
  H   H28       1.0  0.20896  0.12850  0.13416  1.0000
  C   C38       1.0  0.16171  0.07647  0.30818  1.0000
  H   H29       1.0  0.15641  0.06199  0.26215  1.0000
  C   C39       1.0  0.90883  0.09796  0.32349  1.0000
  C   C40       1.0  0.89557  0.10345  0.25207  1.0000
  C   C41       1.0  0.88245  0.11847  0.27052  1.0000
  H   H30       1.0  0.87400  0.12336  0.21795  1.0000
  C   C42       1.0  0.89496  0.09469  0.15705  1.0000
  H   H31       1.0  0.90421  0.08210  0.14817  1.0000
  H   H32       1.0  0.90566  0.11246  0.11382  1.0000
  H   H33       1.0  0.87400  0.08289  0.13415  1.0000
  C   C43       1.0  0.92600  0.08757  0.30828  1.0000
  H   H34       1.0  0.94050  0.09674  0.26232  1.0000
  C   C44       1.0  0.90446  0.81319  0.32345  1.0000
  C   C45       1.0  0.89900  0.79445  0.25205  1.0000
  C   C46       1.0  0.88400  0.76631  0.27055  1.0000
  H   H35       1.0  0.87910  0.75298  0.21798  1.0000
  C   C47       1.0  0.90774  0.80258  0.15701  1.0000
  H   H36       1.0  0.92031  0.82441  0.14807  1.0000
  H   H37       1.0  0.88997  0.79549  0.11380  1.0000
  H   H38       1.0  0.91957  0.79344  0.13413  1.0000
  C   C48       1.0  0.91488  0.84075  0.30818  1.0000
  H   H39       1.0  0.90572  0.84608  0.26215  1.0000
  C   C49       1.0  0.59558  0.14281  0.33398  1.0000
  C   C50       1.0  0.58648  0.15351  0.26440  1.0000
  C   C51       1.0  0.56457  0.15786  0.28241  1.0000
  H   H40       1.0  0.55896  0.16685  0.23362  1.0000
  C   C52       1.0  0.59931  0.16146  0.17371  1.0000
  H   H41       1.0  0.61557  0.15691  0.16382  1.0000
  H   H42       1.0  0.60774  0.18319  0.16392  1.0000
  H   H43       1.0  0.58411  0.15066  0.12174  1.0000
  C   C53       1.0  0.61900  0.14129  0.32683  1.0000
  H   H44       1.0  0.61798  0.12361  0.31611  1.0000
  C   C54       1.0  0.85975  0.45523  0.33392  1.0000
  C   C55       1.0  0.84904  0.43544  0.26436  1.0000
  C   C56       1.0  0.84466  0.40916  0.28238  1.0000
  H   H45       1.0  0.83570  0.39457  0.23356  1.0000
  C   C57       1.0  0.84110  0.44033  0.17367  1.0000
  H   H46       1.0  0.84566  0.46113  0.16377  1.0000
  H   H47       1.0  0.81936  0.42704  0.16385  1.0000
  H   H48       1.0  0.85190  0.43591  0.12170  1.0000
  C   C58       1.0  0.86125  0.48015  0.32683  1.0000
  H   H49       1.0  0.87887  0.49676  0.31514  1.0000
  C   C59       1.0  0.54721  0.40701  0.33398  1.0000
  C   C60       1.0  0.56701  0.41610  0.26442  1.0000
  C   C61       1.0  0.59327  0.43801  0.28243  1.0000
  H   H50       1.0  0.60787  0.44361  0.23365  1.0000
  C   C62       1.0  0.56214  0.40326  0.17376  1.0000
  H   H51       1.0  0.54135  0.38700  0.16388  1.0000
  H   H52       1.0  0.57546  0.39484  0.16400  1.0000
  H   H53       1.0  0.56654  0.41846  0.12176  1.0000
  C   C63       1.0  0.52229  0.38359  0.32684  1.0000
  H   H54       1.0  0.50569  0.38461  0.31463  1.0000
  C   C64       1.0  0.97435  0.94453  0.34531  1.0000
  C   C65       1.0  0.05790  0.03207  0.34536  1.0000
  C   C66       1.0  0.98872  0.93046  0.35934  1.0000
  C   C67       1.0  0.97535  0.90192  0.36109  1.0000
  C   C68       1.0  0.94716  0.88626  0.34682  1.0000
  C   C69       1.0  0.96760  0.06983  0.33347  1.0000
  C   C70       1.0  0.98280  0.05649  0.33277  1.0000
  C   C71       1.0  0.07194  0.06049  0.35945  1.0000
  C   C72       1.0  0.10048  0.07568  0.36121  1.0000
  C   C73       1.0  0.11618  0.06319  0.34684  1.0000
  C   C74       1.0  0.10240  0.03484  0.33334  1.0000
  C   C75       1.0  0.07387  0.01963  0.33265  1.0000
  H   H55       1.0  0.98645  0.89258  0.37233  1.0000
  H   H56       1.0  0.00325  0.06795  0.32278  1.0000
  H   H57       1.0  0.97751  0.09040  0.32548  1.0000
  H   H58       1.0  0.06150  0.07053  0.37011  1.0000
  H   H59       1.0  0.10980  0.09611  0.37251  1.0000
  C   C76       1.0  0.02889  0.01655  0.34492  1.0000
  N   N12       1.0  0.01346  0.02866  0.34495  1.0000
  C   C77       1.0  0.98586  0.01458  0.34491  1.0000
  C   C78       1.0  0.98784  0.97354  0.34489  1.0000
  N   N13       1.0  0.01538  0.98895  0.34493  1.0000
  H   H60       1.0  0.00919  0.94087  0.36991  1.0000
  N   N14       1.0  0.14317  0.07841  0.35157  1.0000
  N   N15       1.0  0.93537  0.85926  0.35156  1.0000
  C   C79       1.0  0.46449  0.19274  0.34346  1.0000
  C   C80       1.0  0.37812  0.19313  0.33802  1.0000
  C   C81       1.0  0.31971  0.16504  0.33927  1.0000
  C   C82       1.0  0.33402  0.15073  0.34441  1.0000
  C   C83       1.0  0.36257  0.16449  0.34389  1.0000
  C   C84       1.0  0.45330  0.16462  0.32780  1.0000
  C   C85       1.0  0.46986  0.15266  0.32558  1.0000
  C   C86       1.0  0.49803  0.16829  0.34105  1.0000
  C   C87       1.0  0.47474  0.32376  0.32552  1.0000
  C   C88       1.0  0.45704  0.29541  0.32723  1.0000
  H   H61       1.0  0.32377  0.13005  0.34758  1.0000
  H   H62       1.0  0.37186  0.15313  0.34805  1.0000
  H   H63       1.0  0.43300  0.15265  0.31579  1.0000
  H   H64       1.0  0.46121  0.13239  0.31250  1.0000
  H   H65       1.0  0.46704  0.33620  0.31243  1.0000
  H   H66       1.0  0.43690  0.28805  0.31475  1.0000
  C   C89       1.0  0.44860  0.20580  0.34223  1.0000
  N   N16       1.0  0.42104  0.19316  0.33993  1.0000
  C   C90       1.0  0.40720  0.20709  0.33873  1.0000
  N   N17       1.0  0.51392  0.15733  0.33439  1.0000
  N   N18       1.0  0.29264  0.15319  0.33765  1.0000
  C   C91       1.0  0.80985  0.27427  0.34351  1.0000
  C   C92       1.0  0.80950  0.18754  0.33803  1.0000
  C   C93       1.0  0.83758  0.15719  0.33923  1.0000
  C   C94       1.0  0.85190  0.18581  0.34441  1.0000
  C   C95       1.0  0.83814  0.20060  0.34390  1.0000
  C   C96       1.0  0.83797  0.29119  0.32778  1.0000
  C   C97       1.0  0.84992  0.31970  0.32552  1.0000
  C   C98       1.0  0.83428  0.33224  0.34101  1.0000
  C   C99       1.0  0.67885  0.15359  0.32516  1.0000
  C   C100      1.0  0.70720  0.16422  0.32707  1.0000
  H   H67       1.0  0.87259  0.19622  0.34758  1.0000
  H   H68       1.0  0.84950  0.22125  0.34809  1.0000
  H   H69       1.0  0.84995  0.28286  0.31572  1.0000
  H   H70       1.0  0.87020  0.33132  0.31239  1.0000
  H   H71       1.0  0.66642  0.13348  0.31165  1.0000
  H   H72       1.0  0.71458  0.15146  0.31429  1.0000
  C   C101      1.0  0.79680  0.24532  0.34232  1.0000
  N   N19       1.0  0.80946  0.23041  0.33997  1.0000
  C   C102      1.0  0.79553  0.20266  0.33880  1.0000
  N   N20       1.0  0.84523  0.35908  0.33434  1.0000
  N   N21       1.0  0.84943  0.14196  0.33760  1.0000
  C   C103      1.0  0.72819  0.53803  0.34356  1.0000
  C   C104      1.0  0.81494  0.62435  0.33803  1.0000
  C   C105      1.0  0.84529  0.68276  0.33932  1.0000
  C   C106      1.0  0.81667  0.66848  0.34446  1.0000
  C   C107      1.0  0.80187  0.63994  0.34392  1.0000
  C   C108      1.0  0.71126  0.54923  0.32776  1.0000
  C   C109      1.0  0.68275  0.53268  0.32549  1.0000
  C   C110      1.0  0.67021  0.50451  0.34115  1.0000
  C   C111      1.0  0.84893  0.52769  0.32540  1.0000
  C   C112      1.0  0.83828  0.54540  0.32717  1.0000
  H   H73       1.0  0.80626  0.67876  0.34764  1.0000
  H   H74       1.0  0.78122  0.63067  0.34810  1.0000
  H   H75       1.0  0.71958  0.56951  0.31551  1.0000
  H   H76       1.0  0.67112  0.54132  0.31225  1.0000
  H   H77       1.0  0.86906  0.53538  0.31217  1.0000
  H   H78       1.0  0.85105  0.56553  0.31458  1.0000
  C   C113      1.0  0.75714  0.55391  0.34229  1.0000
  N   N22       1.0  0.77206  0.58147  0.33998  1.0000
  C   C114      1.0  0.79981  0.59528  0.33875  1.0000
  N   N23       1.0  0.64336  0.48863  0.33444  1.0000
  N   N24       1.0  0.86052  0.70982  0.33766  1.0000
  C   C115      1.0  0.24641  0.12077  0.35794  1.0000
  C   C116      1.0  0.22764  0.10842  0.42999  1.0000
  C   C117      1.0  0.19951  0.09501  0.41131  1.0000
  H   H79       1.0  0.18615  0.08512  0.46283  1.0000
  C   C118      1.0  0.23569  0.10819  0.52543  1.0000
  H   H80       1.0  0.25747  0.12022  0.53658  1.0000
  H   H81       1.0  0.22898  0.08742  0.54626  1.0000
  H   H82       1.0  0.22615  0.11646  0.56900  1.0000
  C   C119      1.0  0.27403  0.13014  0.36802  1.0000
  H   H83       1.0  0.27935  0.11814  0.39969  1.0000
  C   C120      1.0  0.88183  0.12813  0.35786  1.0000
  C   C121      1.0  0.89414  0.12166  0.42996  1.0000
  C   C122      1.0  0.90749  0.10687  0.41133  1.0000
  H   H84       1.0  0.91738  0.10340  0.46286  1.0000
  C   C123      1.0  0.89439  0.12996  0.52539  1.0000
  H   H85       1.0  0.88241  0.13977  0.53652  1.0000
  H   H86       1.0  0.91518  0.14397  0.54623  1.0000
  H   H87       1.0  0.88608  0.11215  0.56897  1.0000
  C   C124      1.0  0.87248  0.14639  0.36798  1.0000
  H   H88       1.0  0.88448  0.16369  0.39964  1.0000
  C   C125      1.0  0.87438  0.75606  0.35792  1.0000
  C   C126      1.0  0.88082  0.77483  0.42998  1.0000
  C   C127      1.0  0.89558  0.80296  0.41131  1.0000
  H   H89       1.0  0.89906  0.81632  0.46283  1.0000
  C   C128      1.0  0.87254  0.76679  0.52541  1.0000
  H   H90       1.0  0.86276  0.74501  0.53656  1.0000
  H   H91       1.0  0.85851  0.77355  0.54625  1.0000
  H   H92       1.0  0.89035  0.77630  0.56898  1.0000
  C   C129      1.0  0.85610  0.72845  0.36799  1.0000
  H   H93       1.0  0.83879  0.72317  0.39965  1.0000
  C   C130      1.0  0.55145  0.15194  0.36722  1.0000
  C   C131      1.0  0.56029  0.14073  0.43606  1.0000
  C   C132      1.0  0.58211  0.13624  0.41798  1.0000
  H   H94       1.0  0.58900  0.12897  0.46866  1.0000
  C   C133      1.0  0.54836  0.13390  0.52827  1.0000
  H   H95       1.0  0.53076  0.13645  0.53636  1.0000
  H   H96       1.0  0.56356  0.14679  0.57769  1.0000
  H   H97       1.0  0.54187  0.11279  0.54346  1.0000
  C   C134      1.0  0.53414  0.16190  0.38520  1.0000
  H   H98       1.0  0.53897  0.17464  0.43688  1.0000
  C   C135      1.0  0.85056  0.40197  0.36722  1.0000
  C   C136      1.0  0.86179  0.42200  0.43606  1.0000
  C   C137      1.0  0.86630  0.44831  0.41795  1.0000
  H   H99       1.0  0.87354  0.46245  0.46866  1.0000
  C   C138      1.0  0.86862  0.41691  0.52828  1.0000
  H   H100      1.0  0.86606  0.39676  0.53641  1.0000
  H   H101      1.0  0.85574  0.41925  0.57770  1.0000
  H   H102      1.0  0.88974  0.43151  0.54346  1.0000
  C   C139      1.0  0.84066  0.37471  0.38524  1.0000
  H   H103      1.0  0.82793  0.36680  0.43695  1.0000
  C   C140      1.0  0.60046  0.45112  0.36724  1.0000
  C   C141      1.0  0.58041  0.44229  0.43608  1.0000
  C   C142      1.0  0.55411  0.42048  0.41799  1.0000
  H   H104      1.0  0.53996  0.41360  0.46867  1.0000
  C   C143      1.0  0.58550  0.45422  0.52828  1.0000
  H   H105      1.0  0.60564  0.47182  0.53637  1.0000
  H   H106      1.0  0.58319  0.43902  0.57771  1.0000
  H   H107      1.0  0.57087  0.46071  0.54347  1.0000
  C   C144      1.0  0.62772  0.46843  0.38524  1.0000
  H   H108      1.0  0.63562  0.46359  0.43696  1.0000
