data_image0
_chemical_formula_structural       C18H17C4HCH3C3HCH3C3NC3NC5NC4NC35H25N2CN2
_chemical_formula_sum              "C78 H50 N8"
_cell_length_a       29.8914
_cell_length_b       29.8912
_cell_length_c       14.844
_cell_angle_alpha    90
_cell_angle_beta     90
_cell_angle_gamma    89.9283

_space_group_name_H-M_alt    "P 1"
_space_group_IT_number       1

loop_
  _space_group_symop_operation_xyz
  'x, y, z'

loop_
  _atom_site_type_symbol
  _atom_site_label
  _atom_site_symmetry_multiplicity
  _atom_site_fract_x
  _atom_site_fract_y
  _atom_site_fract_z
  _atom_site_occupancy
  C   C1        1.0  0.09789  0.04850  0.35115  1.0000
  C   C2        1.0  0.99301  0.24163  0.26768  1.0000
  C   C3        1.0  0.99396  0.19452  0.26853  1.0000
  C   C4        1.0  0.96603  0.33837  0.29653  1.0000
  C   C5        1.0  0.96595  0.38543  0.29227  1.0000
  C   C6        1.0  0.99914  0.41069  0.33692  1.0000
  C   C7        1.0  0.23801  0.00859  0.26677  1.0000
  C   C8        1.0  0.19090  0.00870  0.26804  1.0000
  C   C9        1.0  0.38201  0.03473  0.28259  1.0000
  C   C10       1.0  0.33496  0.03492  0.28668  1.0000
  C   C11       1.0  0.00580  0.81670  0.26824  1.0000
  C   C12       1.0  0.00633  0.76959  0.26674  1.0000
  C   C13       1.0  0.03384  0.62576  0.28239  1.0000
  C   C14       1.0  0.03365  0.67280  0.28676  1.0000
  C   C15       1.0  0.81284  0.99690  0.26951  1.0000
  C   C16       1.0  0.76575  0.99571  0.26902  1.0000
  C   C17       1.0  0.66956  0.96750  0.29962  1.0000
  C   C18       1.0  0.62250  0.96688  0.29558  1.0000
  H   H1        1.0  0.60709  0.94198  0.25991  1.0000
  H   H2        1.0  0.68684  0.94277  0.26695  1.0000
  H   H3        1.0  0.74986  0.99031  0.20893  1.0000
  H   H4        1.0  0.82978  0.99169  0.21048  1.0000
  H   H5        1.0  0.00783  0.83386  0.20870  1.0000
  H   H6        1.0  0.00812  0.75400  0.20548  1.0000
  H   H7        1.0  0.09232  0.15641  0.34786  1.0000
  H   H8        1.0  0.17383  0.01085  0.20839  1.0000
  H   H9        1.0  0.25368  0.01006  0.20556  1.0000
  H   H10       1.0  0.31803  0.05704  0.24655  1.0000
  H   H11       1.0  0.39724  0.05675  0.23971  1.0000
  H   H12       1.0  0.98901  0.17750  0.20951  1.0000
  H   H13       1.0  0.98798  0.25743  0.20736  1.0000
  H   H14       1.0  0.94145  0.40114  0.25586  1.0000
  H   H15       1.0  0.94133  0.32140  0.26325  1.0000
  H   H16       1.0  0.05584  0.68992  0.24720  1.0000
  H   H17       1.0  0.05621  0.61071  0.23993  1.0000
  C   C19       1.0  0.00388  0.55195  0.33038  1.0000
  C   C20       1.0  0.01099  0.52833  0.24905  1.0000
  C   C21       1.0  0.00956  0.48101  0.24668  1.0000
  C   C22       1.0  0.00076  0.45802  0.32864  1.0000
  H   H18       1.0  0.01638  0.54566  0.19064  1.0000
  C   C23       1.0  0.01890  0.45704  0.16087  1.0000
  H   H19       1.0  0.02831  0.47976  0.10646  1.0000
  H   H20       1.0  0.98928  0.43876  0.13911  1.0000
  H   H21       1.0  0.04640  0.43346  0.17051  1.0000
  C   C24       1.0  0.47927  0.01069  0.25019  1.0000
  C   C25       1.0  0.52659  0.00923  0.24809  1.0000
  C   C26       1.0  0.54951  0.00142  0.33059  1.0000
  H   H22       1.0  0.46197  0.01545  0.19150  1.0000
  C   C27       1.0  0.55060  0.01760  0.16194  1.0000
  H   H23       1.0  0.52790  0.02647  0.10709  1.0000
  H   H24       1.0  0.56890  0.98772  0.14151  1.0000
  H   H25       1.0  0.57415  0.04515  0.17042  1.0000
  C   C28       1.0  0.88587  0.08837  0.35036  1.0000
  C   C29       1.0  0.91843  0.12110  0.35066  1.0000
  C   C30       1.0  0.96032  0.10026  0.35067  1.0000
  N   N1        1.0  0.95145  0.05572  0.35114  1.0000
  C   C31       1.0  0.90696  0.04662  0.35107  1.0000
  C   C32       1.0  0.88438  0.00466  0.35117  1.0000
  C   C33       1.0  0.90614  0.96233  0.35153  1.0000
  N   N2        1.0  0.95059  0.95375  0.35156  1.0000
  C   C34       1.0  0.95944  0.90935  0.35209  1.0000
  C   C35       1.0  0.91789  0.88803  0.35238  1.0000
  C   C36       1.0  0.88511  0.92061  0.35241  1.0000
  C   C37       1.0  0.00187  0.88785  0.35197  1.0000
  C   C38       1.0  0.04372  0.91060  0.35178  1.0000
  N   N3        1.0  0.05257  0.95513  0.35231  1.0000
  C   C39       1.0  0.09705  0.96419  0.35184  1.0000
  C   C40       1.0  0.11814  0.92243  0.35110  1.0000
  C   C41       1.0  0.08558  0.88971  0.35123  1.0000
  C   C42       1.0  0.11960  0.00615  0.35156  1.0000
  N   N4        1.0  0.05345  0.05714  0.35168  1.0000
  C   C43       1.0  0.04462  0.10155  0.35080  1.0000
  C   C44       1.0  0.08622  0.12278  0.34935  1.0000
  C   C45       1.0  0.11898  0.09016  0.34991  1.0000
  C   C46       1.0  0.00217  0.12307  0.35055  1.0000
  C   C47       1.0  0.00161  0.17093  0.34953  1.0000
  C   C48       1.0  0.00861  0.19567  0.42939  1.0000
  C   C49       1.0  0.00797  0.24280  0.42815  1.0000
  C   C50       1.0  0.99996  0.26682  0.34739  1.0000
  C   C51       1.0  0.99907  0.31481  0.34597  1.0000
  C   C52       1.0  0.03142  0.38759  0.38866  1.0000
  C   C53       1.0  0.03141  0.34048  0.39286  1.0000
  C   C54       1.0  0.16742  0.00582  0.35034  1.0000
  C   C55       1.0  0.19218  0.00254  0.43111  1.0000
  C   C56       1.0  0.23932  0.00236  0.42949  1.0000
  C   C57       1.0  0.26334  0.00559  0.34737  1.0000
  C   C58       1.0  0.31140  0.00603  0.34551  1.0000
  C   C59       1.0  0.33725  0.97770  0.40172  1.0000
  C   C60       1.0  0.38440  0.97774  0.39816  1.0000
  C   C61       1.0  0.40780  0.00575  0.33741  1.0000
  C   C62       1.0  0.00238  0.84004  0.35063  1.0000
  C   C63       1.0  0.00339  0.74416  0.34720  1.0000
  C   C64       1.0  0.99966  0.76803  0.42941  1.0000
  C   C65       1.0  0.99926  0.81517  0.43126  1.0000
  C   C66       1.0  0.00426  0.69612  0.34509  1.0000
  C   C67       1.0  0.97581  0.67006  0.40049  1.0000
  C   C68       1.0  0.97620  0.62292  0.39658  1.0000
  C   C69       1.0  0.00473  0.59974  0.33636  1.0000
  C   C70       1.0  0.83652  0.00482  0.35028  1.0000
  C   C71       1.0  0.81189  0.01192  0.43026  1.0000
  C   C72       1.0  0.76476  0.01109  0.42936  1.0000
  C   C73       1.0  0.74067  0.00265  0.34890  1.0000
  C   C74       1.0  0.69272  0.00117  0.34794  1.0000
  C   C75       1.0  0.59685  0.00017  0.33923  1.0000
  C   C76       1.0  0.61957  0.03303  0.39000  1.0000
  C   C77       1.0  0.66669  0.03355  0.39408  1.0000
  H   H26       1.0  0.60201  0.05784  0.42191  1.0000
  H   H27       1.0  0.68188  0.05895  0.42865  1.0000
  H   H28       1.0  0.74815  0.01561  0.48895  1.0000
  H   H29       1.0  0.82817  0.01744  0.48990  1.0000
  H   H30       1.0  0.85226  0.09468  0.34989  1.0000
  H   H31       1.0  0.91192  0.15468  0.35062  1.0000
  H   H32       1.0  0.97424  0.03306  0.35127  1.0000
  H   H33       1.0  0.02980  0.97780  0.35300  1.0000
  H   H34       1.0  0.85151  0.91431  0.35307  1.0000
  H   H35       1.0  0.91184  0.85438  0.35282  1.0000
  H   H36       1.0  0.99684  0.83125  0.49196  1.0000
  H   H37       1.0  0.99819  0.75126  0.48942  1.0000
  H   H38       1.0  0.09202  0.85611  0.35084  1.0000
  H   H39       1.0  0.15177  0.91614  0.35040  1.0000
  H   H40       1.0  0.15260  0.09637  0.34902  1.0000
  H   H41       1.0  0.17600  0.00054  0.49177  1.0000
  H   H42       1.0  0.25599  0.00087  0.48961  1.0000
  H   H43       1.0  0.40150  0.95590  0.43864  1.0000
  H   H44       1.0  0.32190  0.95568  0.44448  1.0000
  H   H45       1.0  0.05640  0.32499  0.42827  1.0000
  H   H46       1.0  0.05612  0.40486  0.42138  1.0000
  H   H47       1.0  0.01254  0.25948  0.48763  1.0000
  H   H48       1.0  0.01411  0.17947  0.48915  1.0000
  H   H49       1.0  0.95343  0.68524  0.44279  1.0000
  H   H50       1.0  0.95423  0.60567  0.43642  1.0000
  N   N5        1.0  0.99451  0.48295  0.40424  1.0000
  N   N6        1.0  0.99575  0.52673  0.40488  1.0000
  C   C78       1.0  0.45557  0.00459  0.33174  1.0000
  N   N7        1.0  0.52450  0.99609  0.40635  1.0000
  N   N8        1.0  0.48071  0.99734  0.40675  1.0000
