data_image0
_chemical_formula_structural       CHC2OCH2CHC2OCH5CHC3H3CNHCNHNCN2CNCNCNCNC3NOH2C3NOCH2CNCNHCNHNCN2CNCNCNCNC3NOCH3C3NOCNCNHCNHCNHCNCNCNCNCNCNC3NOCH3C3NOCH3C3NOCH3CNHCNHCNHCNCNCNCNCNCNC3NOCH3C3NOCH3C3NOCH3
_chemical_formula_sum              "C84 H48 O12 N48"
_cell_length_a       29.0442
_cell_length_b       29.0442
_cell_length_c       14.8587
_cell_angle_alpha    90
_cell_angle_beta     90
_cell_angle_gamma    120

_space_group_name_H-M_alt    "P 1"
_space_group_IT_number       1

loop_
  _space_group_symop_operation_xyz
  'x, y, z'

loop_
  _atom_site_type_symbol
  _atom_site_label
  _atom_site_symmetry_multiplicity
  _atom_site_fract_x
  _atom_site_fract_y
  _atom_site_fract_z
  _atom_site_occupancy
  C   C1        1.0  0.03961  0.22132  0.37206  1.0000
  H   H1        1.0  0.05822  0.19940  0.37334  1.0000
  C   C2        1.0  0.03785  0.30322  0.37036  1.0000
  C   C3        1.0  0.06890  0.27774  0.37219  1.0000
  O   O1        1.0  0.06016  0.35755  0.36693  1.0000
  C   C4        1.0  0.03521  0.37992  0.42165  1.0000
  H   H2        1.0  0.05803  0.42307  0.41580  1.0000
  H   H3        1.0  0.03432  0.36920  0.49238  1.0000
  C   C5        1.0  0.03814  0.72049  0.35476  1.0000
  H   H4        1.0  0.05699  0.69948  0.34172  1.0000
  C   C6        1.0  0.03582  0.79918  0.39578  1.0000
  C   C7        1.0  0.06711  0.77509  0.37803  1.0000
  O   O2        1.0  0.05589  0.84825  0.43428  1.0000
  C   C8        1.0  0.05221  0.84528  0.53118  1.0000
  H   H5        1.0  0.06826  0.88530  0.55794  1.0000
  H   H6        1.0  0.07536  0.82845  0.55936  1.0000
  H   H7        1.0  0.09382  0.14371  0.46648  1.0000
  H   H8        1.0  0.08848  0.95478  0.43179  1.0000
  H   H9        1.0  0.01095  0.82185  0.55374  1.0000
  C   C9        1.0  0.12530  0.30538  0.37229  1.0000
  H   H10       1.0  0.12603  0.43958  0.54726  1.0000
  C   C10       1.0  0.12335  0.80326  0.38219  1.0000
  C   C11       1.0  0.13166  0.97720  0.43724  1.0000
  C   C12       1.0  0.13700  0.16837  0.46790  1.0000
  H   H11       1.0  0.14258  0.97772  0.50776  1.0000
  H   H12       1.0  0.14491  0.01777  0.41494  1.0000
  H   H13       1.0  0.99479  0.36699  0.39884  1.0000
  C   C13       1.0  0.29108  0.30149  0.36116  1.0000
  N   N1        1.0  0.31745  0.27391  0.36061  1.0000
  H   H14       1.0  0.31336  0.34199  0.35762  1.0000
  C   C14       1.0  0.29122  0.47282  0.34368  1.0000
  N   N2        1.0  0.31660  0.02572  0.37852  1.0000
  H   H15       1.0  0.31249  0.45428  0.33033  1.0000
  N   N3        1.0  0.48571  0.19421  0.36966  1.0000
  C   C15       1.0  0.20845  0.38710  0.36861  1.0000
  N   N4        1.0  0.15444  0.35929  0.37197  1.0000
  N   N5        1.0  0.15328  0.27926  0.37030  1.0000
  C   C16       1.0  0.20731  0.30407  0.36713  1.0000
  N   N6        1.0  0.23364  0.35824  0.36513  1.0000
  C   C17       1.0  0.31970  0.11022  0.37034  1.0000
  N   N7        1.0  0.37368  0.13763  0.36892  1.0000
  C   C18       1.0  0.40134  0.19158  0.36540  1.0000
  N   N8        1.0  0.37376  0.21812  0.36350  1.0000
  C   C19       1.0  0.31975  0.19208  0.36486  1.0000
  N   N9        1.0  0.29348  0.13808  0.36855  1.0000
  C   C20       1.0  0.20904  0.21873  0.37189  1.0000
  C   C21       1.0  0.23480  0.27514  0.36635  1.0000
  C   C22       1.0  0.29182  0.22000  0.36451  1.0000
  N   N10       1.0  0.23798  0.19368  0.36977  1.0000
  O   O3        1.0  0.15506  0.18672  0.37781  1.0000
  H   H16       1.0  0.15326  0.14414  0.49346  1.0000
  H   H17       1.0  0.14739  0.20157  0.51381  1.0000
  C   C23       1.0  0.21199  0.47419  0.38431  1.0000
  C   C24       1.0  0.23646  0.44335  0.36568  1.0000
  C   C25       1.0  0.29161  0.05456  0.37521  1.0000
  N   N11       1.0  0.23784  0.02785  0.37721  1.0000
  O   O4        1.0  0.16298  0.45366  0.42323  1.0000
  C   C26       1.0  0.16602  0.45587  0.52023  1.0000
  H   H18       1.0  0.18269  0.43216  0.54653  1.0000
  H   H19       1.0  0.18962  0.49675  0.54448  1.0000
  C   C27       1.0  0.45705  0.21938  0.36646  1.0000
  N   N12       1.0  0.48397  0.27315  0.36613  1.0000
  C   C28       1.0  0.20883  0.72049  0.37270  1.0000
  N   N13       1.0  0.23640  0.69414  0.36905  1.0000
  H   H20       1.0  0.16830  0.69825  0.36988  1.0000
  C   C29       1.0  0.28933  0.97189  0.38338  1.0000
  N   N14       1.0  0.31688  0.52668  0.33777  1.0000
  H   H21       1.0  0.31113  0.95315  0.38427  1.0000
  N   N15       1.0  0.48440  0.69468  0.34660  1.0000
  C   C30       1.0  0.20510  0.88638  0.38628  1.0000
  N   N16       1.0  0.15115  0.85728  0.38587  1.0000
  N   N17       1.0  0.15223  0.77808  0.37855  1.0000
  C   C31       1.0  0.20638  0.80432  0.38070  1.0000
  N   N18       1.0  0.23117  0.85834  0.38398  1.0000
  C   C32       1.0  0.31876  0.61056  0.35031  1.0000
  N   N19       1.0  0.37268  0.63836  0.34710  1.0000
  C   C33       1.0  0.40015  0.69212  0.35495  1.0000
  N   N20       1.0  0.37233  0.71813  0.36433  1.0000
  C   C34       1.0  0.31826  0.69184  0.36511  1.0000
  N   N21       1.0  0.29222  0.63788  0.35961  1.0000
  C   C35       1.0  0.29167  0.80241  0.38299  1.0000
  C   C36       1.0  0.23523  0.77674  0.37873  1.0000
  C   C37       1.0  0.29035  0.71970  0.37126  1.0000
  N   N22       1.0  0.31670  0.77351  0.37786  1.0000
  O   O5        1.0  0.32373  0.85636  0.38930  1.0000
  C   C38       1.0  0.34231  0.87406  0.47942  1.0000
  H   H22       1.0  0.30924  0.86357  0.52568  1.0000
  H   H23       1.0  0.36703  0.91724  0.47839  1.0000
  H   H24       1.0  0.36653  0.85764  0.50426  1.0000
  C   C39       1.0  0.20764  0.97405  0.38369  1.0000
  C   C40       1.0  0.23291  0.94279  0.38536  1.0000
  C   C41       1.0  0.29167  0.55485  0.35160  1.0000
  N   N23       1.0  0.23979  0.52783  0.37583  1.0000
  O   O6        1.0  0.15333  0.95193  0.38165  1.0000
  C   C42       1.0  0.45581  0.71950  0.35973  1.0000
  N   N24       1.0  0.48228  0.77119  0.38524  1.0000
  C   C43       1.0  0.79108  0.30149  0.36116  1.0000
  N   N25       1.0  0.81745  0.27391  0.36061  1.0000
  H   H25       1.0  0.81336  0.34199  0.35762  1.0000
  C   C44       1.0  0.79122  0.47282  0.34368  1.0000
  N   N26       1.0  0.81660  0.02572  0.37852  1.0000
  H   H26       1.0  0.81249  0.45428  0.33033  1.0000
  C   C45       1.0  0.53961  0.22132  0.37206  1.0000
  N   N27       1.0  0.98571  0.19421  0.36966  1.0000
  H   H27       1.0  0.55822  0.19940  0.37334  1.0000
  C   C46       1.0  0.70845  0.38710  0.36861  1.0000
  N   N28       1.0  0.65444  0.35929  0.37197  1.0000
  C   C47       1.0  0.62530  0.30538  0.37229  1.0000
  N   N29       1.0  0.65329  0.27926  0.37030  1.0000
  C   C48       1.0  0.70730  0.30407  0.36713  1.0000
  N   N30       1.0  0.73364  0.35824  0.36513  1.0000
  C   C49       1.0  0.81970  0.11022  0.37034  1.0000
  N   N31       1.0  0.87368  0.13763  0.36892  1.0000
  C   C50       1.0  0.90134  0.19158  0.36540  1.0000
  N   N32       1.0  0.87376  0.21812  0.36350  1.0000
  C   C51       1.0  0.81975  0.19208  0.36486  1.0000
  N   N33       1.0  0.79349  0.13808  0.36855  1.0000
  C   C52       1.0  0.70904  0.21873  0.37189  1.0000
  C   C53       1.0  0.73480  0.27514  0.36635  1.0000
  C   C54       1.0  0.79182  0.22000  0.36451  1.0000
  N   N34       1.0  0.73798  0.19368  0.36977  1.0000
  O   O7        1.0  0.65506  0.18672  0.37781  1.0000
  C   C55       1.0  0.63700  0.16837  0.46790  1.0000
  H   H28       1.0  0.65326  0.14414  0.49346  1.0000
  H   H29       1.0  0.59382  0.14371  0.46648  1.0000
  H   H30       1.0  0.64739  0.20157  0.51381  1.0000
  C   C56       1.0  0.71199  0.47419  0.38431  1.0000
  C   C57       1.0  0.73646  0.44335  0.36568  1.0000
  C   C58       1.0  0.79161  0.05456  0.37521  1.0000
  N   N35       1.0  0.73784  0.02785  0.37721  1.0000
  O   O8        1.0  0.66298  0.45366  0.42323  1.0000
  C   C59       1.0  0.66602  0.45587  0.52023  1.0000
  H   H31       1.0  0.68269  0.43216  0.54653  1.0000
  H   H32       1.0  0.62603  0.43958  0.54726  1.0000
  H   H33       1.0  0.68962  0.49675  0.54448  1.0000
  C   C60       1.0  0.53785  0.30322  0.37036  1.0000
  C   C61       1.0  0.56890  0.27774  0.37219  1.0000
  C   C62       1.0  0.95705  0.21938  0.36646  1.0000
  N   N36       1.0  0.98397  0.27315  0.36613  1.0000
  O   O9        1.0  0.56016  0.35755  0.36693  1.0000
  C   C63       1.0  0.53521  0.37992  0.42165  1.0000
  H   H34       1.0  0.49480  0.36699  0.39884  1.0000
  H   H35       1.0  0.55803  0.42307  0.41580  1.0000
  H   H36       1.0  0.53432  0.36920  0.49238  1.0000
  C   C64       1.0  0.70883  0.72049  0.37270  1.0000
  N   N37       1.0  0.73641  0.69414  0.36905  1.0000
  H   H37       1.0  0.66830  0.69825  0.36988  1.0000
  C   C65       1.0  0.78933  0.97189  0.38338  1.0000
  N   N38       1.0  0.81688  0.52668  0.33777  1.0000
  H   H38       1.0  0.81114  0.95315  0.38427  1.0000
  C   C66       1.0  0.53814  0.72049  0.35476  1.0000
  N   N39       1.0  0.98440  0.69468  0.34660  1.0000
  H   H39       1.0  0.55699  0.69948  0.34172  1.0000
  C   C67       1.0  0.70510  0.88638  0.38628  1.0000
  N   N40       1.0  0.65115  0.85728  0.38587  1.0000
  C   C68       1.0  0.62335  0.80326  0.38219  1.0000
  N   N41       1.0  0.65223  0.77808  0.37855  1.0000
  C   C69       1.0  0.70638  0.80432  0.38070  1.0000
  N   N42       1.0  0.73117  0.85834  0.38398  1.0000
  C   C70       1.0  0.81877  0.61056  0.35031  1.0000
  N   N43       1.0  0.87269  0.63836  0.34710  1.0000
  C   C71       1.0  0.90015  0.69212  0.35495  1.0000
  N   N44       1.0  0.87233  0.71813  0.36433  1.0000
  C   C72       1.0  0.81826  0.69184  0.36511  1.0000
  N   N45       1.0  0.79222  0.63788  0.35961  1.0000
  C   C73       1.0  0.79167  0.80241  0.38299  1.0000
  C   C74       1.0  0.73523  0.77674  0.37873  1.0000
  C   C75       1.0  0.79035  0.71970  0.37126  1.0000
  N   N46       1.0  0.81670  0.77351  0.37786  1.0000
  O   O10       1.0  0.82374  0.85636  0.38930  1.0000
  C   C76       1.0  0.84231  0.87406  0.47942  1.0000
  H   H40       1.0  0.80924  0.86357  0.52568  1.0000
  H   H41       1.0  0.86703  0.91724  0.47839  1.0000
  H   H42       1.0  0.86653  0.85764  0.50426  1.0000
  C   C77       1.0  0.70765  0.97405  0.38369  1.0000
  C   C78       1.0  0.73291  0.94279  0.38536  1.0000
  C   C79       1.0  0.79167  0.55485  0.35160  1.0000
  N   N47       1.0  0.73979  0.52783  0.37583  1.0000
  O   O11       1.0  0.65333  0.95193  0.38165  1.0000
  C   C80       1.0  0.63166  0.97720  0.43724  1.0000
  H   H43       1.0  0.64258  0.97772  0.50776  1.0000
  H   H44       1.0  0.58848  0.95478  0.43179  1.0000
  H   H45       1.0  0.64491  0.01777  0.41494  1.0000
  C   C81       1.0  0.53582  0.79918  0.39578  1.0000
  C   C82       1.0  0.56711  0.77509  0.37803  1.0000
  C   C83       1.0  0.95581  0.71950  0.35973  1.0000
  N   N48       1.0  0.98228  0.77119  0.38524  1.0000
  O   O12       1.0  0.55589  0.84825  0.43428  1.0000
  C   C84       1.0  0.55221  0.84528  0.53118  1.0000
  H   H46       1.0  0.51096  0.82185  0.55374  1.0000
  H   H47       1.0  0.56826  0.88530  0.55794  1.0000
  H   H48       1.0  0.57536  0.82845  0.55936  1.0000
