data_image0
_chemical_formula_structural       NCHNCHNCHNCHNCHNCHC2NC2OHC2NC2OHC2NC2OHC2NC2OHC2NC2OHC2NC2OHC2NC2OHC2NC2OHC2NC2OHC2NC2OHC2NC2OHC2NC2OHC6H3C6H3C6H3C6H3C6H3C6H3C6H3C6H3C6H3C6H3C6H3C6H3C2NC2OHC2NC2OHC2NC2OHC2NC2OHC2NC2OHC2NC2OHNCHNCHNCHNCHNCHNCHNCHNCHNCHNCHNCHNCH
_chemical_formula_sum              "N36 C162 H72 O18"
_cell_length_a       37.2953
_cell_length_b       37.2952
_cell_length_c       14.8345
_cell_angle_alpha    90
_cell_angle_beta     90
_cell_angle_gamma    120

_space_group_name_H-M_alt    "P 1"
_space_group_IT_number       1

loop_
  _space_group_symop_operation_xyz
  'x, y, z'

loop_
  _atom_site_type_symbol
  _atom_site_label
  _atom_site_symmetry_multiplicity
  _atom_site_fract_x
  _atom_site_fract_y
  _atom_site_fract_z
  _atom_site_occupancy
  N   N1        1.0  0.21794  0.37413  0.32884  1.0000
  C   C1        1.0  0.24231  0.41581  0.32198  1.0000
  H   H1        1.0  0.26763  0.42733  0.28091  1.0000
  N   N2        1.0  0.63107  0.83779  0.32842  1.0000
  C   C2        1.0  0.58939  0.82045  0.32152  1.0000
  H   H2        1.0  0.57785  0.83425  0.28047  1.0000
  N   N3        1.0  0.16725  0.78723  0.32847  1.0000
  C   C3        1.0  0.18453  0.76284  0.32164  1.0000
  H   H3        1.0  0.17069  0.73748  0.28068  1.0000
  N   N4        1.0  0.79296  0.62526  0.32896  1.0000
  C   C4        1.0  0.76860  0.58357  0.32226  1.0000
  H   H4        1.0  0.74329  0.57201  0.28116  1.0000
  N   N5        1.0  0.37985  0.16160  0.32875  1.0000
  C   C5        1.0  0.42153  0.17887  0.32195  1.0000
  H   H5        1.0  0.43303  0.16507  0.28079  1.0000
  N   N6        1.0  0.84357  0.21223  0.32834  1.0000
  C   C6        1.0  0.82628  0.23661  0.32136  1.0000
  H   H6        1.0  0.84013  0.26195  0.28033  1.0000
  C   C7        1.0  0.18457  0.22209  0.36051  1.0000
  C   C8        1.0  0.22539  0.17520  0.36409  1.0000
  N   N7        1.0  0.24001  0.21099  0.31645  1.0000
  C   C9        1.0  0.22186  0.23493  0.31099  1.0000
  C   C10       1.0  0.23935  0.26883  0.25367  1.0000
  O   O1        1.0  0.27344  0.28036  0.22062  1.0000
  H   H7        1.0  0.21976  0.27237  0.21457  1.0000
  C   C11       1.0  0.78314  0.95650  0.36020  1.0000
  C   C12       1.0  0.83001  0.04421  0.36388  1.0000
  N   N8        1.0  0.79429  0.02304  0.31602  1.0000
  C   C13       1.0  0.77037  0.98096  0.31050  1.0000
  C   C14       1.0  0.73663  0.96466  0.25294  1.0000
  O   O2        1.0  0.72511  0.98700  0.21863  1.0000
  H   H8        1.0  0.73200  0.94075  0.21516  1.0000
  C   C15       1.0  0.04865  0.82069  0.36001  1.0000
  C   C16       1.0  0.96094  0.77983  0.36372  1.0000
  N   N9        1.0  0.98211  0.76528  0.31583  1.0000
  C   C17       1.0  0.02419  0.78347  0.31026  1.0000
  C   C18       1.0  0.04050  0.76601  0.25277  1.0000
  O   O3        1.0  0.01816  0.73215  0.21846  1.0000
  H   H9        1.0  0.06442  0.78528  0.21501  1.0000
  C   C19       1.0  0.82631  0.77734  0.36032  1.0000
  C   C20       1.0  0.78555  0.82429  0.36386  1.0000
  N   N10       1.0  0.77093  0.78852  0.31617  1.0000
  C   C21       1.0  0.78905  0.76455  0.31068  1.0000
  C   C22       1.0  0.77161  0.73064  0.25342  1.0000
  O   O4        1.0  0.73781  0.71965  0.21925  1.0000
  H   H10       1.0  0.79086  0.72641  0.21479  1.0000
  C   C23       1.0  0.22778  0.04299  0.36032  1.0000
  C   C24       1.0  0.18084  0.95529  0.36379  1.0000
  N   N11       1.0  0.21663  0.97645  0.31615  1.0000
  C   C25       1.0  0.24059  0.01853  0.31073  1.0000
  C   C26       1.0  0.27448  0.03494  0.25340  1.0000
  O   O5        1.0  0.28599  0.01238  0.22029  1.0000
  H   H11       1.0  0.27804  0.05809  0.21435  1.0000
  C   C27       1.0  0.96220  0.17881  0.36030  1.0000
  C   C28       1.0  0.04992  0.21962  0.36391  1.0000
  N   N12       1.0  0.02875  0.23420  0.31608  1.0000
  C   C29       1.0  0.98667  0.21604  0.31059  1.0000
  C   C30       1.0  0.97038  0.23350  0.25305  1.0000
  O   O6        1.0  0.99272  0.26736  0.21875  1.0000
  H   H12       1.0  0.94646  0.21422  0.21526  1.0000
  C   C31       1.0  0.22549  0.64583  0.28942  1.0000
  C   C32       1.0  0.22882  0.57196  0.29853  1.0000
  N   N13       1.0  0.23917  0.59595  0.22342  1.0000
  C   C33       1.0  0.23569  0.63013  0.21204  1.0000
  C   C34       1.0  0.24801  0.65102  0.13045  1.0000
  O   O7        1.0  0.25341  0.63448  0.06475  1.0000
  H   H13       1.0  0.23794  0.67048  0.11597  1.0000
  C   C35       1.0  0.35919  0.57393  0.28993  1.0000
  C   C36       1.0  0.43316  0.65083  0.29953  1.0000
  N   N14       1.0  0.40924  0.63738  0.22426  1.0000
  C   C37       1.0  0.37496  0.59981  0.21251  1.0000
  C   C38       1.0  0.35415  0.59132  0.13072  1.0000
  O   O8        1.0  0.37220  0.61254  0.06502  1.0000
  H   H14       1.0  0.33450  0.56187  0.11653  1.0000
  C   C39       1.0  0.43123  0.77927  0.29034  1.0000
  C   C40       1.0  0.35405  0.77599  0.29926  1.0000
  N   N15       1.0  0.36770  0.76557  0.22428  1.0000
  C   C41       1.0  0.40536  0.76905  0.21283  1.0000
  C   C42       1.0  0.41384  0.75653  0.13123  1.0000
  O   O9        1.0  0.39198  0.75182  0.06579  1.0000
  H   H15       1.0  0.44348  0.76709  0.11730  1.0000
  C   C43       1.0  0.78519  0.35359  0.28878  1.0000
  C   C44       1.0  0.78206  0.42744  0.29927  1.0000
  N   N16       1.0  0.77160  0.40362  0.22383  1.0000
  C   C45       1.0  0.77503  0.36945  0.21166  1.0000
  C   C46       1.0  0.76256  0.34877  0.12987  1.0000
  O   O10       1.0  0.75723  0.36556  0.06454  1.0000
  H   H16       1.0  0.77251  0.32927  0.11490  1.0000
  C   C47       1.0  0.65171  0.42557  0.29066  1.0000
  C   C48       1.0  0.57789  0.34840  0.29958  1.0000
  N   N17       1.0  0.60182  0.36208  0.22441  1.0000
  C   C49       1.0  0.63600  0.39975  0.21318  1.0000
  C   C50       1.0  0.65688  0.40840  0.13156  1.0000
  O   O11       1.0  0.64035  0.38651  0.06579  1.0000
  H   H17       1.0  0.67632  0.43794  0.11717  1.0000
  C   C51       1.0  0.57957  0.21992  0.28958  1.0000
  C   C52       1.0  0.65670  0.22332  0.29824  1.0000
  N   N18       1.0  0.64307  0.23373  0.22321  1.0000
  C   C53       1.0  0.60537  0.23019  0.21194  1.0000
  C   C54       1.0  0.59666  0.24250  0.13037  1.0000
  O   O12       1.0  0.61779  0.24580  0.06442  1.0000
  H   H18       1.0  0.56716  0.23260  0.11648  1.0000
  C   C55       1.0  0.09431  0.24220  0.36576  1.0000
  C   C56       1.0  0.11779  0.22181  0.36474  1.0000
  C   C57       1.0  0.16170  0.24378  0.36534  1.0000
  C   C58       1.0  0.18180  0.28750  0.37321  1.0000
  C   C59       1.0  0.15999  0.30961  0.37451  1.0000
  C   C60       1.0  0.11624  0.28609  0.36761  1.0000
  H   H19       1.0  0.21333  0.30375  0.37976  1.0000
  H   H20       1.0  0.09978  0.30125  0.36477  1.0000
  H   H21       1.0  0.10255  0.19022  0.35918  1.0000
  C   C61       1.0  0.76299  0.84613  0.36565  1.0000
  C   C62       1.0  0.78339  0.88999  0.36456  1.0000
  C   C63       1.0  0.76143  0.91195  0.36506  1.0000
  C   C64       1.0  0.71771  0.88835  0.37288  1.0000
  C   C65       1.0  0.69559  0.84442  0.37430  1.0000
  C   C66       1.0  0.71910  0.82418  0.36748  1.0000
  H   H22       1.0  0.70146  0.90363  0.37934  1.0000
  H   H23       1.0  0.70394  0.79256  0.36468  1.0000
  H   H24       1.0  0.81498  0.90633  0.35902  1.0000
  C   C67       1.0  0.15901  0.91089  0.36557  1.0000
  C   C68       1.0  0.11515  0.88743  0.36451  1.0000
  C   C69       1.0  0.09320  0.84353  0.36492  1.0000
  C   C70       1.0  0.11678  0.82339  0.37275  1.0000
  C   C71       1.0  0.16071  0.84519  0.37420  1.0000
  C   C72       1.0  0.18096  0.88895  0.36743  1.0000
  H   H25       1.0  0.10149  0.79186  0.37919  1.0000
  H   H26       1.0  0.21257  0.90540  0.36465  1.0000
  H   H27       1.0  0.09881  0.90268  0.35882  1.0000
  C   C73       1.0  0.91655  0.75724  0.36563  1.0000
  C   C74       1.0  0.89307  0.77762  0.36464  1.0000
  C   C75       1.0  0.84916  0.75564  0.36520  1.0000
  C   C76       1.0  0.82907  0.71193  0.37314  1.0000
  C   C77       1.0  0.85089  0.68982  0.37452  1.0000
  C   C78       1.0  0.89464  0.71335  0.36756  1.0000
  H   H28       1.0  0.79754  0.69566  0.37971  1.0000
  H   H29       1.0  0.91111  0.69820  0.36473  1.0000
  H   H30       1.0  0.90830  0.80920  0.35888  1.0000
  C   C79       1.0  0.24796  0.15337  0.36586  1.0000
  C   C80       1.0  0.22755  0.10951  0.36479  1.0000
  C   C81       1.0  0.24949  0.08754  0.36524  1.0000
  C   C82       1.0  0.29322  0.11113  0.37309  1.0000
  C   C83       1.0  0.31535  0.15505  0.37451  1.0000
  C   C84       1.0  0.29186  0.17532  0.36774  1.0000
  H   H31       1.0  0.30945  0.09584  0.37958  1.0000
  H   H32       1.0  0.30703  0.20693  0.36497  1.0000
  H   H33       1.0  0.19597  0.09318  0.35908  1.0000
  C   C85       1.0  0.85183  0.08861  0.36571  1.0000
  C   C86       1.0  0.89569  0.11207  0.36470  1.0000
  C   C87       1.0  0.91765  0.15598  0.36518  1.0000
  C   C88       1.0  0.89405  0.17610  0.37296  1.0000
  C   C89       1.0  0.85012  0.15430  0.37426  1.0000
  C   C90       1.0  0.82987  0.11054  0.36748  1.0000
  H   H34       1.0  0.90933  0.20763  0.37937  1.0000
  H   H35       1.0  0.79826  0.09409  0.36460  1.0000
  H   H36       1.0  0.91203  0.09681  0.35912  1.0000
  C   C91       1.0  0.31585  0.54940  0.30482  1.0000
  C   C92       1.0  0.29118  0.56770  0.28879  1.0000
  C   C93       1.0  0.24872  0.54841  0.31136  1.0000
  C   C94       1.0  0.22993  0.50779  0.34694  1.0000
  C   C95       1.0  0.25221  0.48608  0.35403  1.0000
  C   C96       1.0  0.29585  0.50874  0.34000  1.0000
  H   H37       1.0  0.19864  0.49250  0.35791  1.0000
  H   H38       1.0  0.31303  0.49456  0.34898  1.0000
  H   H39       1.0  0.30582  0.59815  0.26915  1.0000
  C   C97       1.0  0.45569  0.76044  0.30563  1.0000
  C   C98       1.0  0.43729  0.71742  0.29012  1.0000
  C   C99       1.0  0.45666  0.69429  0.31229  1.0000
  C   C100      1.0  0.49738  0.71617  0.34733  1.0000
  C   C101      1.0  0.51912  0.76018  0.35417  1.0000
  C   C102      1.0  0.49647  0.78117  0.34011  1.0000
  H   H40       1.0  0.51270  0.70019  0.35812  1.0000
  H   H41       1.0  0.51070  0.81255  0.34886  1.0000
  H   H42       1.0  0.40679  0.70156  0.27086  1.0000
  C   C103      1.0  0.24439  0.68910  0.30508  1.0000
  C   C104      1.0  0.28739  0.71370  0.28942  1.0000
  C   C105      1.0  0.31060  0.75615  0.31200  1.0000
  C   C106      1.0  0.28879  0.77499  0.34741  1.0000
  C   C107      1.0  0.24477  0.75277  0.35420  1.0000
  C   C108      1.0  0.22373  0.70914  0.34004  1.0000
  H   H43       1.0  0.30480  0.80627  0.35839  1.0000
  H   H44       1.0  0.19234  0.69203  0.34859  1.0000
  H   H45       1.0  0.30318  0.69905  0.26968  1.0000
  C   C109      1.0  0.69499  0.44994  0.30626  1.0000
  C   C110      1.0  0.71959  0.43157  0.29041  1.0000
  C   C111      1.0  0.76211  0.45091  0.31253  1.0000
  C   C112      1.0  0.78095  0.49156  0.34799  1.0000
  C   C113      1.0  0.75870  0.51332  0.35480  1.0000
  C   C114      1.0  0.71503  0.49068  0.34100  1.0000
  H   H46       1.0  0.81228  0.50693  0.35827  1.0000
  H   H47       1.0  0.69792  0.50495  0.34960  1.0000
  H   H48       1.0  0.70496  0.40113  0.27068  1.0000
  C   C115      1.0  0.55508  0.23874  0.30491  1.0000
  C   C116      1.0  0.57347  0.28175  0.28929  1.0000
  C   C117      1.0  0.55424  0.30494  0.31223  1.0000
  C   C118      1.0  0.51365  0.28314  0.34798  1.0000
  C   C119      1.0  0.49184  0.23911  0.35441  1.0000
  C   C120      1.0  0.51443  0.21808  0.34012  1.0000
  H   H49       1.0  0.49835  0.29914  0.35877  1.0000
  H   H50       1.0  0.50017  0.18669  0.34867  1.0000
  H   H51       1.0  0.60392  0.29757  0.26973  1.0000
  C   C121      1.0  0.76637  0.31026  0.30381  1.0000
  C   C122      1.0  0.72340  0.28559  0.28772  1.0000
  C   C123      1.0  0.70019  0.24316  0.31064  1.0000
  C   C124      1.0  0.72199  0.22441  0.34664  1.0000
  C   C125      1.0  0.76600  0.24665  0.35345  1.0000
  C   C126      1.0  0.78701  0.29028  0.33921  1.0000
  H   H52       1.0  0.70596  0.19313  0.35762  1.0000
  H   H53       1.0  0.81837  0.30744  0.34815  1.0000
  H   H54       1.0  0.70759  0.30022  0.26809  1.0000
  C   C127      1.0  0.18222  0.35425  0.37747  1.0000
  C   C128      1.0  0.23055  0.44193  0.36611  1.0000
  N   N19       1.0  0.19476  0.42217  0.41439  1.0000
  C   C129      1.0  0.17031  0.38022  0.42381  1.0000
  C   C130      1.0  0.13644  0.36539  0.48064  1.0000
  O   O13       1.0  0.12505  0.38862  0.51053  1.0000
  H   H55       1.0  0.13143  0.34219  0.52125  1.0000
  C   C131      1.0  0.65095  0.82200  0.37722  1.0000
  C   C132      1.0  0.56328  0.78265  0.36593  1.0000
  N   N20       1.0  0.58305  0.76671  0.41447  1.0000
  C   C133      1.0  0.62501  0.78421  0.42388  1.0000
  C   C134      1.0  0.64002  0.76535  0.48092  1.0000
  O   O14       1.0  0.61632  0.73094  0.51128  1.0000
  H   H56       1.0  0.66281  0.78365  0.52215  1.0000
  C   C135      1.0  0.18311  0.82295  0.37710  1.0000
  C   C136      1.0  0.22234  0.77450  0.36601  1.0000
  N   N21       1.0  0.23838  0.81029  0.41431  1.0000
  C   C137      1.0  0.22094  0.83481  0.42359  1.0000
  C   C138      1.0  0.23993  0.86873  0.48049  1.0000
  O   O15       1.0  0.27464  0.87997  0.50959  1.0000
  H   H57       1.0  0.22137  0.87263  0.52222  1.0000
  C   C139      1.0  0.82868  0.64518  0.37757  1.0000
  C   C140      1.0  0.78038  0.55749  0.36650  1.0000
  N   N22       1.0  0.81618  0.57730  0.41474  1.0000
  C   C141      1.0  0.84062  0.61926  0.42399  1.0000
  C   C142      1.0  0.87449  0.63413  0.48086  1.0000
  O   O16       1.0  0.88593  0.61095  0.51079  1.0000
  H   H58       1.0  0.87946  0.65734  0.52143  1.0000
  C   C143      1.0  0.35999  0.17743  0.37749  1.0000
  C   C144      1.0  0.44767  0.21669  0.36627  1.0000
  N   N23       1.0  0.42793  0.23270  0.41468  1.0000
  C   C145      1.0  0.38598  0.21524  0.42403  1.0000
  C   C146      1.0  0.37117  0.23426  0.48097  1.0000
  O   O17       1.0  0.39441  0.26884  0.51102  1.0000
  H   H59       1.0  0.34794  0.21604  0.52150  1.0000
  C   C147      1.0  0.82771  0.17654  0.37709  1.0000
  C   C148      1.0  0.78846  0.22497  0.36563  1.0000
  N   N24       1.0  0.77242  0.18920  0.41401  1.0000
  C   C149      1.0  0.78988  0.16471  0.42353  1.0000
  C   C150      1.0  0.77091  0.13080  0.48046  1.0000
  O   O18       1.0  0.73648  0.12010  0.51062  1.0000
  H   H60       1.0  0.78915  0.12626  0.52178  1.0000
  N   N25       1.0  0.16970  0.18598  0.40749  1.0000
  C   C151      1.0  0.18787  0.16223  0.41071  1.0000
  H   H61       1.0  0.17475  0.13610  0.44943  1.0000
  N   N26       1.0  0.81919  0.97774  0.40741  1.0000
  C   C152      1.0  0.84295  0.01966  0.41060  1.0000
  H   H62       1.0  0.86898  0.03266  0.44964  1.0000
  N   N27       1.0  0.02740  0.83548  0.40724  1.0000
  C   C153      1.0  0.98549  0.81732  0.41046  1.0000
  H   H63       1.0  0.97249  0.83036  0.44947  1.0000
  N   N28       1.0  0.84117  0.81344  0.40736  1.0000
  C   C154      1.0  0.82304  0.83722  0.41055  1.0000
  H   H64       1.0  0.83617  0.86334  0.44933  1.0000
  N   N29       1.0  0.19167  0.02175  0.40732  1.0000
  C   C155      1.0  0.16790  0.97984  0.41048  1.0000
  H   H65       1.0  0.14177  0.96684  0.44922  1.0000
  N   N30       1.0  0.98344  0.16399  0.40747  1.0000
  C   C156      1.0  0.02536  0.18213  0.41064  1.0000
  H   H66       1.0  0.03836  0.16909  0.44966  1.0000
  N   N31       1.0  0.21363  0.62115  0.36432  1.0000
  C   C157      1.0  0.21154  0.58356  0.36975  1.0000
  H   H67       1.0  0.20658  0.56978  0.43156  1.0000
  N   N32       1.0  0.38368  0.58641  0.36506  1.0000
  C   C158      1.0  0.42124  0.62192  0.37076  1.0000
  H   H68       1.0  0.43527  0.63070  0.43234  1.0000
  N   N33       1.0  0.41850  0.79129  0.36512  1.0000
  C   C159      1.0  0.38293  0.79324  0.37049  1.0000
  H   H69       1.0  0.37410  0.79857  0.43193  1.0000
  N   N34       1.0  0.79716  0.37800  0.36406  1.0000
  C   C160      1.0  0.79940  0.41565  0.37008  1.0000
  H   H70       1.0  0.80422  0.42931  0.43197  1.0000
  N   N35       1.0  0.62704  0.41270  0.36558  1.0000
  C   C161      1.0  0.58943  0.37719  0.37095  1.0000
  H   H71       1.0  0.57565  0.36832  0.43274  1.0000
  N   N36       1.0  0.59227  0.20783  0.36427  1.0000
  C   C162      1.0  0.62787  0.20592  0.36948  1.0000
  H   H72       1.0  0.63675  0.20056  0.43083  1.0000
