data_image0
_chemical_formula_structural       C3H2C2HC2O2C3H2NHC3H2NHC3HC4H2C2O2C3H2NHC3H2NHC3H2C2HC2O2C3H2NHC3H2NHC3HC4H2C2O2C3H2NHC3H2NHC3H2C2HC2O2C3H2NHC3H2NHC3HC4H2C2O2C3H2NHC3H2NHC3H2C2HC2O2C3H2NHC3H2NHC3HC4H2C2O2C3H2NHC3H2NH
_chemical_formula_sum              "C112 H72 O16 N16"
_cell_length_a       30.5584
_cell_length_b       30.5584
_cell_length_c       15.1094
_cell_angle_alpha    90
_cell_angle_beta     90
_cell_angle_gamma    90

_space_group_name_H-M_alt    "P 1"
_space_group_IT_number       1

loop_
  _space_group_symop_operation_xyz
  'x, y, z'

loop_
  _atom_site_type_symbol
  _atom_site_label
  _atom_site_symmetry_multiplicity
  _atom_site_fract_x
  _atom_site_fract_y
  _atom_site_fract_z
  _atom_site_occupancy
  C   C1        1.0  0.48843  0.43258  0.33435  1.0000
  C   C2        1.0  0.45627  0.39938  0.33778  1.0000
  C   C3        1.0  0.41239  0.41221  0.32658  1.0000
  H   H1        1.0  0.02036  0.42311  0.33880  1.0000
  H   H2        1.0  0.38878  0.38851  0.32680  1.0000
  C   C4        1.0  0.03735  0.08447  0.27905  1.0000
  C   C5        1.0  0.00406  0.05250  0.28477  1.0000
  H   H3        1.0  0.47599  0.05846  0.25013  1.0000
  C   C6        1.0  0.03071  0.12580  0.23942  1.0000
  C   C7        1.0  0.46533  0.35428  0.35028  1.0000
  O   O1        1.0  0.06698  0.14407  0.20289  1.0000
  O   O2        1.0  0.43106  0.32908  0.37692  1.0000
  C   C8        1.0  0.02564  0.27044  0.23905  1.0000
  C   C9        1.0  0.02307  0.22508  0.22387  1.0000
  C   C10       1.0  0.00654  0.28945  0.31516  1.0000
  H   H4        1.0  0.03374  0.21360  0.16421  1.0000
  H   H5        1.0  0.03801  0.28994  0.18996  1.0000
  N   N1        1.0  0.00238  0.33398  0.32036  1.0000
  H   H6        1.0  0.02110  0.35142  0.28178  1.0000
  C   C11       1.0  0.21542  0.98464  0.28985  1.0000
  C   C12       1.0  0.26044  0.98801  0.27388  1.0000
  C   C13       1.0  0.19638  0.00212  0.36753  1.0000
  H   H7        1.0  0.27209  0.97657  0.21485  1.0000
  H   H8        1.0  0.19622  0.97101  0.24164  1.0000
  N   N2        1.0  0.15182  0.99985  0.37555  1.0000
  H   H9        1.0  0.13729  0.97880  0.33651  1.0000
  C   C14       1.0  0.47779  0.47784  0.32596  1.0000
  C   C15       1.0  0.39937  0.45602  0.31507  1.0000
  C   C16       1.0  0.43247  0.48831  0.31794  1.0000
  H   H10       1.0  0.42288  0.02018  0.31321  1.0000
  C   C17       1.0  0.01092  0.01102  0.32554  1.0000
  C   C18       1.0  0.05257  0.00440  0.36582  1.0000
  C   C19       1.0  0.08444  0.03782  0.37084  1.0000
  C   C20       1.0  0.07669  0.07708  0.32492  1.0000
  H   H11       1.0  0.05864  0.47650  0.40098  1.0000
  H   H12       1.0  0.10031  0.10091  0.32482  1.0000
  C   C21       1.0  0.12579  0.03175  0.41085  1.0000
  C   C22       1.0  0.35422  0.46487  0.30268  1.0000
  O   O3        1.0  0.32917  0.43042  0.27638  1.0000
  O   O4        1.0  0.14449  0.06819  0.44564  1.0000
  C   C23       1.0  0.00237  0.19667  0.28519  1.0000
  C   C24       1.0  0.98542  0.21568  0.36339  1.0000
  C   C25       1.0  0.98896  0.26068  0.37944  1.0000
  H   H13       1.0  0.97193  0.19649  0.41179  1.0000
  H   H14       1.0  0.97776  0.27235  0.43864  1.0000
  N   N3        1.0  0.99979  0.15215  0.27702  1.0000
  H   H15       1.0  0.97908  0.13762  0.31681  1.0000
  C   C26       1.0  0.28922  0.00588  0.33782  1.0000
  C   C27       1.0  0.27019  0.02528  0.41360  1.0000
  C   C28       1.0  0.22480  0.02296  0.42863  1.0000
  H   H16       1.0  0.28967  0.03796  0.46238  1.0000
  H   H17       1.0  0.21326  0.03401  0.48796  1.0000
  N   N4        1.0  0.33376  0.00183  0.33260  1.0000
  H   H18       1.0  0.35118  0.02070  0.37094  1.0000
  C   C29       1.0  0.48843  0.93258  0.33435  1.0000
  C   C30       1.0  0.45627  0.89938  0.33778  1.0000
  C   C31       1.0  0.41239  0.91222  0.32658  1.0000
  H   H19       1.0  0.02036  0.92311  0.33880  1.0000
  H   H20       1.0  0.38878  0.88851  0.32680  1.0000
  C   C32       1.0  0.03735  0.58447  0.27905  1.0000
  C   C33       1.0  0.00406  0.55251  0.28477  1.0000
  H   H21       1.0  0.47599  0.55846  0.25013  1.0000
  C   C34       1.0  0.03071  0.62580  0.23942  1.0000
  C   C35       1.0  0.46533  0.85428  0.35028  1.0000
  O   O5        1.0  0.06698  0.64407  0.20289  1.0000
  O   O6        1.0  0.43106  0.82908  0.37692  1.0000
  C   C36       1.0  0.02564  0.77045  0.23905  1.0000
  C   C37       1.0  0.02307  0.72508  0.22387  1.0000
  C   C38       1.0  0.00654  0.78945  0.31516  1.0000
  H   H22       1.0  0.03374  0.71360  0.16421  1.0000
  H   H23       1.0  0.03801  0.78994  0.18996  1.0000
  N   N5        1.0  0.00238  0.83398  0.32036  1.0000
  H   H24       1.0  0.02110  0.85142  0.28178  1.0000
  C   C39       1.0  0.21542  0.48464  0.28985  1.0000
  C   C40       1.0  0.26044  0.48800  0.27388  1.0000
  C   C41       1.0  0.19638  0.50213  0.36753  1.0000
  H   H25       1.0  0.27209  0.47657  0.21485  1.0000
  H   H26       1.0  0.19622  0.47101  0.24164  1.0000
  N   N6        1.0  0.15182  0.49985  0.37555  1.0000
  H   H27       1.0  0.13729  0.47880  0.33651  1.0000
  C   C42       1.0  0.47779  0.97783  0.32596  1.0000
  C   C43       1.0  0.39937  0.95602  0.31507  1.0000
  C   C44       1.0  0.43247  0.98831  0.31794  1.0000
  H   H28       1.0  0.42288  0.52018  0.31321  1.0000
  C   C45       1.0  0.01092  0.51102  0.32554  1.0000
  C   C46       1.0  0.05257  0.50440  0.36582  1.0000
  C   C47       1.0  0.08444  0.53782  0.37084  1.0000
  C   C48       1.0  0.07669  0.57708  0.32492  1.0000
  H   H29       1.0  0.05864  0.97650  0.40098  1.0000
  H   H30       1.0  0.10031  0.60091  0.32482  1.0000
  C   C49       1.0  0.12579  0.53175  0.41085  1.0000
  C   C50       1.0  0.35422  0.96487  0.30268  1.0000
  O   O7        1.0  0.32917  0.93043  0.27638  1.0000
  O   O8        1.0  0.14449  0.56819  0.44564  1.0000
  C   C51       1.0  0.00237  0.69667  0.28519  1.0000
  C   C52       1.0  0.98542  0.71568  0.36339  1.0000
  C   C53       1.0  0.98896  0.76068  0.37944  1.0000
  H   H31       1.0  0.97193  0.69649  0.41179  1.0000
  H   H32       1.0  0.97776  0.77235  0.43864  1.0000
  N   N7        1.0  0.99979  0.65215  0.27702  1.0000
  H   H33       1.0  0.97908  0.63762  0.31681  1.0000
  C   C54       1.0  0.28922  0.50588  0.33782  1.0000
  C   C55       1.0  0.27019  0.52528  0.41360  1.0000
  C   C56       1.0  0.22480  0.52296  0.42863  1.0000
  H   H34       1.0  0.28967  0.53796  0.46238  1.0000
  H   H35       1.0  0.21326  0.53402  0.48796  1.0000
  N   N8        1.0  0.33376  0.50184  0.33260  1.0000
  H   H36       1.0  0.35118  0.52070  0.37094  1.0000
  C   C57       1.0  0.98843  0.43258  0.33435  1.0000
  C   C58       1.0  0.95628  0.39938  0.33778  1.0000
  C   C59       1.0  0.91240  0.41221  0.32658  1.0000
  H   H37       1.0  0.52036  0.42311  0.33880  1.0000
  H   H38       1.0  0.88879  0.38851  0.32680  1.0000
  C   C60       1.0  0.53735  0.08447  0.27905  1.0000
  C   C61       1.0  0.50406  0.05250  0.28477  1.0000
  H   H39       1.0  0.97598  0.05846  0.25013  1.0000
  C   C62       1.0  0.53071  0.12580  0.23942  1.0000
  C   C63       1.0  0.96533  0.35428  0.35028  1.0000
  O   O9        1.0  0.56699  0.14407  0.20289  1.0000
  O   O10       1.0  0.93106  0.32908  0.37692  1.0000
  C   C64       1.0  0.52564  0.27044  0.23905  1.0000
  C   C65       1.0  0.52307  0.22508  0.22387  1.0000
  C   C66       1.0  0.50654  0.28945  0.31516  1.0000
  H   H40       1.0  0.53374  0.21360  0.16421  1.0000
  H   H41       1.0  0.53801  0.28994  0.18996  1.0000
  N   N9        1.0  0.50238  0.33398  0.32036  1.0000
  H   H42       1.0  0.52110  0.35142  0.28178  1.0000
  C   C67       1.0  0.71542  0.98464  0.28985  1.0000
  C   C68       1.0  0.76044  0.98801  0.27388  1.0000
  C   C69       1.0  0.69638  0.00212  0.36753  1.0000
  H   H43       1.0  0.77209  0.97657  0.21485  1.0000
  H   H44       1.0  0.69622  0.97101  0.24164  1.0000
  N   N10       1.0  0.65182  0.99985  0.37555  1.0000
  H   H45       1.0  0.63729  0.97880  0.33651  1.0000
  C   C70       1.0  0.97779  0.47784  0.32596  1.0000
  C   C71       1.0  0.89937  0.45602  0.31507  1.0000
  C   C72       1.0  0.93247  0.48831  0.31794  1.0000
  H   H46       1.0  0.92288  0.02018  0.31321  1.0000
  C   C73       1.0  0.51092  0.01102  0.32554  1.0000
  C   C74       1.0  0.55257  0.00440  0.36582  1.0000
  C   C75       1.0  0.58444  0.03782  0.37084  1.0000
  C   C76       1.0  0.57669  0.07708  0.32492  1.0000
  H   H47       1.0  0.55864  0.47650  0.40098  1.0000
  H   H48       1.0  0.60031  0.10091  0.32482  1.0000
  C   C77       1.0  0.62579  0.03175  0.41085  1.0000
  C   C78       1.0  0.85422  0.46487  0.30268  1.0000
  O   O11       1.0  0.82917  0.43042  0.27638  1.0000
  O   O12       1.0  0.64449  0.06819  0.44564  1.0000
  C   C79       1.0  0.50237  0.19667  0.28519  1.0000
  C   C80       1.0  0.48542  0.21568  0.36339  1.0000
  C   C81       1.0  0.48897  0.26068  0.37944  1.0000
  H   H49       1.0  0.47193  0.19649  0.41179  1.0000
  H   H50       1.0  0.47776  0.27235  0.43864  1.0000
  N   N11       1.0  0.49979  0.15215  0.27702  1.0000
  H   H51       1.0  0.47907  0.13762  0.31681  1.0000
  C   C82       1.0  0.78922  0.00588  0.33782  1.0000
  C   C83       1.0  0.77019  0.02528  0.41360  1.0000
  C   C84       1.0  0.72480  0.02296  0.42863  1.0000
  H   H52       1.0  0.78967  0.03796  0.46238  1.0000
  H   H53       1.0  0.71326  0.03401  0.48796  1.0000
  N   N12       1.0  0.83376  0.00183  0.33260  1.0000
  H   H54       1.0  0.85118  0.02070  0.37094  1.0000
  C   C85       1.0  0.98843  0.93258  0.33435  1.0000
  C   C86       1.0  0.95628  0.89938  0.33778  1.0000
  C   C87       1.0  0.91240  0.91222  0.32658  1.0000
  H   H55       1.0  0.52036  0.92311  0.33880  1.0000
  H   H56       1.0  0.88879  0.88851  0.32680  1.0000
  C   C88       1.0  0.53735  0.58447  0.27905  1.0000
  C   C89       1.0  0.50406  0.55251  0.28477  1.0000
  H   H57       1.0  0.97598  0.55846  0.25013  1.0000
  C   C90       1.0  0.53071  0.62580  0.23942  1.0000
  C   C91       1.0  0.96533  0.85428  0.35028  1.0000
  O   O13       1.0  0.56699  0.64407  0.20289  1.0000
  O   O14       1.0  0.93106  0.82908  0.37692  1.0000
  C   C92       1.0  0.52564  0.77045  0.23905  1.0000
  C   C93       1.0  0.52307  0.72508  0.22387  1.0000
  C   C94       1.0  0.50654  0.78945  0.31516  1.0000
  H   H58       1.0  0.53374  0.71360  0.16421  1.0000
  H   H59       1.0  0.53801  0.78994  0.18996  1.0000
  N   N13       1.0  0.50238  0.83398  0.32036  1.0000
  H   H60       1.0  0.52110  0.85142  0.28178  1.0000
  C   C95       1.0  0.71542  0.48464  0.28985  1.0000
  C   C96       1.0  0.76044  0.48800  0.27388  1.0000
  C   C97       1.0  0.69638  0.50213  0.36753  1.0000
  H   H61       1.0  0.77209  0.47657  0.21485  1.0000
  H   H62       1.0  0.69622  0.47101  0.24164  1.0000
  N   N14       1.0  0.65182  0.49985  0.37555  1.0000
  H   H63       1.0  0.63729  0.47880  0.33651  1.0000
  C   C98       1.0  0.97779  0.97783  0.32596  1.0000
  C   C99       1.0  0.89937  0.95602  0.31507  1.0000
  C   C100      1.0  0.93247  0.98831  0.31794  1.0000
  H   H64       1.0  0.92288  0.52018  0.31321  1.0000
  C   C101      1.0  0.51092  0.51102  0.32554  1.0000
  C   C102      1.0  0.55257  0.50440  0.36582  1.0000
  C   C103      1.0  0.58444  0.53782  0.37084  1.0000
  C   C104      1.0  0.57669  0.57708  0.32492  1.0000
  H   H65       1.0  0.55864  0.97650  0.40098  1.0000
  H   H66       1.0  0.60031  0.60091  0.32482  1.0000
  C   C105      1.0  0.62579  0.53175  0.41085  1.0000
  C   C106      1.0  0.85422  0.96487  0.30268  1.0000
  O   O15       1.0  0.82917  0.93043  0.27638  1.0000
  O   O16       1.0  0.64449  0.56819  0.44564  1.0000
  C   C107      1.0  0.50237  0.69667  0.28519  1.0000
  C   C108      1.0  0.48542  0.71568  0.36339  1.0000
  C   C109      1.0  0.48897  0.76068  0.37944  1.0000
  H   H67       1.0  0.47193  0.69649  0.41179  1.0000
  H   H68       1.0  0.47776  0.77235  0.43864  1.0000
  N   N15       1.0  0.49979  0.65215  0.27702  1.0000
  H   H69       1.0  0.47907  0.63762  0.31681  1.0000
  C   C110      1.0  0.78922  0.50588  0.33782  1.0000
  C   C111      1.0  0.77019  0.52528  0.41360  1.0000
  C   C112      1.0  0.72480  0.52296  0.42863  1.0000
  H   H70       1.0  0.78967  0.53796  0.46238  1.0000
  H   H71       1.0  0.71326  0.53402  0.48796  1.0000
  N   N16       1.0  0.83376  0.50184  0.33260  1.0000
  H   H72       1.0  0.85118  0.52070  0.37094  1.0000
