data_image0
_chemical_formula_structural       C8H8C8H8C8H8CN3CN3CN3CN3CN3CN3C3NC3NC5NC5NC20H18C4H4C3NC3NC5NC5NC20H18C4H4C3NC3NC5NC5NC20H18C4H4C3NH3NC3NH3NC3NH3NC3NH3NC3NH3NC3NH3N
_chemical_formula_sum              "C168 H108 N42"
_cell_length_a       50.5644
_cell_length_b       50.5642
_cell_length_c       14.7918
_cell_angle_alpha    90.016
_cell_angle_beta     89.984
_cell_angle_gamma    120

_space_group_name_H-M_alt    "P 1"
_space_group_IT_number       1

loop_
  _space_group_symop_operation_xyz
  'x, y, z'

loop_
  _atom_site_type_symbol
  _atom_site_label
  _atom_site_symmetry_multiplicity
  _atom_site_fract_x
  _atom_site_fract_y
  _atom_site_fract_z
  _atom_site_occupancy
  C   C1        1.0  0.94025  0.59097  0.29228  1.0000
  C   C2        1.0  0.91551  0.59620  0.30390  1.0000
  C   C3        1.0  0.94014  0.43806  0.29434  1.0000
  C   C4        1.0  0.91335  0.40952  0.30642  1.0000
  C   C5        1.0  0.16217  0.53101  0.30407  1.0000
  C   C6        1.0  0.13756  0.53643  0.29243  1.0000
  C   C7        1.0  0.13785  0.68941  0.29436  1.0000
  C   C8        1.0  0.16468  0.71793  0.30645  1.0000
  H   H1        1.0  0.17732  0.72909  0.25066  1.0000
  H   H2        1.0  0.13193  0.68058  0.23051  1.0000
  H   H3        1.0  0.13422  0.54325  0.23041  1.0000
  H   H4        1.0  0.17569  0.53348  0.24956  1.0000
  H   H5        1.0  0.94614  0.44683  0.23045  1.0000
  H   H6        1.0  0.90084  0.39823  0.25057  1.0000
  H   H7        1.0  0.90197  0.59363  0.24940  1.0000
  H   H8        1.0  0.94363  0.58415  0.23030  1.0000
  C   C9        1.0  0.51116  0.43666  0.29220  1.0000
  C   C10       1.0  0.50591  0.40669  0.30374  1.0000
  C   C11       1.0  0.66410  0.58952  0.29421  1.0000
  C   C12       1.0  0.69265  0.59132  0.30635  1.0000
  C   C13       1.0  0.57106  0.71850  0.30397  1.0000
  C   C14       1.0  0.56563  0.68846  0.29240  1.0000
  C   C15       1.0  0.41270  0.53587  0.29428  1.0000
  C   C16       1.0  0.38421  0.53422  0.30637  1.0000
  H   H9        1.0  0.37304  0.53568  0.25058  1.0000
  H   H10       1.0  0.42152  0.53873  0.23042  1.0000
  H   H11       1.0  0.55878  0.67827  0.23043  1.0000
  H   H12       1.0  0.56858  0.72953  0.24944  1.0000
  H   H13       1.0  0.65535  0.58677  0.23028  1.0000
  H   H14       1.0  0.70397  0.59012  0.25052  1.0000
  H   H15       1.0  0.50850  0.39572  0.24921  1.0000
  H   H16       1.0  0.51802  0.44688  0.23027  1.0000
  C   C17       1.0  0.66553  0.16192  0.29224  1.0000
  C   C18       1.0  0.69550  0.18664  0.30380  1.0000
  C   C19       1.0  0.51250  0.16180  0.29413  1.0000
  C   C20       1.0  0.51062  0.18852  0.30619  1.0000
  C   C21       1.0  0.38379  0.93975  0.30394  1.0000
  C   C22       1.0  0.41382  0.96437  0.29227  1.0000
  C   C23       1.0  0.56668  0.96441  0.29399  1.0000
  C   C24       1.0  0.56823  0.93751  0.30618  1.0000
  H   H17       1.0  0.56680  0.92488  0.25040  1.0000
  H   H18       1.0  0.56378  0.97032  0.23013  1.0000
  H   H19       1.0  0.42396  0.96774  0.23020  1.0000
  H   H20       1.0  0.37273  0.92626  0.24941  1.0000
  H   H21       1.0  0.51530  0.15581  0.23024  1.0000
  H   H22       1.0  0.51190  0.20106  0.25036  1.0000
  H   H23       1.0  0.70651  0.20013  0.24923  1.0000
  H   H24       1.0  0.65535  0.15850  0.23023  1.0000
  C   C25       1.0  0.29687  0.52427  0.36209  1.0000
  N   N1        1.0  0.28984  0.53972  0.30036  1.0000
  N   N2        1.0  0.26435  0.54058  0.30179  1.0000
  N   N3        1.0  0.32351  0.52503  0.35179  1.0000
  C   C26       1.0  0.57794  0.86001  0.36207  1.0000
  N   N4        1.0  0.56254  0.83757  0.30016  1.0000
  N   N5        1.0  0.56161  0.81119  0.30162  1.0000
  N   N6        1.0  0.57726  0.88593  0.35171  1.0000
  C   C27       1.0  0.24212  0.80523  0.36194  1.0000
  N   N7        1.0  0.26460  0.81219  0.30023  1.0000
  N   N8        1.0  0.29098  0.83764  0.30161  1.0000
  N   N9        1.0  0.21623  0.77860  0.35172  1.0000
  C   C28       1.0  0.78020  0.60183  0.36208  1.0000
  N   N10       1.0  0.78743  0.58659  0.30013  1.0000
  N   N11       1.0  0.81302  0.58593  0.30154  1.0000
  N   N12       1.0  0.75346  0.60085  0.35180  1.0000
  C   C29       1.0  0.50017  0.26564  0.36194  1.0000
  N   N13       1.0  0.51540  0.28810  0.29994  1.0000
  N   N14       1.0  0.51607  0.31436  0.30132  1.0000
  N   N15       1.0  0.50111  0.23985  0.35165  1.0000
  C   C30       1.0  0.83635  0.32196  0.36209  1.0000
  N   N16       1.0  0.81391  0.31472  0.30009  1.0000
  N   N17       1.0  0.78765  0.28913  0.30151  1.0000
  N   N18       1.0  0.86212  0.34869  0.35184  1.0000
  C   C31       1.0  0.05616  0.65554  0.35836  1.0000
  C   C32       1.0  0.02457  0.64018  0.35739  1.0000
  C   C33       1.0  0.01398  0.60880  0.35647  1.0000
  N   N19       1.0  0.03960  0.60645  0.35550  1.0000
  C   C34       1.0  0.06574  0.63399  0.35758  1.0000
  C   C35       1.0  0.09678  0.64099  0.35975  1.0000
  C   C36       1.0  0.10615  0.61871  0.35919  1.0000
  N   N20       1.0  0.08862  0.58792  0.35472  1.0000
  C   C37       1.0  0.10549  0.57391  0.35808  1.0000
  C   C38       1.0  0.13585  0.59734  0.36482  1.0000
  C   C39       1.0  0.13627  0.62481  0.36518  1.0000
  C   C40       1.0  0.09525  0.54207  0.35752  1.0000
  C   C41       1.0  0.06388  0.51873  0.35631  1.0000
  N   N21       1.0  0.03826  0.52109  0.35535  1.0000
  C   C42       1.0  0.01212  0.49355  0.35739  1.0000
  C   C43       1.0  0.02170  0.47199  0.35790  1.0000
  C   C44       1.0  0.05329  0.48736  0.35695  1.0000
  C   C45       1.0  0.98109  0.48657  0.35977  1.0000
  C   C46       1.0  0.97171  0.50884  0.35908  1.0000
  N   N22       1.0  0.98924  0.53962  0.35461  1.0000
  C   C47       1.0  0.97237  0.55362  0.35788  1.0000
  C   C48       1.0  0.94200  0.53019  0.36461  1.0000
  C   C49       1.0  0.94159  0.50272  0.36509  1.0000
  C   C50       1.0  0.98260  0.58546  0.35754  1.0000
  C   C51       1.0  0.95965  0.59414  0.36546  1.0000
  C   C52       1.0  0.90938  0.60479  0.38909  1.0000
  C   C53       1.0  0.92912  0.60824  0.46176  1.0000
  C   C54       1.0  0.95362  0.60274  0.45047  1.0000
  C   C55       1.0  0.95746  0.45533  0.36948  1.0000
  C   C56       1.0  0.90283  0.39751  0.39404  1.0000
  C   C57       1.0  0.92070  0.41470  0.46879  1.0000
  C   C58       1.0  0.94751  0.44309  0.45687  1.0000
  C   C59       1.0  0.11817  0.53337  0.36557  1.0000
  C   C60       1.0  0.12409  0.52468  0.45058  1.0000
  C   C61       1.0  0.14848  0.51903  0.46191  1.0000
  C   C62       1.0  0.16820  0.52235  0.38926  1.0000
  C   C63       1.0  0.12043  0.67222  0.36949  1.0000
  C   C64       1.0  0.13028  0.68454  0.45683  1.0000
  C   C65       1.0  0.17516  0.72998  0.39406  1.0000
  C   C66       1.0  0.15713  0.71291  0.46877  1.0000
  H   H25       1.0  0.16397  0.72049  0.53344  1.0000
  H   H26       1.0  0.11881  0.67221  0.51278  1.0000
  H   H27       1.0  0.06969  0.67878  0.35987  1.0000
  H   H28       1.0  0.01168  0.65059  0.35813  1.0000
  H   H29       1.0  0.03928  0.58731  0.35554  1.0000
  H   H30       1.0  0.03858  0.54023  0.35608  1.0000
  H   H31       1.0  0.15564  0.64563  0.37117  1.0000
  H   H32       1.0  0.15487  0.59527  0.37061  1.0000
  H   H33       1.0  0.11096  0.52293  0.50547  1.0000
  H   H34       1.0  0.15202  0.51295  0.52487  1.0000
  H   H35       1.0  0.06617  0.47694  0.35764  1.0000
  H   H36       1.0  0.00817  0.44876  0.35944  1.0000
  H   H37       1.0  0.92298  0.53225  0.37072  1.0000
  H   H38       1.0  0.92223  0.48190  0.37126  1.0000
  H   H39       1.0  0.95890  0.45549  0.51282  1.0000
  H   H40       1.0  0.91383  0.40714  0.53346  1.0000
  H   H41       1.0  0.96675  0.60455  0.50539  1.0000
  H   H42       1.0  0.92550  0.61425  0.52473  1.0000
  C   C67       1.0  0.87512  0.37069  0.40940  1.0000
  C   C68       1.0  0.19187  0.51615  0.40345  1.0000
  C   C69       1.0  0.20295  0.75671  0.40949  1.0000
  C   C70       1.0  0.88556  0.61079  0.40328  1.0000
  H   H43       1.0  0.86515  0.36815  0.46942  1.0000
  H   H44       1.0  0.18902  0.50148  0.45238  1.0000
  H   H45       1.0  0.21278  0.75927  0.46973  1.0000
  H   H46       1.0  0.88831  0.62544  0.45216  1.0000
  C   C71       1.0  0.44656  0.48798  0.35775  1.0000
  C   C72       1.0  0.46193  0.47176  0.35675  1.0000
  C   C73       1.0  0.49330  0.49255  0.35619  1.0000
  N   N23       1.0  0.49565  0.52052  0.35522  1.0000
  C   C74       1.0  0.46811  0.51912  0.35722  1.0000
  C   C75       1.0  0.46111  0.54316  0.35963  1.0000
  C   C76       1.0  0.48339  0.57481  0.35915  1.0000
  N   N24       1.0  0.51417  0.58808  0.35467  1.0000
  C   C77       1.0  0.52817  0.61894  0.35812  1.0000
  C   C78       1.0  0.50474  0.62588  0.36496  1.0000
  C   C79       1.0  0.47728  0.59883  0.36537  1.0000
  C   C80       1.0  0.56001  0.64055  0.35760  1.0000
  C   C81       1.0  0.58336  0.63253  0.35624  1.0000
  N   N25       1.0  0.58101  0.60456  0.35524  1.0000
  C   C82       1.0  0.60855  0.60597  0.35720  1.0000
  C   C83       1.0  0.63010  0.63711  0.35777  1.0000
  C   C84       1.0  0.61473  0.65332  0.35680  1.0000
  C   C85       1.0  0.61555  0.58193  0.35948  1.0000
  C   C86       1.0  0.59327  0.55028  0.35910  1.0000
  N   N26       1.0  0.56248  0.53701  0.35466  1.0000
  C   C87       1.0  0.54849  0.50614  0.35806  1.0000
  C   C88       1.0  0.57193  0.49922  0.36486  1.0000
  C   C89       1.0  0.59939  0.52627  0.36521  1.0000
  C   C90       1.0  0.51665  0.48452  0.35753  1.0000
  C   C91       1.0  0.50798  0.45290  0.36541  1.0000
  C   C92       1.0  0.49727  0.39193  0.38886  1.0000
  C   C93       1.0  0.49378  0.40822  0.46153  1.0000
  C   C94       1.0  0.49928  0.43822  0.45032  1.0000
  C   C95       1.0  0.64678  0.58955  0.36930  1.0000
  C   C96       1.0  0.70465  0.59282  0.39400  1.0000
  C   C97       1.0  0.68743  0.59351  0.46870  1.0000
  C   C98       1.0  0.65901  0.59184  0.45671  1.0000
  C   C99       1.0  0.56870  0.67217  0.36560  1.0000
  C   C100      1.0  0.57742  0.68682  0.45056  1.0000
  C   C101      1.0  0.58309  0.71687  0.46181  1.0000
  C   C102      1.0  0.57977  0.73324  0.38910  1.0000
  C   C103      1.0  0.42988  0.53557  0.36936  1.0000
  C   C104      1.0  0.41757  0.53316  0.45671  1.0000
  C   C105      1.0  0.37217  0.53267  0.39400  1.0000
  C   C106      1.0  0.38923  0.53171  0.46868  1.0000
  H   H47       1.0  0.38166  0.53098  0.53337  1.0000
  H   H48       1.0  0.42989  0.53401  0.51266  1.0000
  H   H49       1.0  0.42332  0.47828  0.35936  1.0000
  H   H50       1.0  0.45152  0.44846  0.35769  1.0000
  H   H51       1.0  0.51479  0.53934  0.35601  1.0000
  H   H52       1.0  0.56187  0.58574  0.35573  1.0000
  H   H53       1.0  0.45646  0.59738  0.37126  1.0000
  H   H54       1.0  0.50681  0.64697  0.37081  1.0000
  H   H55       1.0  0.57920  0.67547  0.50546  1.0000
  H   H56       1.0  0.58923  0.72655  0.52470  1.0000
  H   H57       1.0  0.62514  0.67662  0.35771  1.0000
  H   H58       1.0  0.65334  0.64682  0.35928  1.0000
  H   H59       1.0  0.56987  0.47813  0.37055  1.0000
  H   H60       1.0  0.62022  0.52774  0.37090  1.0000
  H   H61       1.0  0.64660  0.59085  0.51264  1.0000
  H   H62       1.0  0.69496  0.59417  0.53340  1.0000
  H   H63       1.0  0.49745  0.44952  0.50526  1.0000
  H   H64       1.0  0.48770  0.39855  0.52444  1.0000
  C   C107      1.0  0.73149  0.59197  0.40943  1.0000
  C   C108      1.0  0.58601  0.76313  0.40318  1.0000
  C   C109      1.0  0.34544  0.53374  0.40946  1.0000
  C   C110      1.0  0.49124  0.36210  0.40295  1.0000
  H   H65       1.0  0.73406  0.58465  0.46958  1.0000
  H   H66       1.0  0.60083  0.77502  0.45169  1.0000
  H   H67       1.0  0.34292  0.54108  0.46964  1.0000
  H   H68       1.0  0.47656  0.35020  0.45176  1.0000
  C   C111      1.0  0.61441  0.04616  0.35800  1.0000
  C   C112      1.0  0.63056  0.07775  0.35704  1.0000
  C   C113      1.0  0.60972  0.08826  0.35627  1.0000
  N   N27       1.0  0.58178  0.06260  0.35516  1.0000
  C   C114      1.0  0.58325  0.03650  0.35717  1.0000
  C   C115      1.0  0.55926  0.00545  0.35928  1.0000
  C   C116      1.0  0.52760  0.99600  0.35873  1.0000
  N   N28       1.0  0.51427  0.01348  0.35435  1.0000
  C   C117      1.0  0.48341  0.99655  0.35764  1.0000
  C   C118      1.0  0.47653  0.96620  0.36436  1.0000
  C   C119      1.0  0.50362  0.96586  0.36478  1.0000
  C   C120      1.0  0.46175  0.00672  0.35725  1.0000
  C   C121      1.0  0.46971  0.03807  0.35618  1.0000
  N   N29       1.0  0.49765  0.06374  0.35518  1.0000
  C   C122      1.0  0.49618  0.08984  0.35729  1.0000
  C   C123      1.0  0.46502  0.08018  0.35810  1.0000
  C   C124      1.0  0.44886  0.04859  0.35710  1.0000
  C   C125      1.0  0.52015  0.12090  0.35947  1.0000
  C   C126      1.0  0.55182  0.13034  0.35902  1.0000
  N   N30       1.0  0.56514  0.11286  0.35469  1.0000
  C   C127      1.0  0.59600  0.12978  0.35803  1.0000
  C   C128      1.0  0.60288  0.16013  0.36467  1.0000
  C   C129      1.0  0.57579  0.16048  0.36497  1.0000
  C   C130      1.0  0.61766  0.11961  0.35752  1.0000
  C   C131      1.0  0.64925  0.14259  0.36553  1.0000
  C   C132      1.0  0.71020  0.19280  0.38902  1.0000
  C   C133      1.0  0.69386  0.17313  0.46180  1.0000
  C   C134      1.0  0.66386  0.14864  0.45056  1.0000
  C   C135      1.0  0.51248  0.14449  0.36928  1.0000
  C   C136      1.0  0.50913  0.19906  0.39381  1.0000
  C   C137      1.0  0.50846  0.18118  0.46854  1.0000
  C   C138      1.0  0.51009  0.15440  0.45665  1.0000
  C   C139      1.0  0.43015  0.98375  0.36542  1.0000
  C   C140      1.0  0.41557  0.97778  0.45049  1.0000
  C   C141      1.0  0.38552  0.95339  0.46184  1.0000
  C   C142      1.0  0.36910  0.93370  0.38916  1.0000
  C   C143      1.0  0.56691  0.98185  0.36910  1.0000
  C   C144      1.0  0.56930  0.97198  0.45648  1.0000
  C   C145      1.0  0.56976  0.92704  0.39382  1.0000
  C   C146      1.0  0.57071  0.94508  0.46848  1.0000
  H   H69       1.0  0.57143  0.93825  0.53318  1.0000
  H   H70       1.0  0.56842  0.98346  0.51240  1.0000
  H   H71       1.0  0.62416  0.03267  0.35954  1.0000
  H   H72       1.0  0.65386  0.09068  0.35804  1.0000
  H   H73       1.0  0.56293  0.06287  0.35542  1.0000
  H   H74       1.0  0.51649  0.06347  0.35518  1.0000
  H   H75       1.0  0.50512  0.94651  0.37058  1.0000
  H   H76       1.0  0.45546  0.94715  0.37010  1.0000
  H   H77       1.0  0.42694  0.99090  0.50537  1.0000
  H   H78       1.0  0.37590  0.94983  0.52482  1.0000
  H   H79       1.0  0.42557  0.03566  0.35797  1.0000
  H   H80       1.0  0.45526  0.09366  0.35971  1.0000
  H   H81       1.0  0.62395  0.17919  0.37013  1.0000
  H   H82       1.0  0.57429  0.17984  0.37051  1.0000
  H   H83       1.0  0.51115  0.14305  0.51261  1.0000
  H   H84       1.0  0.50777  0.18806  0.53322  1.0000
  H   H85       1.0  0.65252  0.13555  0.50551  1.0000
  H   H86       1.0  0.70351  0.17677  0.52476  1.0000
  C   C147      1.0  0.51002  0.22678  0.40920  1.0000
  C   C148      1.0  0.33920  0.91007  0.40337  1.0000
  C   C149      1.0  0.56859  0.89920  0.40932  1.0000
  C   C150      1.0  0.74002  0.21658  0.40310  1.0000
  H   H87       1.0  0.51739  0.23670  0.46929  1.0000
  H   H88       1.0  0.32744  0.91291  0.45247  1.0000
  H   H89       1.0  0.56119  0.88935  0.46949  1.0000
  H   H90       1.0  0.75197  0.21376  0.45164  1.0000
  C   C151      1.0  0.24219  0.52603  0.36493  1.0000
  C   C152      1.0  0.24772  0.50927  0.43139  1.0000
  C   C153      1.0  0.27492  0.50767  0.43034  1.0000
  N   N31       1.0  0.27867  0.49004  0.49256  1.0000
  H   H91       1.0  0.26305  0.47852  0.53759  1.0000
  H   H92       1.0  0.29612  0.48692  0.49095  1.0000
  H   H93       1.0  0.23174  0.49769  0.48017  1.0000
  N   N32       1.0  0.21722  0.52877  0.35894  1.0000
  C   C154      1.0  0.57603  0.80351  0.36498  1.0000
  C   C155      1.0  0.59271  0.82575  0.43168  1.0000
  C   C156      1.0  0.59439  0.85457  0.43058  1.0000
  N   N33       1.0  0.61195  0.87591  0.49304  1.0000
  H   H94       1.0  0.62352  0.87181  0.53785  1.0000
  H   H95       1.0  0.61530  0.89657  0.49096  1.0000
  H   H96       1.0  0.60415  0.82126  0.48070  1.0000
  N   N34       1.0  0.57325  0.77578  0.35900  1.0000
  C   C157      1.0  0.29864  0.85983  0.36469  1.0000
  C   C158      1.0  0.27634  0.85438  0.43112  1.0000
  C   C159      1.0  0.24752  0.82722  0.43011  1.0000
  N   N35       1.0  0.22614  0.82354  0.49231  1.0000
  H   H97       1.0  0.23027  0.83919  0.53728  1.0000
  H   H98       1.0  0.20555  0.80613  0.49070  1.0000
  H   H99       1.0  0.28078  0.87039  0.47985  1.0000
  N   N36       1.0  0.32639  0.88475  0.35868  1.0000
  C   C160      1.0  0.83510  0.60051  0.36486  1.0000
  C   C161      1.0  0.82937  0.61706  0.43156  1.0000
  C   C162      1.0  0.80205  0.61844  0.43055  1.0000
  N   N37       1.0  0.79808  0.63587  0.49304  1.0000
  H   H100      1.0  0.81373  0.64755  0.53782  1.0000
  H   H101      1.0  0.78065  0.63901  0.49102  1.0000
  H   H102      1.0  0.84527  0.62862  0.48054  1.0000
  N   N38       1.0  0.86020  0.59798  0.35883  1.0000
  C   C163      1.0  0.50151  0.32190  0.36463  1.0000
  C   C164      1.0  0.48498  0.29963  0.43140  1.0000
  C   C165      1.0  0.48359  0.27094  0.43042  1.0000
  N   N39       1.0  0.46616  0.24957  0.49296  1.0000
  H   H103      1.0  0.45464  0.25361  0.53814  1.0000
  H   H104      1.0  0.46317  0.22904  0.49142  1.0000
  H   H105      1.0  0.47342  0.30400  0.48037  1.0000
  N   N40       1.0  0.50406  0.34954  0.35860  1.0000
  C   C166      1.0  0.78013  0.26707  0.36491  1.0000
  C   C167      1.0  0.80239  0.27283  0.43171  1.0000
  C   C168      1.0  0.83108  0.30014  0.43068  1.0000
  N   N41       1.0  0.85245  0.30414  0.49326  1.0000
  H   H106      1.0  0.84847  0.28851  0.53813  1.0000
  H   H107      1.0  0.87302  0.32158  0.49126  1.0000
  H   H108      1.0  0.79801  0.25695  0.48079  1.0000
  N   N42       1.0  0.75251  0.24199  0.35892  1.0000
