data_image0
_chemical_formula_structural       CHC3H3OC4H3OCN2CH2OC5H2C5H2NCONCHNCHNCHNCHNCHNCHNC2NCNC2NC3H3OC2NC3H3OC4H3OC4HC2NC3H3OC2NC3H3OC2NC3H3OC2NC3H3OC2NC3H3OC2NC3H3OC6H3C6H3C6H3C6H3CHCHC6H3C6H3C6H3C6H3C6H3C6H3C2NC3H3OC2NC3H3OC2NC3H3OC2NC3H3OC4H3C2NC3H3ONCHCHNCHNCHN2CHNCHNCHNCHNCHNCHNCH
_chemical_formula_sum              "C180 H108 O18 N36"
_cell_length_a       37.3071
_cell_length_b       37.3071
_cell_length_c       14.8313
_cell_angle_alpha    90
_cell_angle_beta     90
_cell_angle_gamma    120

_space_group_name_H-M_alt    "P 1"
_space_group_IT_number       1

loop_
  _space_group_symop_operation_xyz
  'x, y, z'

loop_
  _atom_site_type_symbol
  _atom_site_label
  _atom_site_symmetry_multiplicity
  _atom_site_fract_x
  _atom_site_fract_y
  _atom_site_fract_z
  _atom_site_occupancy
  C   C1        1.0  0.78690  0.15970  0.32220  1.0000
  H   H1        1.0  0.77447  0.13396  0.28227  1.0000
  C   C2        1.0  0.18687  0.16438  0.31041  1.0000
  C   C3        1.0  0.16981  0.13145  0.25076  1.0000
  C   C4        1.0  0.18521  0.13853  0.15899  1.0000
  H   H2        1.0  0.21901  0.15448  0.15805  1.0000
  H   H3        1.0  0.17498  0.15724  0.12242  1.0000
  H   H4        1.0  0.17381  0.10907  0.12382  1.0000
  O   O1        1.0  0.13251  0.10775  0.25841  1.0000
  C   C5        1.0  0.82836  0.04138  0.35950  1.0000
  C   C6        1.0  0.84109  0.01672  0.31075  1.0000
  C   C7        1.0  0.87410  0.03271  0.25110  1.0000
  C   C8        1.0  0.86661  0.04047  0.15928  1.0000
  H   H5        1.0  0.85055  0.05822  0.15800  1.0000
  H   H6        1.0  0.84789  0.01132  0.12345  1.0000
  H   H7        1.0  0.89594  0.05842  0.12362  1.0000
  O   O2        1.0  0.89798  0.01943  0.26035  1.0000
  C   C9        1.0  0.22861  0.04605  0.36745  1.0000
  N   N1        1.0  0.19357  0.02498  0.31729  1.0000
  N   N2        1.0  0.98032  0.16274  0.31768  1.0000
  C   C10       1.0  0.03822  0.16417  0.25111  1.0000
  H   H8        1.0  0.01675  0.16958  0.12380  1.0000
  H   H9        1.0  0.06371  0.16837  0.12304  1.0000
  O   O3        1.0  0.02463  0.12688  0.25846  1.0000
  C   C11       1.0  0.24757  0.15575  0.36128  1.0000
  C   C12       1.0  0.22785  0.11196  0.36439  1.0000
  C   C13       1.0  0.25017  0.09046  0.36878  1.0000
  C   C14       1.0  0.29395  0.11440  0.37196  1.0000
  C   C15       1.0  0.31545  0.15828  0.36881  1.0000
  H   H10       1.0  0.31068  0.09947  0.37247  1.0000
  H   H11       1.0  0.19626  0.09512  0.36729  1.0000
  C   C16       1.0  0.84963  0.08598  0.36192  1.0000
  C   C17       1.0  0.89342  0.11009  0.36506  1.0000
  C   C18       1.0  0.91489  0.15390  0.36937  1.0000
  C   C19       1.0  0.84704  0.15130  0.36956  1.0000
  C   C20       1.0  0.82725  0.10749  0.36457  1.0000
  H   H12       1.0  0.79560  0.09072  0.36345  1.0000
  H   H13       1.0  0.91027  0.09534  0.36787  1.0000
  N   N3        1.0  0.38156  0.16740  0.41842  1.0000
  C   C21       1.0  0.44040  0.16867  0.47916  1.0000
  O   O4        1.0  0.42664  0.13128  0.47427  1.0000
  N   N4        1.0  0.79289  0.02015  0.40867  1.0000
  C   C22       1.0  0.24143  0.02140  0.41416  1.0000
  H   H14       1.0  0.26713  0.03429  0.45421  1.0000
  N   N5        1.0  0.18926  0.42027  0.32317  1.0000
  C   C23       1.0  0.16556  0.37835  0.32166  1.0000
  H   H15       1.0  0.13983  0.36506  0.28170  1.0000
  N   N6        1.0  0.58529  0.76302  0.32309  1.0000
  C   C24       1.0  0.62722  0.78133  0.32121  1.0000
  H   H16       1.0  0.64051  0.76904  0.28078  1.0000
  N   N7        1.0  0.24249  0.81630  0.32334  1.0000
  C   C25       1.0  0.22420  0.83993  0.32177  1.0000
  H   H17       1.0  0.23664  0.86569  0.28190  1.0000
  N   N8        1.0  0.82189  0.57929  0.32331  1.0000
  C   C26       1.0  0.84562  0.62121  0.32183  1.0000
  H   H18       1.0  0.87134  0.63449  0.28183  1.0000
  N   N9        1.0  0.42595  0.23660  0.32323  1.0000
  C   C27       1.0  0.38403  0.21830  0.32133  1.0000
  H   H19       1.0  0.37075  0.23071  0.28124  1.0000
  N   N10       1.0  0.76865  0.18337  0.32370  1.0000
  C   C28       1.0  0.22430  0.17707  0.35900  1.0000
  C   C29       1.0  0.18237  0.22291  0.36751  1.0000
  N   N11       1.0  0.16833  0.18785  0.31737  1.0000
  C   C30       1.0  0.78259  0.95360  0.36754  1.0000
  N   N12       1.0  0.81766  0.97469  0.31749  1.0000
  C   C31       1.0  0.96409  0.78092  0.35919  1.0000
  C   C32       1.0  0.05186  0.82290  0.36763  1.0000
  N   N13       1.0  0.03082  0.83688  0.31740  1.0000
  C   C33       1.0  0.98881  0.81828  0.31036  1.0000
  C   C34       1.0  0.97290  0.83538  0.25081  1.0000
  C   C35       1.0  0.96519  0.81976  0.15912  1.0000
  H   H20       1.0  0.94730  0.78595  0.15835  1.0000
  H   H21       1.0  0.99435  0.82991  0.12351  1.0000
  H   H22       1.0  0.94738  0.83110  0.12274  1.0000
  O   O5        1.0  0.98648  0.87267  0.25806  1.0000
  C   C36       1.0  0.78693  0.82258  0.35900  1.0000
  C   C37       1.0  0.82880  0.77669  0.36738  1.0000
  N   N14       1.0  0.84286  0.81176  0.31730  1.0000
  C   C38       1.0  0.82434  0.83527  0.31040  1.0000
  C   C39       1.0  0.84142  0.86825  0.25071  1.0000
  C   C40       1.0  0.82615  0.86077  0.15891  1.0000
  H   H23       1.0  0.79234  0.84480  0.15767  1.0000
  H   H24       1.0  0.83648  0.84197  0.12308  1.0000
  H   H25       1.0  0.83760  0.89010  0.12321  1.0000
  O   O6        1.0  0.87861  0.89206  0.25990  1.0000
  C   C41       1.0  0.18282  0.95828  0.35925  1.0000
  C   C42       1.0  0.17015  0.98296  0.31038  1.0000
  C   C43       1.0  0.13712  0.96701  0.25087  1.0000
  C   C44       1.0  0.14502  0.95930  0.15917  1.0000
  H   H26       1.0  0.16098  0.94144  0.15840  1.0000
  H   H27       1.0  0.16399  0.98845  0.12354  1.0000
  H   H28       1.0  0.11586  0.94145  0.12284  1.0000
  O   O7        1.0  0.11339  0.98057  0.25815  1.0000
  C   C45       1.0  0.04707  0.21868  0.35938  1.0000
  C   C46       1.0  0.95930  0.17676  0.36786  1.0000
  C   C47       1.0  0.02234  0.18132  0.31062  1.0000
  C   C48       1.0  0.04591  0.17974  0.15938  1.0000
  H   H29       1.0  0.06381  0.21356  0.15854  1.0000
  C   C49       1.0  0.22770  0.64990  0.29312  1.0000
  C   C50       1.0  0.22749  0.57417  0.30152  1.0000
  N   N15       1.0  0.23934  0.59866  0.22702  1.0000
  C   C51       1.0  0.23780  0.63389  0.21618  1.0000
  C   C52       1.0  0.25205  0.65499  0.13510  1.0000
  C   C53       1.0  0.22677  0.66686  0.08297  1.0000
  H   H30       1.0  0.19631  0.63991  0.07065  1.0000
  H   H31       1.0  0.24095  0.67998  0.01783  1.0000
  H   H32       1.0  0.22286  0.69011  0.11934  1.0000
  O   O8        1.0  0.28243  0.65658  0.09941  1.0000
  C   C54       1.0  0.35575  0.57192  0.29304  1.0000
  C   C55       1.0  0.43129  0.64733  0.30241  1.0000
  N   N16       1.0  0.40700  0.63491  0.22761  1.0000
  C   C56       1.0  0.37180  0.59815  0.21633  1.0000
  C   C57       1.0  0.35073  0.59126  0.13517  1.0000
  C   C58       1.0  0.33940  0.55422  0.08299  1.0000
  H   H33       1.0  0.36654  0.55095  0.07141  1.0000
  H   H34       1.0  0.32651  0.55522  0.01750  1.0000
  H   H35       1.0  0.31611  0.52696  0.11898  1.0000
  O   O9        1.0  0.34995  0.62023  0.09820  1.0000
  C   C59       1.0  0.43387  0.77803  0.29396  1.0000
  C   C60       1.0  0.35828  0.77808  0.30234  1.0000
  N   N17       1.0  0.37097  0.76633  0.22780  1.0000
  C   C61       1.0  0.40781  0.76801  0.21697  1.0000
  C   C62       1.0  0.41468  0.75371  0.13599  1.0000
  C   C63       1.0  0.45195  0.77878  0.08403  1.0000
  H   H36       1.0  0.45567  0.80931  0.07152  1.0000
  H   H37       1.0  0.45087  0.76452  0.01900  1.0000
  H   H38       1.0  0.47898  0.78253  0.12065  1.0000
  O   O10       1.0  0.38593  0.72334  0.10017  1.0000
  C   C64       1.0  0.78351  0.34983  0.29283  1.0000
  C   C65       1.0  0.78341  0.42527  0.30125  1.0000
  N   N18       1.0  0.77166  0.40092  0.22659  1.0000
  C   C66       1.0  0.77333  0.36576  0.21583  1.0000
  C   C67       1.0  0.75929  0.34470  0.13462  1.0000
  C   C68       1.0  0.78477  0.33301  0.08271  1.0000
  H   H39       1.0  0.81520  0.36004  0.07065  1.0000
  H   H40       1.0  0.77073  0.31992  0.01745  1.0000
  H   H41       1.0  0.78871  0.30979  0.11912  1.0000
  O   O11       1.0  0.72891  0.34301  0.09868  1.0000
  C   C69       1.0  0.65536  0.42784  0.29270  1.0000
  C   C70       1.0  0.57989  0.35218  0.30167  1.0000
  N   N19       1.0  0.60416  0.36479  0.22690  1.0000
  C   C71       1.0  0.63927  0.40165  0.21589  1.0000
  C   C72       1.0  0.66036  0.40870  0.13471  1.0000
  C   C73       1.0  0.67158  0.44578  0.08277  1.0000
  H   H42       1.0  0.64438  0.44894  0.07125  1.0000
  H   H43       1.0  0.68454  0.44493  0.01726  1.0000
  H   H44       1.0  0.69480  0.47304  0.11892  1.0000
  O   O12       1.0  0.66134  0.37987  0.09761  1.0000
  C   C74       1.0  0.57744  0.22161  0.29378  1.0000
  C   C75       1.0  0.65294  0.22166  0.30190  1.0000
  N   N20       1.0  0.64030  0.23343  0.22732  1.0000
  C   C76       1.0  0.60343  0.23169  0.21659  1.0000
  C   C77       1.0  0.59646  0.24587  0.13554  1.0000
  C   C78       1.0  0.55926  0.22054  0.08360  1.0000
  H   H45       1.0  0.55579  0.19011  0.07119  1.0000
  H   H46       1.0  0.56023  0.23472  0.01852  1.0000
  H   H47       1.0  0.53213  0.21660  0.12016  1.0000
  O   O13       1.0  0.62515  0.27631  0.09978  1.0000
  C   C79       1.0  0.09167  0.24194  0.36170  1.0000
  C   C80       1.0  0.11573  0.22220  0.36478  1.0000
  C   C81       1.0  0.15954  0.24449  0.36898  1.0000
  C   C82       1.0  0.17941  0.28828  0.37214  1.0000
  C   C83       1.0  0.15705  0.30980  0.36918  1.0000
  C   C84       1.0  0.11324  0.28584  0.36428  1.0000
  H   H48       1.0  0.21107  0.30500  0.37260  1.0000
  H   H49       1.0  0.09650  0.30075  0.36320  1.0000
  H   H50       1.0  0.10095  0.19060  0.36758  1.0000
  C   C85       1.0  0.76365  0.84390  0.36126  1.0000
  C   C86       1.0  0.78336  0.88770  0.36448  1.0000
  C   C87       1.0  0.76104  0.90919  0.36880  1.0000
  C   C88       1.0  0.71725  0.88524  0.37198  1.0000
  C   C89       1.0  0.69577  0.84136  0.36875  1.0000
  C   C90       1.0  0.71975  0.82154  0.36374  1.0000
  H   H51       1.0  0.70050  0.90015  0.37244  1.0000
  H   H52       1.0  0.70486  0.78989  0.36254  1.0000
  H   H53       1.0  0.81496  0.90454  0.36732  1.0000
  C   C91       1.0  0.16153  0.91369  0.36168  1.0000
  C   C92       1.0  0.11774  0.88958  0.36472  1.0000
  C   C93       1.0  0.09627  0.84577  0.36914  1.0000
  C   C94       1.0  0.12024  0.82596  0.37245  1.0000
  C   C95       1.0  0.16412  0.84837  0.36935  1.0000
  C   C96       1.0  0.18392  0.89217  0.36432  1.0000
  H   H54       1.0  0.10534  0.79430  0.37289  1.0000
  H   H55       1.0  0.21556  0.90895  0.36320  1.0000
  H   H56       1.0  0.10088  0.90432  0.36753  1.0000
  C   C97       1.0  0.91950  0.75765  0.36156  1.0000
  C   C98       1.0  0.89543  0.77739  0.36455  1.0000
  C   C99       1.0  0.85162  0.75509  0.36887  1.0000
  C   C100      1.0  0.83176  0.71131  0.37214  1.0000
  C   C101      1.0  0.85412  0.68979  0.36916  1.0000
  C   C102      1.0  0.89793  0.71375  0.36421  1.0000
  H   H57       1.0  0.80010  0.69459  0.37260  1.0000
  H   H58       1.0  0.91468  0.69885  0.36316  1.0000
  H   H59       1.0  0.91021  0.80898  0.36739  1.0000
  C   C103      1.0  0.29147  0.17811  0.36382  1.0000
  H   H60       1.0  0.30637  0.20975  0.36268  1.0000
  C   C104      1.0  0.89092  0.17371  0.37257  1.0000
  H   H61       1.0  0.90583  0.20537  0.37309  1.0000
  C   C105      1.0  0.31244  0.54864  0.30915  1.0000
  C   C106      1.0  0.28894  0.56827  0.29446  1.0000
  C   C107      1.0  0.24635  0.54970  0.31479  1.0000
  C   C108      1.0  0.22647  0.50883  0.34897  1.0000
  C   C109      1.0  0.24784  0.48627  0.35808  1.0000
  C   C110      1.0  0.29138  0.50770  0.34269  1.0000
  H   H62       1.0  0.19526  0.49433  0.36061  1.0000
  H   H63       1.0  0.30752  0.49225  0.34633  1.0000
  H   H64       1.0  0.30444  0.59891  0.27632  1.0000
  C   C111      1.0  0.45700  0.75789  0.31046  1.0000
  C   C112      1.0  0.43725  0.71475  0.29585  1.0000
  C   C113      1.0  0.45578  0.69066  0.31593  1.0000
  C   C114      1.0  0.49669  0.71158  0.34989  1.0000
  C   C115      1.0  0.51932  0.75550  0.35911  1.0000
  C   C116      1.0  0.49798  0.77770  0.34370  1.0000
  H   H65       1.0  0.51117  0.69484  0.36128  1.0000
  H   H66       1.0  0.51352  0.80929  0.34761  1.0000
  H   H67       1.0  0.40661  0.69964  0.27774  1.0000
  C   C117      1.0  0.24772  0.69320  0.30914  1.0000
  C   C118      1.0  0.29088  0.71667  0.29476  1.0000
  C   C119      1.0  0.31492  0.75924  0.31535  1.0000
  C   C120      1.0  0.29391  0.77911  0.34950  1.0000
  C   C121      1.0  0.24998  0.75776  0.35842  1.0000
  C   C122      1.0  0.22785  0.71423  0.34287  1.0000
  H   H68       1.0  0.31061  0.81030  0.36126  1.0000
  H   H69       1.0  0.19626  0.69814  0.34635  1.0000
  H   H70       1.0  0.30603  0.70119  0.27652  1.0000
  C   C123      1.0  0.69864  0.45105  0.30897  1.0000
  C   C124      1.0  0.72210  0.43139  0.29421  1.0000
  C   C125      1.0  0.76468  0.44987  0.31464  1.0000
  C   C126      1.0  0.78456  0.49068  0.34921  1.0000
  C   C127      1.0  0.76326  0.51331  0.35823  1.0000
  C   C128      1.0  0.71972  0.49194  0.34271  1.0000
  H   H71       1.0  0.81578  0.50517  0.36066  1.0000
  H   H72       1.0  0.70366  0.50747  0.34625  1.0000
  H   H73       1.0  0.70660  0.40078  0.27574  1.0000
  C   C129      1.0  0.55417  0.24166  0.30974  1.0000
  C   C130      1.0  0.57384  0.28479  0.29493  1.0000
  C   C131      1.0  0.55535  0.30888  0.31535  1.0000
  C   C132      1.0  0.51452  0.28797  0.34979  1.0000
  C   C133      1.0  0.49192  0.24405  0.35893  1.0000
  C   C134      1.0  0.51330  0.22187  0.34367  1.0000
  H   H74       1.0  0.50001  0.30469  0.36103  1.0000
  H   H75       1.0  0.49778  0.19029  0.34747  1.0000
  H   H76       1.0  0.60447  0.29992  0.27672  1.0000
  C   C135      1.0  0.76352  0.30650  0.30864  1.0000
  C   C136      1.0  0.72039  0.28299  0.29399  1.0000
  C   C137      1.0  0.69631  0.24045  0.31487  1.0000
  C   C138      1.0  0.71729  0.22063  0.34948  1.0000
  C   C139      1.0  0.76123  0.24197  0.35841  1.0000
  C   C140      1.0  0.78335  0.28549  0.34269  1.0000
  H   H77       1.0  0.70057  0.18944  0.36128  1.0000
  H   H78       1.0  0.81494  0.30162  0.34640  1.0000
  H   H79       1.0  0.70523  0.29847  0.27582  1.0000
  C   C141      1.0  0.22506  0.44210  0.37091  1.0000
  C   C142      1.0  0.17854  0.35426  0.37015  1.0000
  N   N21       1.0  0.21420  0.37596  0.41818  1.0000
  C   C143      1.0  0.23794  0.41812  0.42169  1.0000
  C   C144      1.0  0.27222  0.43535  0.47779  1.0000
  C   C145      1.0  0.26739  0.44898  0.56629  1.0000
  H   H80       1.0  0.29755  0.46709  0.59869  1.0000
  H   H81       1.0  0.24785  0.42238  0.60901  1.0000
  H   H82       1.0  0.25345  0.46862  0.56141  1.0000
  O   O14       1.0  0.29413  0.41955  0.47532  1.0000
  C   C146      1.0  0.56350  0.77684  0.37148  1.0000
  C   C147      1.0  0.65133  0.81835  0.36987  1.0000
  N   N22       1.0  0.62966  0.83213  0.41860  1.0000
  C   C148      1.0  0.58754  0.81358  0.42257  1.0000
  C   C149      1.0  0.57086  0.83072  0.47977  1.0000
  C   C150      1.0  0.54997  0.81003  0.56232  1.0000
  H   H83       1.0  0.52153  0.81136  0.56910  1.0000
  H   H84       1.0  0.56980  0.82542  0.62030  1.0000
  H   H85       1.0  0.54176  0.77751  0.56330  1.0000
  O   O15       1.0  0.58434  0.86806  0.47489  1.0000
  C   C151      1.0  0.22855  0.78050  0.37110  1.0000
  C   C152      1.0  0.18715  0.82694  0.37034  1.0000
  N   N23       1.0  0.17327  0.79132  0.41849  1.0000
  C   C153      1.0  0.19174  0.76764  0.42205  1.0000
  C   C154      1.0  0.17476  0.73339  0.47826  1.0000
  C   C155      1.0  0.19329  0.73830  0.56669  1.0000
  H   H86       1.0  0.18130  0.70816  0.59917  1.0000
  H   H87       1.0  0.18624  0.75785  0.60939  1.0000
  H   H88       1.0  0.22688  0.75226  0.56169  1.0000
  O   O16       1.0  0.13705  0.71144  0.47592  1.0000
  C   C156      1.0  0.78607  0.55749  0.37099  1.0000
  C   C157      1.0  0.83264  0.64533  0.37022  1.0000
  N   N24       1.0  0.79697  0.62364  0.41824  1.0000
  C   C158      1.0  0.77323  0.58148  0.42180  1.0000
  C   C159      1.0  0.73893  0.56427  0.47787  1.0000
  C   C160      1.0  0.74370  0.55058  0.56633  1.0000
  H   H89       1.0  0.71353  0.53249  0.59869  1.0000
  H   H90       1.0  0.76326  0.57715  0.60912  1.0000
  H   H91       1.0  0.75760  0.53090  0.56141  1.0000
  O   O17       1.0  0.71706  0.58013  0.47543  1.0000
  C   C161      1.0  0.44773  0.22270  0.37138  1.0000
  C   C162      1.0  0.35990  0.18127  0.36994  1.0000
  C   C163      1.0  0.42369  0.18590  0.42229  1.0000
  C   C164      1.0  0.46076  0.18906  0.56236  1.0000
  H   H92       1.0  0.48874  0.18701  0.57084  1.0000
  H   H93       1.0  0.44025  0.17395  0.61959  1.0000
  H   H94       1.0  0.46969  0.22178  0.56292  1.0000
  C   C165      1.0  0.78260  0.21919  0.37138  1.0000
  C   C166      1.0  0.82401  0.17273  0.37058  1.0000
  N   N25       1.0  0.83795  0.20842  0.41853  1.0000
  C   C167      1.0  0.81949  0.23211  0.42207  1.0000
  C   C168      1.0  0.83656  0.26644  0.47806  1.0000
  C   C169      1.0  0.81812  0.26167  0.56655  1.0000
  H   H95       1.0  0.83017  0.29185  0.59884  1.0000
  H   H96       1.0  0.82518  0.24216  0.60935  1.0000
  H   H97       1.0  0.78454  0.24774  0.56169  1.0000
  O   O18       1.0  0.87427  0.28835  0.47553  1.0000
  N   N26       1.0  0.23860  0.21252  0.40826  1.0000
  C   C170      1.0  0.21990  0.23574  0.41396  1.0000
  H   H98       1.0  0.23274  0.26142  0.45409  1.0000
  C   C171      1.0  0.76973  0.97823  0.41422  1.0000
  H   H99       1.0  0.74400  0.96532  0.45420  1.0000
  N   N27       1.0  0.98526  0.76667  0.40855  1.0000
  C   C172      1.0  0.02718  0.78540  0.41423  1.0000
  H   H100      1.0  0.04004  0.77259  0.45441  1.0000
  N   N28       1.0  0.77261  0.78712  0.40822  1.0000
  C   C173      1.0  0.79128  0.76387  0.41387  1.0000
  H   H101      1.0  0.77843  0.73819  0.45400  1.0000
  N   N29       1.0  0.21825  0.97948  0.40855  1.0000
  N   N30       1.0  0.02592  0.23297  0.40867  1.0000
  C   C174      1.0  0.98400  0.21429  0.41434  1.0000
  H   H102      1.0  0.97115  0.22710  0.45451  1.0000
  N   N31       1.0  0.21440  0.62487  0.36740  1.0000
  C   C175      1.0  0.21089  0.58666  0.37252  1.0000
  H   H103      1.0  0.20478  0.57225  0.43380  1.0000
  N   N32       1.0  0.38054  0.58348  0.36770  1.0000
  C   C176      1.0  0.41879  0.61814  0.37318  1.0000
  H   H104      1.0  0.43281  0.62634  0.43486  1.0000
  N   N33       1.0  0.42195  0.79114  0.36830  1.0000
  C   C177      1.0  0.38736  0.79486  0.37335  1.0000
  H   H105      1.0  0.37880  0.80042  0.43487  1.0000
  N   N34       1.0  0.79683  0.37485  0.36712  1.0000
  C   C178      1.0  0.80022  0.41302  0.37223  1.0000
  H   H106      1.0  0.80636  0.42748  0.43345  1.0000
  N   N35       1.0  0.63042  0.41600  0.36720  1.0000
  C   C179      1.0  0.59219  0.38130  0.37256  1.0000
  H   H107      1.0  0.57817  0.37303  0.43423  1.0000
  N   N36       1.0  0.58923  0.20829  0.36793  1.0000
  C   C180      1.0  0.62385  0.20459  0.37281  1.0000
  H   H108      1.0  0.63239  0.19892  0.43421  1.0000
