data_image0
_chemical_formula_structural       NC2HNHNC2HNHNC2HNHCNCNCNC18H12C3O3CNCNCNC18H12C3O3CNCNO2NHCNCNO2NHCNCNO2NH
_chemical_formula_sum              "N21 C60 H33 O12"
_cell_length_a       36.5909
_cell_length_b       36.5902
_cell_length_c       15.0764
_cell_angle_alpha    90
_cell_angle_beta     90
_cell_angle_gamma    120

_space_group_name_H-M_alt    "P 1"
_space_group_IT_number       1

loop_
  _space_group_symop_operation_xyz
  'x, y, z'

loop_
  _atom_site_type_symbol
  _atom_site_label
  _atom_site_symmetry_multiplicity
  _atom_site_fract_x
  _atom_site_fract_y
  _atom_site_fract_z
  _atom_site_occupancy
  N   N1        1.0  0.52548  0.49985  0.27405  1.0000
  C   C1        1.0  0.50034  0.51570  0.25167  1.0000
  C   C2        1.0  0.47165  0.51511  0.31485  1.0000
  H   H1        1.0  0.50218  0.52733  0.18918  1.0000
  N   N2        1.0  0.44724  0.53281  0.29706  1.0000
  H   H2        1.0  0.45585  0.55220  0.24682  1.0000
  N   N3        1.0  0.49384  0.02437  0.27397  1.0000
  C   C3        1.0  0.47798  0.98337  0.25161  1.0000
  C   C4        1.0  0.47857  0.95527  0.31478  1.0000
  H   H3        1.0  0.46636  0.97358  0.18912  1.0000
  N   N4        1.0  0.46086  0.91315  0.29702  1.0000
  H   H4        1.0  0.44147  0.90238  0.24678  1.0000
  N   N5        1.0  0.96930  0.46820  0.27392  1.0000
  C   C5        1.0  0.01030  0.49335  0.25157  1.0000
  C   C6        1.0  0.03840  0.52204  0.31476  1.0000
  H   H5        1.0  0.02011  0.49149  0.18912  1.0000
  N   N6        1.0  0.08051  0.54644  0.29703  1.0000
  H   H6        1.0  0.09129  0.53782  0.24681  1.0000
  C   C7        1.0  0.28658  0.64835  0.32053  1.0000
  N   N7        1.0  0.30313  0.62237  0.32076  1.0000
  C   C8        1.0  0.34531  0.63696  0.32052  1.0000
  N   N8        1.0  0.37129  0.67949  0.32075  1.0000
  C   C9        1.0  0.35670  0.70708  0.32051  1.0000
  N   N9        1.0  0.31417  0.69053  0.32076  1.0000
  C   C10       1.0  0.36168  0.60898  0.32315  1.0000
  C   C11       1.0  0.33508  0.56506  0.33690  1.0000
  C   C12       1.0  0.35177  0.53788  0.34331  1.0000
  C   C13       1.0  0.39557  0.55361  0.33426  1.0000
  C   C14       1.0  0.42217  0.59736  0.32001  1.0000
  C   C15       1.0  0.40555  0.62452  0.31461  1.0000
  C   C16       1.0  0.24224  0.63198  0.32316  1.0000
  C   C17       1.0  0.21391  0.58811  0.31461  1.0000
  C   C18       1.0  0.17013  0.57149  0.31998  1.0000
  C   C19       1.0  0.15298  0.59810  0.33427  1.0000
  C   C20       1.0  0.18105  0.64189  0.34337  1.0000
  C   C21       1.0  0.22492  0.65858  0.33694  1.0000
  C   C22       1.0  0.38468  0.75143  0.32316  1.0000
  C   C23       1.0  0.36914  0.77976  0.31461  1.0000
  C   C24       1.0  0.39630  0.82354  0.31997  1.0000
  C   C25       1.0  0.44005  0.84068  0.33425  1.0000
  C   C26       1.0  0.45577  0.81261  0.34333  1.0000
  C   C27       1.0  0.42860  0.76874  0.33688  1.0000
  H   H7        1.0  0.15102  0.53943  0.31638  1.0000
  H   H8        1.0  0.22472  0.56744  0.30533  1.0000
  H   H9        1.0  0.16980  0.66211  0.35430  1.0000
  H   H10       1.0  0.24407  0.69047  0.34442  1.0000
  H   H11       1.0  0.33766  0.76895  0.30528  1.0000
  H   H12       1.0  0.38335  0.84265  0.31632  1.0000
  H   H13       1.0  0.44133  0.74959  0.34441  1.0000
  H   H14       1.0  0.48724  0.82386  0.35426  1.0000
  H   H15       1.0  0.42622  0.65600  0.30531  1.0000
  H   H16       1.0  0.45424  0.61032  0.31635  1.0000
  H   H17       1.0  0.33155  0.50641  0.35422  1.0000
  H   H18       1.0  0.30319  0.55232  0.34437  1.0000
  C   C28       1.0  0.10879  0.58064  0.34463  1.0000
  C   C29       1.0  0.46679  0.88488  0.34459  1.0000
  C   C30       1.0  0.41302  0.52688  0.34461  1.0000
  O   O1        1.0  0.39508  0.49557  0.40559  1.0000
  O   O2        1.0  0.49807  0.89823  0.40560  1.0000
  O   O3        1.0  0.09543  0.59859  0.40559  1.0000
  C   C31       1.0  0.70567  0.34569  0.32519  1.0000
  N   N10       1.0  0.68997  0.37240  0.32522  1.0000
  C   C32       1.0  0.64797  0.35872  0.32522  1.0000
  N   N11       1.0  0.62126  0.31631  0.32524  1.0000
  C   C33       1.0  0.63495  0.28799  0.32521  1.0000
  N   N12       1.0  0.67736  0.30369  0.32521  1.0000
  C   C34       1.0  0.63254  0.38750  0.32549  1.0000
  C   C35       1.0  0.66017  0.43168  0.31935  1.0000
  C   C36       1.0  0.64457  0.45988  0.31872  1.0000
  C   C37       1.0  0.60084  0.44486  0.32603  1.0000
  C   C38       1.0  0.57317  0.40081  0.33164  1.0000
  C   C39       1.0  0.58872  0.37270  0.33131  1.0000
  C   C40       1.0  0.74989  0.36113  0.32542  1.0000
  C   C41       1.0  0.77890  0.40496  0.33121  1.0000
  C   C42       1.0  0.82258  0.42052  0.33143  1.0000
  C   C43       1.0  0.83896  0.39285  0.32585  1.0000
  C   C44       1.0  0.81025  0.34912  0.31860  1.0000
  C   C45       1.0  0.76645  0.33351  0.31927  1.0000
  C   C46       1.0  0.60617  0.24377  0.32547  1.0000
  C   C47       1.0  0.62098  0.21476  0.33127  1.0000
  C   C48       1.0  0.59286  0.17108  0.33156  1.0000
  C   C49       1.0  0.54882  0.15470  0.32598  1.0000
  C   C50       1.0  0.53380  0.18342  0.31868  1.0000
  C   C51       1.0  0.56199  0.22721  0.31933  1.0000
  H   H19       1.0  0.84227  0.45253  0.33338  1.0000
  H   H20       1.0  0.76871  0.42635  0.33497  1.0000
  H   H21       1.0  0.82095  0.32813  0.31388  1.0000
  H   H22       1.0  0.74683  0.30158  0.31434  1.0000
  H   H23       1.0  0.65257  0.22495  0.33499  1.0000
  H   H24       1.0  0.60519  0.15139  0.33344  1.0000
  H   H25       1.0  0.54968  0.24684  0.31439  1.0000
  H   H26       1.0  0.50211  0.17272  0.31396  1.0000
  H   H27       1.0  0.56732  0.34110  0.33503  1.0000
  H   H28       1.0  0.54115  0.38849  0.33349  1.0000
  H   H29       1.0  0.66555  0.49156  0.31398  1.0000
  H   H30       1.0  0.69210  0.44398  0.31439  1.0000
  C   C52       1.0  0.88321  0.40914  0.32248  1.0000
  C   C53       1.0  0.52087  0.11045  0.32256  1.0000
  C   C54       1.0  0.58455  0.47282  0.32262  1.0000
  O   O4        1.0  0.60407  0.50676  0.26831  1.0000
  O   O5        1.0  0.48690  0.09603  0.26831  1.0000
  O   O6        1.0  0.89764  0.38962  0.26821  1.0000
  C   C55       1.0  0.52584  0.48406  0.35562  1.0000
  N   N13       1.0  0.47213  0.49954  0.39648  1.0000
  C   C56       1.0  0.49742  0.48372  0.41991  1.0000
  N   N14       1.0  0.49592  0.46855  0.50653  1.0000
  O   O7        1.0  0.45952  0.43872  0.52344  1.0000
  O   O8        1.0  0.50474  0.49735  0.56216  1.0000
  N   N15       1.0  0.54993  0.46566  0.37028  1.0000
  H   H31       1.0  0.54003  0.44393  0.41598  1.0000
  C   C57       1.0  0.50965  0.04051  0.35553  1.0000
  N   N16       1.0  0.49412  0.97132  0.39643  1.0000
  C   C58       1.0  0.50995  0.01243  0.41986  1.0000
  N   N17       1.0  0.52508  0.02608  0.50651  1.0000
  O   O9        1.0  0.55489  0.01949  0.52348  1.0000
  O   O10       1.0  0.49626  0.00612  0.56208  1.0000
  N   N18       1.0  0.52802  0.08299  0.37023  1.0000
  H   H32       1.0  0.54976  0.09484  0.41592  1.0000
  C   C59       1.0  0.95315  0.46787  0.35546  1.0000
  N   N19       1.0  0.02233  0.52156  0.39638  1.0000
  C   C60       1.0  0.98121  0.49627  0.41978  1.0000
  N   N20       1.0  0.96754  0.49777  0.50640  1.0000
  O   O11       1.0  0.97412  0.53417  0.52332  1.0000
  O   O12       1.0  0.98750  0.48893  0.56203  1.0000
  N   N21       1.0  0.91066  0.44376  0.37014  1.0000
  H   H33       1.0  0.89881  0.45364  0.41585  1.0000
