data_image0
_chemical_formula_structural       C13H9C13H9C13H9C13H9NC3O2HNC3O2HNC3O2HCNC2O2HCNC2O2HCNC2O2HC17H12C17H12C17H12C17H12CNC2O2HCNC2O2HCNC2O2HNC3O2HNC3O2HNC3O2H
_chemical_formula_sum              "C156 H96 N12 O24"
_cell_length_a       56.9813
_cell_length_b       56.9645
_cell_length_c       14.9862
_cell_angle_alpha    90
_cell_angle_beta     90
_cell_angle_gamma    120.005

_space_group_name_H-M_alt    "P 1"
_space_group_IT_number       1

loop_
  _space_group_symop_operation_xyz
  'x, y, z'

loop_
  _atom_site_type_symbol
  _atom_site_label
  _atom_site_symmetry_multiplicity
  _atom_site_fract_x
  _atom_site_fract_y
  _atom_site_fract_z
  _atom_site_occupancy
  C   C1        1.0  0.91116  0.83656  0.32191  1.0000
  C   C2        1.0  0.93927  0.89446  0.32332  1.0000
  C   C3        1.0  0.91457  0.87950  0.27640  1.0000
  C   C4        1.0  0.90070  0.85097  0.27579  1.0000
  C   C5        1.0  0.95286  0.92267  0.32067  1.0000
  C   C6        1.0  0.06427  0.02978  0.32601  1.0000
  C   C7        1.0  0.10746  0.03469  0.28174  1.0000
  C   C8        1.0  0.15041  0.07425  0.32714  1.0000
  C   C9        1.0  0.13597  0.04940  0.28080  1.0000
  C   C10       1.0  0.96467  0.04215  0.32967  1.0000
  C   C11       1.0  0.92111  0.03909  0.30158  1.0000
  C   C12       1.0  0.91568  0.07869  0.32686  1.0000
  C   C13       1.0  0.90497  0.05138  0.30024  1.0000
  H   H1        1.0  0.88270  0.84083  0.24214  1.0000
  H   H2        1.0  0.90633  0.88925  0.24238  1.0000
  H   H3        1.0  0.91278  0.01933  0.28148  1.0000
  H   H4        1.0  0.09771  0.01678  0.24730  1.0000
  H   H5        1.0  0.14610  0.04162  0.24664  1.0000
  H   H6        1.0  0.88516  0.04004  0.28071  1.0000
  H   H7        1.0  0.05575  0.02100  0.26818  1.0000
  H   H8        1.0  0.95267  0.93133  0.26310  1.0000
  H   H9        1.0  0.98063  0.05019  0.28907  1.0000
  C   C14       1.0  0.52151  0.36668  0.30488  1.0000
  C   C15       1.0  0.47986  0.31101  0.30234  1.0000
  C   C16       1.0  0.50309  0.32039  0.24777  1.0000
  C   C17       1.0  0.52363  0.34777  0.24924  1.0000
  C   C18       1.0  0.46107  0.28339  0.30450  1.0000
  C   C19       1.0  0.35069  0.17721  0.32800  1.0000
  C   C20       1.0  0.30725  0.17127  0.28141  1.0000
  C   C21       1.0  0.26463  0.13356  0.33824  1.0000
  C   C22       1.0  0.27874  0.15674  0.28360  1.0000
  C   C23       1.0  0.46325  0.17822  0.34304  1.0000
  C   C24       1.0  0.50642  0.18572  0.40058  1.0000
  C   C25       1.0  0.52386  0.15590  0.35552  1.0000
  C   C26       1.0  0.52693  0.17888  0.40203  1.0000
  H   H10       1.0  0.54080  0.35343  0.21261  1.0000
  H   H11       1.0  0.50586  0.30713  0.20913  1.0000
  H   H12       1.0  0.50996  0.20320  0.43165  1.0000
  H   H13       1.0  0.31677  0.18812  0.24166  1.0000
  H   H14       1.0  0.26835  0.16352  0.24583  1.0000
  H   H15       1.0  0.54477  0.19179  0.43337  1.0000
  H   H16       1.0  0.35897  0.18362  0.26796  1.0000
  H   H17       1.0  0.45654  0.27331  0.24690  1.0000
  H   H18       1.0  0.45815  0.18014  0.28099  1.0000
  C   C27       1.0  0.62097  0.15511  0.30506  1.0000
  C   C28       1.0  0.67656  0.16886  0.30233  1.0000
  C   C29       1.0  0.66723  0.18272  0.24751  1.0000
  C   C30       1.0  0.63990  0.17602  0.24913  1.0000
  C   C31       1.0  0.70417  0.17765  0.30438  1.0000
  C   C32       1.0  0.80669  0.16981  0.32934  1.0000
  C   C33       1.0  0.81090  0.12994  0.30514  1.0000
  C   C34       1.0  0.85323  0.13042  0.34011  1.0000
  C   C35       1.0  0.82630  0.11685  0.30781  1.0000
  C   C36       1.0  0.80954  0.28538  0.34311  1.0000
  C   C37       1.0  0.80202  0.32117  0.39968  1.0000
  C   C38       1.0  0.83219  0.36843  0.35532  1.0000
  C   C39       1.0  0.80900  0.34857  0.40104  1.0000
  H   H19       1.0  0.63430  0.18756  0.21233  1.0000
  H   H20       1.0  0.68051  0.19869  0.20872  1.0000
  H   H21       1.0  0.78437  0.30727  0.43001  1.0000
  H   H22       1.0  0.79138  0.11939  0.28212  1.0000
  H   H23       1.0  0.81748  0.09712  0.28703  1.0000
  H   H24       1.0  0.79606  0.35359  0.43170  1.0000
  H   H25       1.0  0.79607  0.16725  0.27378  1.0000
  H   H26       1.0  0.71427  0.18337  0.24683  1.0000
  H   H27       1.0  0.80822  0.27843  0.28123  1.0000
  C   C40       1.0  0.83318  0.46637  0.30450  1.0000
  C   C41       1.0  0.81897  0.50786  0.30247  1.0000
  C   C42       1.0  0.80527  0.48473  0.24736  1.0000
  C   C43       1.0  0.81220  0.46425  0.24863  1.0000
  C   C44       1.0  0.80995  0.52649  0.30519  1.0000
  C   C45       1.0  0.81375  0.63632  0.32777  1.0000
  C   C46       1.0  0.85122  0.67966  0.28032  1.0000
  C   C47       1.0  0.85611  0.72239  0.33592  1.0000
  C   C48       1.0  0.86519  0.70818  0.28181  1.0000
  C   C49       1.0  0.70230  0.52422  0.34411  1.0000
  C   C50       1.0  0.66651  0.48099  0.40092  1.0000
  C   C51       1.0  0.61929  0.46379  0.35594  1.0000
  C   C52       1.0  0.63913  0.46054  0.40215  1.0000
  H   H28       1.0  0.80075  0.44711  0.21176  1.0000
  H   H29       1.0  0.78924  0.48193  0.20873  1.0000
  H   H30       1.0  0.68040  0.47731  0.43167  1.0000
  H   H31       1.0  0.85853  0.67005  0.24096  1.0000
  H   H32       1.0  0.88235  0.71850  0.24395  1.0000
  H   H33       1.0  0.63413  0.44261  0.43306  1.0000
  H   H34       1.0  0.81177  0.62790  0.26792  1.0000
  H   H35       1.0  0.80468  0.53132  0.24760  1.0000
  H   H36       1.0  0.70935  0.52948  0.28215  1.0000
  N   N1        1.0  0.22286  0.11159  0.25932  1.0000
  C   C53       1.0  0.19552  0.09712  0.24841  1.0000
  C   C54       1.0  0.17918  0.08929  0.32636  1.0000
  C   C55       1.0  0.18525  0.09223  0.16213  1.0000
  O   O1        1.0  0.19658  0.08586  0.10583  1.0000
  O   O2        1.0  0.17280  0.10317  0.13268  1.0000
  H   H37       1.0  0.16563  0.11092  0.16557  1.0000
  N   N2        1.0  0.86899  0.10403  0.26569  1.0000
  C   C56       1.0  0.88323  0.09095  0.25420  1.0000
  C   C57       1.0  0.89952  0.09127  0.32650  1.0000
  C   C58       1.0  0.88245  0.07987  0.17140  1.0000
  O   O3        1.0  0.86127  0.06977  0.12864  1.0000
  O   O4        1.0  0.90415  0.08885  0.13070  1.0000
  H   H38       1.0  0.90564  0.08435  0.07524  1.0000
  N   N3        1.0  0.87582  0.76396  0.25590  1.0000
  C   C59       1.0  0.88871  0.79128  0.24429  1.0000
  C   C60       1.0  0.89733  0.80779  0.32183  1.0000
  C   C61       1.0  0.89398  0.80137  0.15783  1.0000
  O   O5        1.0  0.87642  0.78978  0.10129  1.0000
  O   O6        1.0  0.91732  0.81385  0.12787  1.0000
  H   H39       1.0  0.93229  0.82119  0.16052  1.0000
  C   C62       1.0  0.59429  0.15084  0.31467  1.0000
  N   N4        1.0  0.55395  0.14915  0.26417  1.0000
  C   C63       1.0  0.57683  0.14844  0.24338  1.0000
  C   C64       1.0  0.58190  0.14563  0.15442  1.0000
  O   O7        1.0  0.57437  0.15576  0.09740  1.0000
  O   O8        1.0  0.58440  0.12644  0.12801  1.0000
  H   H40       1.0  0.58717  0.11547  0.16272  1.0000
  C   C65       1.0  0.83759  0.44406  0.31413  1.0000
  N   N5        1.0  0.83916  0.40531  0.26374  1.0000
  C   C66       1.0  0.83998  0.42895  0.24292  1.0000
  C   C67       1.0  0.84280  0.43678  0.15393  1.0000
  O   O9        1.0  0.83285  0.41925  0.09646  1.0000
  O   O10       1.0  0.86186  0.45863  0.12770  1.0000
  H   H41       1.0  0.87276  0.47237  0.16251  1.0000
  C   C68       1.0  0.54382  0.39341  0.31458  1.0000
  N   N6        1.0  0.58252  0.43377  0.26432  1.0000
  C   C69       1.0  0.55894  0.41090  0.24339  1.0000
  C   C70       1.0  0.55119  0.40584  0.15434  1.0000
  O   O11       1.0  0.56878  0.41342  0.09709  1.0000
  O   O12       1.0  0.52938  0.40305  0.12779  1.0000
  H   H42       1.0  0.51561  0.40021  0.16241  1.0000
  C   C71       1.0  0.93573  0.85143  0.36939  1.0000
  C   C72       1.0  0.94975  0.87995  0.36914  1.0000
  C   C73       1.0  0.96526  0.93879  0.39116  1.0000
  C   C74       1.0  0.97812  0.96676  0.38666  1.0000
  C   C75       1.0  0.96289  0.98012  0.38312  1.0000
  C   C76       1.0  0.97579  0.00876  0.38255  1.0000
  C   C77       1.0  0.00444  0.02394  0.38707  1.0000
  C   C78       1.0  0.01999  0.01091  0.39000  1.0000
  C   C79       1.0  0.00666  0.98230  0.39057  1.0000
  C   C80       1.0  0.04794  0.02602  0.39589  1.0000
  C   C81       1.0  0.09249  0.04433  0.32922  1.0000
  C   C82       1.0  0.10701  0.06924  0.37549  1.0000
  C   C83       1.0  0.13553  0.08378  0.37543  1.0000
  C   C84       1.0  0.96003  0.02113  0.38229  1.0000
  C   C85       1.0  0.94839  0.05381  0.32998  1.0000
  C   C86       1.0  0.95918  0.08106  0.35678  1.0000
  C   C87       1.0  0.94291  0.09322  0.35622  1.0000
  H   H43       1.0  0.94400  0.84161  0.40276  1.0000
  H   H44       1.0  0.96786  0.89000  0.40222  1.0000
  H   H45       1.0  0.01783  0.97272  0.39445  1.0000
  H   H46       1.0  0.94212  0.96882  0.38163  1.0000
  H   H47       1.0  0.01409  0.04470  0.38902  1.0000
  H   H48       1.0  0.14535  0.10186  0.40890  1.0000
  H   H49       1.0  0.09697  0.07724  0.40891  1.0000
  H   H50       1.0  0.95135  0.11303  0.37577  1.0000
  H   H51       1.0  0.97891  0.09224  0.37743  1.0000
  H   H52       1.0  0.05582  0.03415  0.45485  1.0000
  H   H53       1.0  0.96542  0.93069  0.44977  1.0000
  H   H54       1.0  0.94384  0.01326  0.42209  1.0000
  C   C88       1.0  0.49810  0.35741  0.35851  1.0000
  C   C89       1.0  0.47739  0.33005  0.35640  1.0000
  C   C90       1.0  0.45191  0.26921  0.38073  1.0000
  C   C91       1.0  0.43776  0.24120  0.38255  1.0000
  C   C92       1.0  0.45226  0.22719  0.39083  1.0000
  C   C93       1.0  0.43850  0.19869  0.39913  1.0000
  C   C94       1.0  0.40990  0.18415  0.40074  1.0000
  C   C95       1.0  0.39509  0.19788  0.39236  1.0000
  C   C96       1.0  0.40915  0.22644  0.38388  1.0000
  C   C97       1.0  0.36716  0.18357  0.39910  1.0000
  C   C98       1.0  0.32252  0.16289  0.33311  1.0000
  C   C99       1.0  0.30835  0.13923  0.38588  1.0000
  C   C100      1.0  0.27985  0.12489  0.38879  1.0000
  C   C101      1.0  0.45334  0.18580  0.41164  1.0000
  C   C102      1.0  0.48207  0.16969  0.35295  1.0000
  C   C103      1.0  0.47896  0.14676  0.30612  1.0000
  C   C104      1.0  0.49962  0.14003  0.30716  1.0000
  H   H55       1.0  0.49612  0.37046  0.40063  1.0000
  H   H56       1.0  0.46090  0.32398  0.39698  1.0000
  H   H57       1.0  0.39853  0.23658  0.38049  1.0000
  H   H58       1.0  0.47306  0.23790  0.39214  1.0000
  H   H59       1.0  0.39985  0.16351  0.40907  1.0000
  H   H60       1.0  0.27031  0.10764  0.42661  1.0000
  H   H61       1.0  0.31866  0.13203  0.42205  1.0000
  H   H62       1.0  0.49704  0.12370  0.27074  1.0000
  H   H63       1.0  0.46197  0.13524  0.26861  1.0000
  H   H64       1.0  0.35935  0.17770  0.45985  1.0000
  H   H65       1.0  0.45794  0.27864  0.43921  1.0000
  H   H66       1.0  0.45893  0.18482  0.47378  1.0000
  C   C105      1.0  0.63018  0.14096  0.35893  1.0000
  C   C106      1.0  0.65750  0.14750  0.35677  1.0000
  C   C107      1.0  0.71838  0.18242  0.38045  1.0000
  C   C108      1.0  0.74639  0.19654  0.38212  1.0000
  C   C109      1.0  0.76007  0.22503  0.39098  1.0000
  C   C110      1.0  0.78856  0.24007  0.39881  1.0000
  C   C111      1.0  0.80341  0.22634  0.39924  1.0000
  C   C112      1.0  0.79006  0.19781  0.39024  1.0000
  C   C113      1.0  0.76148  0.18302  0.38220  1.0000
  C   C114      1.0  0.80498  0.18472  0.39590  1.0000
  C   C115      1.0  0.82206  0.15707  0.33411  1.0000
  C   C116      1.0  0.84927  0.17092  0.36394  1.0000
  C   C117      1.0  0.86458  0.15776  0.36711  1.0000
  C   C118      1.0  0.80116  0.26776  0.41152  1.0000
  C   C119      1.0  0.81808  0.31275  0.35278  1.0000
  C   C120      1.0  0.84122  0.33253  0.30670  1.0000
  C   C121      1.0  0.84811  0.35997  0.30771  1.0000
  H   H67       1.0  0.61711  0.12600  0.40122  1.0000
  H   H68       1.0  0.66351  0.13704  0.39743  1.0000
  H   H69       1.0  0.75155  0.16227  0.37860  1.0000
  H   H70       1.0  0.74915  0.23490  0.39298  1.0000
  H   H71       1.0  0.82406  0.23719  0.40701  1.0000
  H   H72       1.0  0.88435  0.16859  0.38743  1.0000
  H   H73       1.0  0.85833  0.19084  0.38273  1.0000
  H   H74       1.0  0.86459  0.37369  0.27179  1.0000
  H   H75       1.0  0.85282  0.32700  0.26986  1.0000
  H   H76       1.0  0.81548  0.18738  0.45174  1.0000
  H   H77       1.0  0.70898  0.17890  0.43901  1.0000
  H   H78       1.0  0.80162  0.27428  0.47345  1.0000
  C   C122      1.0  0.84717  0.48970  0.35859  1.0000
  C   C123      1.0  0.84042  0.51033  0.35678  1.0000
  C   C124      1.0  0.80454  0.53521  0.38164  1.0000
  C   C125      1.0  0.79071  0.54938  0.38379  1.0000
  C   C126      1.0  0.76222  0.53490  0.39226  1.0000
  C   C127      1.0  0.74750  0.54868  0.40044  1.0000
  C   C128      1.0  0.76158  0.57729  0.40174  1.0000
  C   C129      1.0  0.79011  0.59207  0.39319  1.0000
  C   C130      1.0  0.80459  0.57800  0.38475  1.0000
  C   C131      1.0  0.80375  0.62002  0.39932  1.0000
  C   C132      1.0  0.82759  0.66450  0.33220  1.0000
  C   C133      1.0  0.81810  0.67876  0.38444  1.0000
  C   C134      1.0  0.83225  0.70727  0.38668  1.0000
  C   C135      1.0  0.71979  0.53386  0.41280  1.0000
  C   C136      1.0  0.67493  0.50544  0.35377  1.0000
  C   C137      1.0  0.65518  0.50871  0.30714  1.0000
  C   C138      1.0  0.62775  0.48812  0.30804  1.0000
  H   H79       1.0  0.86214  0.49165  0.40096  1.0000
  H   H80       1.0  0.85069  0.52674  0.39781  1.0000
  H   H81       1.0  0.82534  0.58861  0.38111  1.0000
  H   H82       1.0  0.75211  0.51409  0.39363  1.0000
  H   H83       1.0  0.75102  0.58736  0.40989  1.0000
  H   H84       1.0  0.82456  0.71690  0.42410  1.0000
  H   H85       1.0  0.80061  0.66852  0.42072  1.0000
  H   H86       1.0  0.61405  0.49082  0.27180  1.0000
  H   H87       1.0  0.66072  0.52580  0.27006  1.0000
  H   H88       1.0  0.80577  0.62797  0.45988  1.0000
  H   H89       1.0  0.80780  0.52898  0.43996  1.0000
  H   H90       1.0  0.71316  0.52812  0.47485  1.0000
  C   C139      1.0  0.23584  0.11885  0.33929  1.0000
  N   N7        1.0  0.19214  0.09689  0.40630  1.0000
  C   C140      1.0  0.21950  0.11102  0.41725  1.0000
  C   C141      1.0  0.22973  0.11818  0.50319  1.0000
  O   O13       1.0  0.21879  0.10156  0.56287  1.0000
  O   O14       1.0  0.24158  0.14204  0.52847  1.0000
  H   H91       1.0  0.24836  0.15637  0.49288  1.0000
  C   C142      1.0  0.86878  0.11716  0.34120  1.0000
  N   N8        1.0  0.89929  0.10436  0.40207  1.0000
  C   C143      1.0  0.88498  0.11737  0.41350  1.0000
  C   C144      1.0  0.88569  0.12846  0.49664  1.0000
  O   O15       1.0  0.90729  0.13993  0.53658  1.0000
  O   O16       1.0  0.86548  0.11911  0.54535  1.0000
  H   H92       1.0  0.84858  0.10827  0.52751  1.0000
  C   C145      1.0  0.87018  0.75118  0.33621  1.0000
  N   N9        1.0  0.89204  0.79503  0.40213  1.0000
  C   C146      1.0  0.87877  0.76769  0.41376  1.0000
  C   C147      1.0  0.87578  0.75765  0.50000  1.0000
  O   O17       1.0  0.86974  0.76854  0.55884  1.0000
  O   O18       1.0  0.88801  0.74605  0.52555  1.0000
  H   H93       1.0  0.89567  0.73934  0.49015  1.0000
  N   N10       1.0  0.58618  0.15239  0.39869  1.0000
  C   C148      1.0  0.56293  0.15233  0.41959  1.0000
  C   C149      1.0  0.54609  0.15125  0.34804  1.0000
  C   C150      1.0  0.55716  0.15357  0.50898  1.0000
  O   O19       1.0  0.57590  0.16685  0.56023  1.0000
  O   O20       1.0  0.53635  0.13562  0.54496  1.0000
  H   H94       1.0  0.52202  0.12290  0.51629  1.0000
  N   N11       1.0  0.83593  0.43435  0.39816  1.0000
  C   C151      1.0  0.83592  0.41113  0.41917  1.0000
  C   C152      1.0  0.83695  0.39533  0.34764  1.0000
  C   C153      1.0  0.83456  0.40408  0.50860  1.0000
  O   O21       1.0  0.82098  0.40931  0.55925  1.0000
  O   O22       1.0  0.85238  0.40105  0.54466  1.0000
  H   H95       1.0  0.86517  0.39953  0.51612  1.0000
  N   N12       1.0  0.55343  0.40149  0.39866  1.0000
  C   C154      1.0  0.57659  0.42475  0.41974  1.0000
  C   C155      1.0  0.59240  0.44161  0.34828  1.0000
  C   C156      1.0  0.58359  0.43048  0.50916  1.0000
  O   O23       1.0  0.57807  0.41170  0.56034  1.0000
  O   O24       1.0  0.58653  0.45131  0.54521  1.0000
  H   H96       1.0  0.58818  0.46567  0.51660  1.0000
