data_image0
_chemical_formula_structural       C5H6C4H3C4H3CH3NC3H3CH3NCH2C12H6C6H3C9H3C7H3C2H2C3NC2N2C3NC2N2C3N2HCH2C6H2C6HC2HC2HC2HCH3NC2HCHCNC
_chemical_formula_sum              "C93 H54 N12"
_cell_length_a       45.6101
_cell_length_b       45.6157
_cell_length_c       14.47
_cell_angle_alpha    90
_cell_angle_beta     90
_cell_angle_gamma    119.994

_space_group_name_H-M_alt    "P 1"
_space_group_IT_number       1

loop_
  _space_group_symop_operation_xyz
  'x, y, z'

loop_
  _atom_site_type_symbol
  _atom_site_label
  _atom_site_symmetry_multiplicity
  _atom_site_fract_x
  _atom_site_fract_y
  _atom_site_fract_z
  _atom_site_occupancy
  C   C1        1.0  0.41836  0.58766  0.39609  1.0000
  C   C2        1.0  0.45841  0.83985  0.39419  1.0000
  C   C3        1.0  0.47315  0.87532  0.38500  1.0000
  C   C4        1.0  0.20596  0.62780  0.39384  1.0000
  C   C5        1.0  0.17048  0.60706  0.38469  1.0000
  H   H1        1.0  0.42921  0.54796  0.40400  1.0000
  H   H2        1.0  0.47320  0.83023  0.41677  1.0000
  H   H3        1.0  0.49826  0.89036  0.40059  1.0000
  H   H4        1.0  0.21557  0.65225  0.41604  1.0000
  H   H5        1.0  0.15544  0.61717  0.39985  1.0000
  H   H6        1.0  0.39418  0.57306  0.42048  1.0000
  C   C6        1.0  0.43908  0.57291  0.38677  1.0000
  C   C7        1.0  0.63595  0.44832  0.34799  1.0000
  C   C8        1.0  0.59757  0.19674  0.34710  1.0000
  C   C9        1.0  0.58330  0.16124  0.35281  1.0000
  H   H7        1.0  0.62403  0.48698  0.33159  1.0000
  H   H8        1.0  0.58326  0.20628  0.32022  1.0000
  H   H9        1.0  0.55903  0.14616  0.32988  1.0000
  C   C10       1.0  0.61473  0.46260  0.35366  1.0000
  C   C11       1.0  0.54785  0.50207  0.37659  1.0000
  C   C12       1.0  0.54609  0.51946  0.29804  1.0000
  C   C13       1.0  0.52709  0.53613  0.29876  1.0000
  H   H10       1.0  0.48586  0.50568  0.00905  1.0000
  H   H11       1.0  0.52604  0.54772  0.23942  1.0000
  H   H12       1.0  0.55852  0.51982  0.23882  1.0000
  C   C14       1.0  0.52021  0.47108  0.03347  1.0000
  H   H13       1.0  0.53583  0.45963  0.01959  1.0000
  H   H14       1.0  0.49523  0.45123  0.05575  1.0000
  H   H15       1.0  0.53192  0.48945  0.08911  1.0000
  N   N1        1.0  0.56666  0.48701  0.37131  1.0000
  C   C15       1.0  0.54375  0.05492  0.37675  1.0000
  C   C16       1.0  0.52636  0.03576  0.29824  1.0000
  C   C17       1.0  0.50970  0.00008  0.29901  1.0000
  H   H16       1.0  0.54010  0.98940  0.00942  1.0000
  H   H17       1.0  0.49811  0.98742  0.23969  1.0000
  H   H18       1.0  0.52599  0.04780  0.23900  1.0000
  C   C18       1.0  0.57466  0.05835  0.03374  1.0000
  H   H19       1.0  0.58610  0.08541  0.01981  1.0000
  H   H20       1.0  0.59451  0.05324  0.05614  1.0000
  H   H21       1.0  0.55626  0.05170  0.08932  1.0000
  N   N2        1.0  0.55878  0.08878  0.37146  1.0000
  C   C19       1.0  0.04572  0.51880  0.29903  1.0000
  H   H22       1.0  0.05638  0.55987  0.00943  1.0000
  H   H23       1.0  0.05839  0.51989  0.23969  1.0000
  C   C20       1.0  0.42404  0.81791  0.37126  1.0000
  C   C21       1.0  0.43050  0.62179  0.37097  1.0000
  C   C22       1.0  0.22789  0.61533  0.37131  1.0000
  C   C23       1.0  0.47251  0.59173  0.35176  1.0000
  C   C24       1.0  0.48441  0.62596  0.32732  1.0000
  C   C25       1.0  0.46390  0.64079  0.33692  1.0000
  C   C26       1.0  0.45405  0.88997  0.35240  1.0000
  C   C27       1.0  0.41959  0.86771  0.33017  1.0000
  C   C28       1.0  0.40477  0.83235  0.33960  1.0000
  C   C29       1.0  0.15583  0.57328  0.35247  1.0000
  C   C30       1.0  0.17810  0.56103  0.33066  1.0000
  C   C31       1.0  0.21345  0.58158  0.34012  1.0000
  H   H24       1.0  0.50834  0.64057  0.30132  1.0000
  H   H25       1.0  0.47359  0.66557  0.31759  1.0000
  H   H26       1.0  0.37982  0.81731  0.32192  1.0000
  H   H27       1.0  0.40478  0.87706  0.30592  1.0000
  H   H28       1.0  0.16874  0.53684  0.30673  1.0000
  H   H29       1.0  0.22850  0.57163  0.32274  1.0000
  C   C32       1.0  0.32477  0.66713  0.38080  1.0000
  C   C33       1.0  0.34310  0.70297  0.38071  1.0000
  C   C34       1.0  0.37896  0.72105  0.38079  1.0000
  C   C35       1.0  0.39648  0.70273  0.38071  1.0000
  C   C36       1.0  0.37871  0.66687  0.38079  1.0000
  C   C37       1.0  0.34286  0.64935  0.38071  1.0000
  H   H30       1.0  0.42249  0.71565  0.38026  1.0000
  H   H31       1.0  0.33017  0.71605  0.38025  1.0000
  H   H32       1.0  0.32978  0.62335  0.38026  1.0000
  C   C38       1.0  0.26106  0.63442  0.37703  1.0000
  C   C39       1.0  0.29140  0.65047  0.37965  1.0000
  C   C40       1.0  0.41142  0.63587  0.37692  1.0000
  C   C41       1.0  0.39537  0.65016  0.37963  1.0000
  C   C42       1.0  0.39567  0.75442  0.37964  1.0000
  C   C43       1.0  0.40997  0.78476  0.37701  1.0000
  C   C44       1.0  0.12107  0.55250  0.33728  1.0000
  C   C45       1.0  0.46804  0.92474  0.33728  1.0000
  C   C46       1.0  0.49325  0.57769  0.33657  1.0000
  H   H33       1.0  0.51131  0.58853  0.28902  1.0000
  H   H34       1.0  0.45704  0.93195  0.29018  1.0000
  H   H35       1.0  0.11387  0.53426  0.29028  1.0000
  C   C47       1.0  0.63097  0.21879  0.37789  1.0000
  C   C48       1.0  0.62443  0.41477  0.37770  1.0000
  C   C49       1.0  0.58132  0.44388  0.38907  1.0000
  C   C50       1.0  0.57018  0.41027  0.41865  1.0000
  C   C51       1.0  0.59124  0.39593  0.41313  1.0000
  C   C52       1.0  0.60188  0.14657  0.38932  1.0000
  C   C53       1.0  0.63534  0.16905  0.42001  1.0000
  H   H36       1.0  0.54631  0.39564  0.44498  1.0000
  H   H37       1.0  0.58196  0.37153  0.43543  1.0000
  H   H38       1.0  0.63246  0.32116  0.37007  1.0000
  C   C54       1.0  0.58877  0.11154  0.39690  1.0000
  C   C55       1.0  0.55940  0.45701  0.39671  1.0000
  H   H39       1.0  0.53645  0.44205  0.42302  1.0000
  H   H40       1.0  0.60374  0.10356  0.42326  1.0000
  C   C56       1.0  0.50972  0.53692  0.37912  1.0000
  C   C57       1.0  0.51179  0.51995  0.45866  1.0000
  C   C58       1.0  0.53083  0.50291  0.45766  1.0000
  N   N3        1.0  0.53257  0.48799  0.53725  1.0000
  C   C59       1.0  0.51701  0.48804  0.61723  1.0000
  C   C60       1.0  0.49805  0.50472  0.61754  1.0000
  N   N4        1.0  0.49627  0.51999  0.53900  1.0000
  N   N5        1.0  0.49156  0.55279  0.38327  1.0000
  C   C61       1.0  0.50893  0.98195  0.37940  1.0000
  C   C62       1.0  0.52588  0.00101  0.45893  1.0000
  C   C63       1.0  0.54290  0.03708  0.45789  1.0000
  N   N6        1.0  0.55779  0.05376  0.53747  1.0000
  C   C64       1.0  0.55773  0.03817  0.61750  1.0000
  C   C65       1.0  0.54107  0.00253  0.61787  1.0000
  N   N7        1.0  0.52583  0.98547  0.53932  1.0000
  N   N8        1.0  0.49309  0.94793  0.38357  1.0000
  C   C66       1.0  0.06385  0.53615  0.37941  1.0000
  C   C67       1.0  0.04478  0.53404  0.45895  1.0000
  C   C68       1.0  0.04325  0.54769  0.61789  1.0000
  N   N9        1.0  0.06032  0.54953  0.53934  1.0000
  N   N10       1.0  0.09787  0.55435  0.38357  1.0000
  H   H41       1.0  0.65991  0.46273  0.32197  1.0000
  C   C69       1.0  0.64967  0.20445  0.41446  1.0000
  H   H42       1.0  0.67397  0.21958  0.43757  1.0000
  H   H43       1.0  0.64986  0.15983  0.44717  1.0000
  C   C70       1.0  0.73016  0.36939  0.36958  1.0000
  C   C71       1.0  0.71175  0.33356  0.36965  1.0000
  C   C72       1.0  0.67589  0.31560  0.36959  1.0000
  C   C73       1.0  0.65846  0.33401  0.36963  1.0000
  C   C74       1.0  0.67636  0.36987  0.36956  1.0000
  C   C75       1.0  0.71219  0.38729  0.36963  1.0000
  H   H44       1.0  0.72460  0.32041  0.37011  1.0000
  H   H45       1.0  0.72534  0.41329  0.37007  1.0000
  C   C76       1.0  0.76351  0.38596  0.37076  1.0000
  C   C77       1.0  0.64370  0.40090  0.37304  1.0000
  C   C78       1.0  0.65979  0.38665  0.37070  1.0000
  C   C79       1.0  0.65911  0.28225  0.37075  1.0000
  C   C80       1.0  0.64485  0.25192  0.37314  1.0000
  C   C81       1.0  0.84904  0.40997  0.34694  1.0000
  H   H46       1.0  0.83951  0.38616  0.31990  1.0000
  C   C82       1.0  0.82698  0.42130  0.37792  1.0000
  C   C83       1.0  0.84131  0.45430  0.41470  1.0000
  H   H47       1.0  0.82617  0.46344  0.43794  1.0000
  C   C84       1.0  0.79384  0.40203  0.37315  1.0000
  C   C85       1.0  0.88454  0.43120  0.35265  1.0000
  H   H48       1.0  0.89963  0.42205  0.32957  1.0000
  C   C86       1.0  0.99087  0.49795  0.37681  1.0000
  C   C87       1.0  0.01004  0.49976  0.29827  1.0000
  H   H49       1.0  0.99799  0.48734  0.23902  1.0000
  C   C88       1.0  0.98743  0.52543  0.03378  1.0000
  H   H50       1.0  0.96037  0.50979  0.01985  1.0000
  H   H51       1.0  0.99252  0.55039  0.05618  1.0000
  H   H52       1.0  0.99409  0.51370  0.08936  1.0000
  N   N11       1.0  0.95701  0.47912  0.37151  1.0000
  C   C89       1.0  0.89920  0.46442  0.38936  1.0000
  C   C90       1.0  0.87671  0.47537  0.42026  1.0000
  H   H53       1.0  0.88593  0.49909  0.44755  1.0000
  C   C91       1.0  0.93424  0.48635  0.39695  1.0000
  H   H54       1.0  0.94221  0.50929  0.42333  1.0000
  C   C92       1.0  0.00870  0.51496  0.45792  1.0000
  N   N12       1.0  0.99202  0.51316  0.53751  1.0000
  C   C93       1.0  0.00761  0.52869  0.61753  1.0000
