data_image0
_chemical_formula_structural       C2HC2HN2CNC2NCHCNC2NCHC4H2C4H2N3C2HCHNC2HCHC2HC2HN2CNC2NCHCNC2NCHC4H2C4H2N3C2HCHNC2HCHC2HC2HN2CNC2NCHCNC2NCHC4H2C4H2N3C2HCHNC2HCHC2HC2HN2CNC2NCHCNC2NCHC4H2C4H2N3C2HCHNC2HCH
_chemical_formula_sum              "C104 H48 N40"
_cell_length_a       31.2416
_cell_length_b       31.2416
_cell_length_c       14.821
_cell_angle_alpha    90
_cell_angle_beta     90
_cell_angle_gamma    90

_space_group_name_H-M_alt    "P 1"
_space_group_IT_number       1

loop_
  _space_group_symop_operation_xyz
  'x, y, z'

loop_
  _atom_site_type_symbol
  _atom_site_label
  _atom_site_symmetry_multiplicity
  _atom_site_fract_x
  _atom_site_fract_y
  _atom_site_fract_z
  _atom_site_occupancy
  C   C1        1.0  0.00986  0.07019  0.33632  1.0000
  C   C2        1.0  0.04153  0.10256  0.33605  1.0000
  H   H1        1.0  0.47916  0.08064  0.33650  1.0000
  C   C3        1.0  0.46488  0.41535  0.33413  1.0000
  C   C4        1.0  0.49636  0.44789  0.33403  1.0000
  H   H2        1.0  0.02707  0.43757  0.33295  1.0000
  N   N1        1.0  0.47297  0.37266  0.33332  1.0000
  N   N2        1.0  0.03374  0.14526  0.33601  1.0000
  C   C5        1.0  0.50806  0.30403  0.33194  1.0000
  N   N3        1.0  0.03943  0.23422  0.33054  1.0000
  C   C6        1.0  0.04485  0.27736  0.32835  1.0000
  C   C7        1.0  0.08400  0.29127  0.32205  1.0000
  N   N4        1.0  0.11848  0.30368  0.31610  1.0000
  C   C8        1.0  0.50928  0.34914  0.33088  1.0000
  H   H3        1.0  0.53815  0.36442  0.32809  1.0000
  C   C9        1.0  0.20807  0.50403  0.33325  1.0000
  N   N5        1.0  0.27787  0.97266  0.33184  1.0000
  C   C10       1.0  0.23474  0.96723  0.32969  1.0000
  C   C11       1.0  0.22083  0.92808  0.32336  1.0000
  N   N6        1.0  0.20842  0.89360  0.31738  1.0000
  C   C12       1.0  0.16296  0.50280  0.33211  1.0000
  H   H4        1.0  0.14768  0.47394  0.32927  1.0000
  C   C13       1.0  0.01945  0.02542  0.33558  1.0000
  C   C14       1.0  0.08481  0.09050  0.33535  1.0000
  C   C15       1.0  0.09675  0.04721  0.33471  1.0000
  C   C16       1.0  0.06420  0.01573  0.33475  1.0000
  H   H5        1.0  0.07453  0.48502  0.33467  1.0000
  H   H6        1.0  0.10807  0.11368  0.33518  1.0000
  C   C17       1.0  0.48668  0.49264  0.33558  1.0000
  C   C18       1.0  0.44190  0.50223  0.33699  1.0000
  C   C19       1.0  0.40953  0.47056  0.33661  1.0000
  C   C20       1.0  0.42159  0.42729  0.33536  1.0000
  H   H7        1.0  0.43146  0.03293  0.33805  1.0000
  H   H8        1.0  0.39842  0.40403  0.33520  1.0000
  N   N7        1.0  0.36684  0.47835  0.33689  1.0000
  N   N8        1.0  0.13943  0.03913  0.33421  1.0000
  N   N9        1.0  0.46937  0.28402  0.33715  1.0000
  C   C21       1.0  0.96420  0.24089  0.33914  1.0000
  C   C22       1.0  0.00072  0.21440  0.33595  1.0000
  H   H9        1.0  0.93402  0.22840  0.34315  1.0000
  C   C23       1.0  0.99793  0.16951  0.33768  1.0000
  H   H10       1.0  0.96855  0.15517  0.34068  1.0000
  N   N10       1.0  0.22808  0.54272  0.33847  1.0000
  C   C24       1.0  0.27121  0.04788  0.34048  1.0000
  C   C25       1.0  0.29769  0.01136  0.33726  1.0000
  H   H11       1.0  0.28370  0.07806  0.34450  1.0000
  C   C26       1.0  0.34258  0.01415  0.33890  1.0000
  H   H12       1.0  0.35693  0.04354  0.34188  1.0000
  C   C27       1.0  0.00986  0.57019  0.33632  1.0000
  C   C28       1.0  0.04153  0.60256  0.33605  1.0000
  H   H13       1.0  0.47916  0.58064  0.33650  1.0000
  C   C29       1.0  0.46488  0.91535  0.33413  1.0000
  C   C30       1.0  0.49636  0.94789  0.33403  1.0000
  H   H14       1.0  0.02707  0.93757  0.33295  1.0000
  N   N11       1.0  0.47297  0.87266  0.33332  1.0000
  N   N12       1.0  0.03374  0.64526  0.33601  1.0000
  C   C31       1.0  0.50806  0.80403  0.33194  1.0000
  N   N13       1.0  0.03943  0.73422  0.33054  1.0000
  C   C32       1.0  0.04485  0.77735  0.32835  1.0000
  C   C33       1.0  0.08400  0.79127  0.32205  1.0000
  N   N14       1.0  0.11848  0.80368  0.31610  1.0000
  C   C34       1.0  0.50928  0.84914  0.33088  1.0000
  H   H15       1.0  0.53815  0.86442  0.32809  1.0000
  C   C35       1.0  0.20807  0.00403  0.33325  1.0000
  N   N15       1.0  0.27787  0.47266  0.33184  1.0000
  C   C36       1.0  0.23474  0.46724  0.32969  1.0000
  C   C37       1.0  0.22083  0.42808  0.32336  1.0000
  N   N16       1.0  0.20842  0.39360  0.31738  1.0000
  C   C38       1.0  0.16296  0.00280  0.33211  1.0000
  H   H16       1.0  0.14768  0.97394  0.32927  1.0000
  C   C39       1.0  0.01945  0.52542  0.33558  1.0000
  C   C40       1.0  0.08481  0.59050  0.33535  1.0000
  C   C41       1.0  0.09675  0.54721  0.33471  1.0000
  C   C42       1.0  0.06420  0.51573  0.33475  1.0000
  H   H17       1.0  0.07453  0.98502  0.33467  1.0000
  H   H18       1.0  0.10807  0.61368  0.33518  1.0000
  C   C43       1.0  0.48668  0.99264  0.33558  1.0000
  C   C44       1.0  0.44190  0.00223  0.33699  1.0000
  C   C45       1.0  0.40953  0.97056  0.33661  1.0000
  C   C46       1.0  0.42159  0.92729  0.33536  1.0000
  H   H19       1.0  0.43146  0.53293  0.33805  1.0000
  H   H20       1.0  0.39842  0.90403  0.33520  1.0000
  N   N17       1.0  0.36684  0.97835  0.33689  1.0000
  N   N18       1.0  0.13943  0.53913  0.33421  1.0000
  N   N19       1.0  0.46937  0.78402  0.33715  1.0000
  C   C47       1.0  0.96420  0.74089  0.33914  1.0000
  C   C48       1.0  0.00072  0.71440  0.33595  1.0000
  H   H21       1.0  0.93402  0.72840  0.34315  1.0000
  C   C49       1.0  0.99793  0.66951  0.33768  1.0000
  H   H22       1.0  0.96855  0.65517  0.34068  1.0000
  N   N20       1.0  0.22808  0.04272  0.33847  1.0000
  C   C50       1.0  0.27121  0.54788  0.34048  1.0000
  C   C51       1.0  0.29769  0.51136  0.33726  1.0000
  H   H23       1.0  0.28370  0.57806  0.34450  1.0000
  C   C52       1.0  0.34258  0.51415  0.33890  1.0000
  H   H24       1.0  0.35693  0.54353  0.34188  1.0000
  C   C53       1.0  0.50986  0.07019  0.33632  1.0000
  C   C54       1.0  0.54153  0.10256  0.33605  1.0000
  H   H25       1.0  0.97916  0.08064  0.33650  1.0000
  C   C55       1.0  0.96488  0.41535  0.33413  1.0000
  C   C56       1.0  0.99636  0.44789  0.33403  1.0000
  H   H26       1.0  0.52707  0.43757  0.33295  1.0000
  N   N21       1.0  0.97297  0.37266  0.33332  1.0000
  N   N22       1.0  0.53374  0.14526  0.33601  1.0000
  C   C57       1.0  0.00806  0.30403  0.33194  1.0000
  N   N23       1.0  0.53942  0.23422  0.33054  1.0000
  C   C58       1.0  0.54485  0.27736  0.32835  1.0000
  C   C59       1.0  0.58400  0.29127  0.32205  1.0000
  N   N24       1.0  0.61848  0.30368  0.31610  1.0000
  C   C60       1.0  0.00928  0.34914  0.33088  1.0000
  H   H27       1.0  0.03815  0.36442  0.32809  1.0000
  C   C61       1.0  0.70807  0.50403  0.33325  1.0000
  N   N25       1.0  0.77787  0.97266  0.33184  1.0000
  C   C62       1.0  0.73474  0.96723  0.32969  1.0000
  C   C63       1.0  0.72083  0.92808  0.32336  1.0000
  N   N26       1.0  0.70842  0.89360  0.31738  1.0000
  C   C64       1.0  0.66296  0.50280  0.33211  1.0000
  H   H28       1.0  0.64767  0.47394  0.32927  1.0000
  C   C65       1.0  0.51945  0.02542  0.33558  1.0000
  C   C66       1.0  0.58481  0.09050  0.33535  1.0000
  C   C67       1.0  0.59675  0.04721  0.33471  1.0000
  C   C68       1.0  0.56420  0.01573  0.33475  1.0000
  H   H29       1.0  0.57453  0.48502  0.33467  1.0000
  H   H30       1.0  0.60807  0.11368  0.33518  1.0000
  C   C69       1.0  0.98668  0.49264  0.33558  1.0000
  C   C70       1.0  0.94190  0.50223  0.33699  1.0000
  C   C71       1.0  0.90953  0.47056  0.33661  1.0000
  C   C72       1.0  0.92159  0.42729  0.33536  1.0000
  H   H31       1.0  0.93146  0.03293  0.33805  1.0000
  H   H32       1.0  0.89841  0.40403  0.33520  1.0000
  N   N27       1.0  0.86683  0.47835  0.33689  1.0000
  N   N28       1.0  0.63943  0.03913  0.33421  1.0000
  N   N29       1.0  0.96937  0.28402  0.33715  1.0000
  C   C73       1.0  0.46420  0.24089  0.33914  1.0000
  C   C74       1.0  0.50072  0.21440  0.33595  1.0000
  H   H33       1.0  0.43402  0.22840  0.34315  1.0000
  C   C75       1.0  0.49793  0.16951  0.33768  1.0000
  H   H34       1.0  0.46855  0.15517  0.34068  1.0000
  N   N30       1.0  0.72808  0.54272  0.33847  1.0000
  C   C76       1.0  0.77121  0.04788  0.34048  1.0000
  C   C77       1.0  0.79769  0.01136  0.33726  1.0000
  H   H35       1.0  0.78370  0.07806  0.34450  1.0000
  C   C78       1.0  0.84258  0.01415  0.33890  1.0000
  H   H36       1.0  0.85693  0.04354  0.34188  1.0000
  C   C79       1.0  0.50986  0.57019  0.33632  1.0000
  C   C80       1.0  0.54153  0.60256  0.33605  1.0000
  H   H37       1.0  0.97916  0.58064  0.33650  1.0000
  C   C81       1.0  0.96488  0.91535  0.33413  1.0000
  C   C82       1.0  0.99636  0.94789  0.33403  1.0000
  H   H38       1.0  0.52707  0.93757  0.33295  1.0000
  N   N31       1.0  0.97297  0.87266  0.33332  1.0000
  N   N32       1.0  0.53374  0.64526  0.33601  1.0000
  C   C83       1.0  0.00806  0.80403  0.33194  1.0000
  N   N33       1.0  0.53942  0.73422  0.33054  1.0000
  C   C84       1.0  0.54485  0.77735  0.32835  1.0000
  C   C85       1.0  0.58400  0.79127  0.32205  1.0000
  N   N34       1.0  0.61848  0.80368  0.31610  1.0000
  C   C86       1.0  0.00928  0.84914  0.33088  1.0000
  H   H39       1.0  0.03815  0.86442  0.32809  1.0000
  C   C87       1.0  0.70807  0.00403  0.33325  1.0000
  N   N35       1.0  0.77787  0.47266  0.33184  1.0000
  C   C88       1.0  0.73474  0.46724  0.32969  1.0000
  C   C89       1.0  0.72083  0.42808  0.32336  1.0000
  N   N36       1.0  0.70842  0.39360  0.31738  1.0000
  C   C90       1.0  0.66296  0.00280  0.33211  1.0000
  H   H40       1.0  0.64767  0.97394  0.32927  1.0000
  C   C91       1.0  0.51945  0.52542  0.33558  1.0000
  C   C92       1.0  0.58481  0.59050  0.33535  1.0000
  C   C93       1.0  0.59675  0.54721  0.33471  1.0000
  C   C94       1.0  0.56420  0.51573  0.33475  1.0000
  H   H41       1.0  0.57453  0.98502  0.33467  1.0000
  H   H42       1.0  0.60807  0.61368  0.33518  1.0000
  C   C95       1.0  0.98668  0.99264  0.33558  1.0000
  C   C96       1.0  0.94190  0.00223  0.33699  1.0000
  C   C97       1.0  0.90953  0.97056  0.33661  1.0000
  C   C98       1.0  0.92159  0.92729  0.33536  1.0000
  H   H43       1.0  0.93146  0.53293  0.33805  1.0000
  H   H44       1.0  0.89841  0.90403  0.33520  1.0000
  N   N37       1.0  0.86683  0.97835  0.33689  1.0000
  N   N38       1.0  0.63943  0.53913  0.33421  1.0000
  N   N39       1.0  0.96937  0.78402  0.33715  1.0000
  C   C99       1.0  0.46420  0.74089  0.33914  1.0000
  C   C100      1.0  0.50072  0.71440  0.33595  1.0000
  H   H45       1.0  0.43402  0.72840  0.34315  1.0000
  C   C101      1.0  0.49793  0.66951  0.33768  1.0000
  H   H46       1.0  0.46855  0.65517  0.34068  1.0000
  N   N40       1.0  0.72808  0.04272  0.33847  1.0000
  C   C102      1.0  0.77121  0.54788  0.34048  1.0000
  C   C103      1.0  0.79769  0.51136  0.33726  1.0000
  H   H47       1.0  0.78370  0.57806  0.34450  1.0000
  C   C104      1.0  0.84258  0.51415  0.33890  1.0000
  H   H48       1.0  0.85693  0.54353  0.34188  1.0000
