data_image0
_chemical_formula_structural       C16H20C16H20C16H20C3NOCHNHC3NOCHNHC3NOCHNHC3NOCHNHC3NOCHNHC3NOCHNHC3NC3NC5NC5NC36H26C4H4C3NC3NC5NC5NC36H26C4H4C3NC3NC5NC5NC36H26C4H4C3NOCHNHC3NOCHNHC3NOCHNHC3NOCHNHC3NOCHNHC3NOCHNH
_chemical_formula_sum              "C264 H174 N36 O12"
_cell_length_a       66.3761
_cell_length_b       66.376
_cell_length_c       15.0029
_cell_angle_alpha    89.958
_cell_angle_beta     90.042
_cell_angle_gamma    120

_space_group_name_H-M_alt    "P 1"
_space_group_IT_number       1

loop_
  _space_group_symop_operation_xyz
  'x, y, z'

loop_
  _atom_site_type_symbol
  _atom_site_label
  _atom_site_symmetry_multiplicity
  _atom_site_fract_x
  _atom_site_fract_y
  _atom_site_fract_z
  _atom_site_occupancy
  C   C1        1.0  0.10014  0.53717  0.24745  1.0000
  C   C2        1.0  0.11836  0.53216  0.24387  1.0000
  C   C3        1.0  0.18674  0.53690  0.25146  1.0000
  C   C4        1.0  0.16691  0.53936  0.25317  1.0000
  C   C5        1.0  0.09855  0.65706  0.26778  1.0000
  C   C6        1.0  0.11420  0.68113  0.27336  1.0000
  C   C7        1.0  0.13450  0.73296  0.30090  1.0000
  C   C8        1.0  0.15025  0.75703  0.30601  1.0000
  C   C9        1.0  0.94164  0.58885  0.24439  1.0000
  C   C10       1.0  0.95970  0.58362  0.24775  1.0000
  C   C11       1.0  0.89344  0.58252  0.25485  1.0000
  C   C12       1.0  0.87391  0.58550  0.25319  1.0000
  C   C13       1.0  0.96121  0.46391  0.26721  1.0000
  C   C14       1.0  0.94535  0.43988  0.27265  1.0000
  C   C15       1.0  0.90815  0.36393  0.30446  1.0000
  C   C16       1.0  0.92426  0.38791  0.29956  1.0000
  H   H1        1.0  0.90906  0.35309  0.25820  1.0000
  H   H2        1.0  0.93667  0.39369  0.25070  1.0000
  H   H3        1.0  0.93768  0.43110  0.21513  1.0000
  H   H4        1.0  0.96496  0.47189  0.20620  1.0000
  H   H5        1.0  0.96736  0.58286  0.18959  1.0000
  H   H6        1.0  0.93681  0.59199  0.18348  1.0000
  H   H7        1.0  0.09476  0.64914  0.20666  1.0000
  H   H8        1.0  0.12171  0.69001  0.21582  1.0000
  H   H9        1.0  0.14904  0.76777  0.26006  1.0000
  H   H10       1.0  0.12204  0.72703  0.25219  1.0000
  H   H11       1.0  0.16592  0.55045  0.20828  1.0000
  H   H12       1.0  0.19934  0.54604  0.20495  1.0000
  H   H13       1.0  0.12313  0.52901  0.18293  1.0000
  H   H14       1.0  0.09233  0.53775  0.18941  1.0000
  H   H15       1.0  0.89408  0.57120  0.21024  1.0000
  H   H16       1.0  0.86116  0.57645  0.20708  1.0000
  H   H17       1.0  0.18036  0.80120  0.33012  1.0000
  H   H18       1.0  0.22332  0.53228  0.26444  1.0000
  H   H19       1.0  0.83797  0.59120  0.26604  1.0000
  H   H20       1.0  0.87740  0.31992  0.32821  1.0000
  C   C17       1.0  0.55529  0.65782  0.24813  1.0000
  C   C18       1.0  0.56028  0.68104  0.24456  1.0000
  C   C19       1.0  0.55558  0.74470  0.25215  1.0000
  C   C20       1.0  0.55309  0.72239  0.25395  1.0000
  C   C21       1.0  0.43539  0.53629  0.26840  1.0000
  C   C22       1.0  0.41132  0.52787  0.27398  1.0000
  C   C23       1.0  0.35949  0.49633  0.30162  1.0000
  C   C24       1.0  0.33543  0.48801  0.30673  1.0000
  C   C25       1.0  0.50361  0.44764  0.24478  1.0000
  C   C26       1.0  0.50885  0.47094  0.24817  1.0000
  C   C27       1.0  0.50991  0.40575  0.25517  1.0000
  C   C28       1.0  0.50695  0.38325  0.25357  1.0000
  C   C29       1.0  0.62855  0.59214  0.26783  1.0000
  C   C30       1.0  0.65258  0.60031  0.27328  1.0000
  C   C31       1.0  0.72853  0.63901  0.30508  1.0000
  C   C32       1.0  0.70455  0.63115  0.30020  1.0000
  H   H21       1.0  0.73937  0.65076  0.25882  1.0000
  H   H22       1.0  0.69878  0.63781  0.25133  1.0000
  H   H23       1.0  0.66136  0.60143  0.21577  1.0000
  H   H24       1.0  0.62058  0.58793  0.20681  1.0000
  H   H25       1.0  0.50962  0.47938  0.19003  1.0000
  H   H26       1.0  0.50048  0.43971  0.18385  1.0000
  H   H27       1.0  0.44330  0.54041  0.20727  1.0000
  H   H28       1.0  0.40244  0.52650  0.21643  1.0000
  H   H29       1.0  0.32468  0.47604  0.26086  1.0000
  H   H30       1.0  0.36543  0.48979  0.25301  1.0000
  H   H31       1.0  0.54201  0.71034  0.20899  1.0000
  H   H32       1.0  0.54645  0.74818  0.20567  1.0000
  H   H33       1.0  0.56344  0.68899  0.18362  1.0000
  H   H34       1.0  0.55470  0.64944  0.19008  1.0000
  H   H35       1.0  0.52126  0.41773  0.21064  1.0000
  H   H36       1.0  0.51601  0.37957  0.20752  1.0000
  H   H37       1.0  0.29125  0.47393  0.33082  1.0000
  H   H38       1.0  0.56024  0.78592  0.26513  1.0000
  H   H39       1.0  0.50129  0.34163  0.26652  1.0000
  H   H40       1.0  0.77253  0.65222  0.32877  1.0000
  C   C33       1.0  0.43468  0.99235  0.24847  1.0000
  C   C34       1.0  0.41146  0.97413  0.24479  1.0000
  C   C35       1.0  0.34782  0.90575  0.25208  1.0000
  C   C36       1.0  0.37011  0.92558  0.25392  1.0000
  C   C37       1.0  0.55619  0.99395  0.26893  1.0000
  C   C38       1.0  0.56460  0.97829  0.27446  1.0000
  C   C39       1.0  0.59614  0.95799  0.30212  1.0000
  C   C40       1.0  0.60448  0.94226  0.30721  1.0000
  C   C41       1.0  0.64482  0.15081  0.24533  1.0000
  C   C42       1.0  0.62152  0.13275  0.24878  1.0000
  C   C43       1.0  0.68671  0.19900  0.25569  1.0000
  C   C44       1.0  0.70921  0.21853  0.25397  1.0000
  C   C45       1.0  0.50036  0.13127  0.26850  1.0000
  C   C46       1.0  0.49218  0.14712  0.27398  1.0000
  C   C47       1.0  0.45346  0.18434  0.30579  1.0000
  C   C48       1.0  0.46131  0.16821  0.30091  1.0000
  H   H41       1.0  0.44171  0.18345  0.25950  1.0000
  H   H42       1.0  0.45467  0.15582  0.25201  1.0000
  H   H43       1.0  0.49106  0.15481  0.21647  1.0000
  H   H44       1.0  0.50457  0.12753  0.20748  1.0000
  H   H45       1.0  0.61306  0.12510  0.19065  1.0000
  H   H46       1.0  0.65273  0.15564  0.18437  1.0000
  H   H47       1.0  0.55209  0.99779  0.20781  1.0000
  H   H48       1.0  0.56599  0.97082  0.21688  1.0000
  H   H49       1.0  0.61647  0.94352  0.26141  1.0000
  H   H50       1.0  0.60270  0.97050  0.25360  1.0000
  H   H51       1.0  0.38219  0.92658  0.20908  1.0000
  H   H52       1.0  0.34436  0.89316  0.20559  1.0000
  H   H53       1.0  0.40353  0.96938  0.18381  1.0000
  H   H54       1.0  0.44308  0.00017  0.19047  1.0000
  H   H55       1.0  0.67471  0.19839  0.21126  1.0000
  H   H56       1.0  0.71288  0.23130  0.20797  1.0000
  H   H57       1.0  0.61859  0.91218  0.33130  1.0000
  H   H58       1.0  0.30663  0.86916  0.26490  1.0000
  H   H59       1.0  0.75086  0.25446  0.26668  1.0000
  H   H60       1.0  0.44025  0.21512  0.32946  1.0000
  C   C49       1.0  0.22810  0.49667  0.31878  1.0000
  C   C50       1.0  0.24400  0.50288  0.24723  1.0000
  C   C51       1.0  0.26601  0.50549  0.26008  1.0000
  N   N1        1.0  0.27743  0.51283  0.18329  1.0000
  O   O1        1.0  0.24134  0.50867  0.16274  1.0000
  C   C52       1.0  0.26247  0.51425  0.12687  1.0000
  H   H61       1.0  0.26682  0.51982  0.06260  1.0000
  N   N2        1.0  0.20731  0.49758  0.31287  1.0000
  H   H62       1.0  0.19872  0.48965  0.25501  1.0000
  C   C53       1.0  0.59590  0.82627  0.31930  1.0000
  C   C54       1.0  0.58975  0.83601  0.24765  1.0000
  C   C55       1.0  0.58716  0.85543  0.26038  1.0000
  N   N3        1.0  0.57974  0.85945  0.18363  1.0000
  O   O2        1.0  0.58390  0.82753  0.16326  1.0000
  C   C56       1.0  0.57843  0.84315  0.12716  1.0000
  H   H63       1.0  0.57250  0.84171  0.06334  1.0000
  N   N4        1.0  0.59496  0.80456  0.31349  1.0000
  H   H64       1.0  0.60287  0.80389  0.25563  1.0000
  C   C57       1.0  0.26624  0.86436  0.31887  1.0000
  C   C58       1.0  0.25656  0.84847  0.24725  1.0000
  C   C59       1.0  0.23716  0.82646  0.25990  1.0000
  N   N5        1.0  0.23308  0.81510  0.18299  1.0000
  O   O3        1.0  0.26499  0.85120  0.16275  1.0000
  C   C60       1.0  0.24937  0.83013  0.12656  1.0000
  H   H65       1.0  0.25074  0.82573  0.06256  1.0000
  N   N6        1.0  0.28793  0.88516  0.31317  1.0000
  H   H66       1.0  0.28860  0.89376  0.25531  1.0000
  C   C61       1.0  0.83431  0.62753  0.31866  1.0000
  C   C62       1.0  0.81848  0.62164  0.24696  1.0000
  C   C63       1.0  0.79670  0.61959  0.25948  1.0000
  N   N7        1.0  0.78526  0.61240  0.18264  1.0000
  O   O4        1.0  0.82097  0.61563  0.16266  1.0000
  C   C64       1.0  0.80000  0.61056  0.12648  1.0000
  H   H67       1.0  0.79554  0.60490  0.06238  1.0000
  N   N8        1.0  0.85479  0.62604  0.31319  1.0000
  H   H68       1.0  0.86345  0.63372  0.25517  1.0000
  C   C65       1.0  0.46497  0.30161  0.31923  1.0000
  C   C66       1.0  0.47089  0.29170  0.24758  1.0000
  C   C67       1.0  0.47293  0.27195  0.26013  1.0000
  N   N9        1.0  0.48011  0.26772  0.18331  1.0000
  O   O5        1.0  0.47690  0.30021  0.16326  1.0000
  C   C68       1.0  0.48200  0.28434  0.12717  1.0000
  H   H69       1.0  0.48757  0.28550  0.06294  1.0000
  N   N10       1.0  0.46644  0.32357  0.31363  1.0000
  H   H70       1.0  0.45876  0.32454  0.25558  1.0000
  C   C69       1.0  0.79089  0.25807  0.31876  1.0000
  C   C70       1.0  0.80078  0.27386  0.24691  1.0000
  C   C71       1.0  0.82055  0.29563  0.25916  1.0000
  N   N11       1.0  0.82468  0.30706  0.18233  1.0000
  O   O6        1.0  0.79217  0.27136  0.16275  1.0000
  C   C72       1.0  0.80808  0.29227  0.12627  1.0000
  H   H71       1.0  0.80665  0.29681  0.06250  1.0000
  N   N12       1.0  0.76890  0.23761  0.31346  1.0000
  H   H72       1.0  0.76786  0.22894  0.25541  1.0000
  C   C73       1.0  0.02087  0.49219  0.33582  1.0000
  C   C74       1.0  0.04485  0.50501  0.33349  1.0000
  C   C75       1.0  0.05153  0.52859  0.33388  1.0000
  N   N13       1.0  0.03142  0.52919  0.33603  1.0000
  C   C76       1.0  0.01235  0.50765  0.33748  1.0000
  C   C77       1.0  0.98839  0.50102  0.33991  1.0000
  C   C78       1.0  0.97972  0.51670  0.33868  1.0000
  N   N14       1.0  0.99210  0.54017  0.33628  1.0000
  C   C79       1.0  0.97820  0.54962  0.33540  1.0000
  C   C80       1.0  0.95538  0.53097  0.33689  1.0000
  C   C81       1.0  0.95632  0.51067  0.33955  1.0000
  C   C82       1.0  0.98503  0.57359  0.33338  1.0000
  C   C83       1.0  0.00842  0.59226  0.33409  1.0000
  N   N15       1.0  0.02853  0.59167  0.33624  1.0000
  C   C84       1.0  0.04760  0.61320  0.33777  1.0000
  C   C85       1.0  0.03908  0.62866  0.33612  1.0000
  C   C86       1.0  0.01511  0.61585  0.33372  1.0000
  C   C87       1.0  0.07156  0.61983  0.34024  1.0000
  C   C88       1.0  0.08023  0.60416  0.33888  1.0000
  N   N16       1.0  0.06785  0.58068  0.33642  1.0000
  C   C89       1.0  0.08175  0.57123  0.33536  1.0000
  C   C90       1.0  0.10457  0.58989  0.33676  1.0000
  C   C91       1.0  0.10363  0.61019  0.33962  1.0000
  C   C92       1.0  0.07492  0.54727  0.33323  1.0000
  C   C93       1.0  0.09293  0.54159  0.32998  1.0000
  C   C94       1.0  0.12990  0.53150  0.32239  1.0000
  C   C95       1.0  0.12225  0.53564  0.40494  1.0000
  C   C96       1.0  0.10401  0.54061  0.40884  1.0000
  C   C97       1.0  0.14933  0.52783  0.31817  1.0000
  C   C98       1.0  0.15222  0.51347  0.38072  1.0000
  C   C99       1.0  0.17214  0.51110  0.37939  1.0000
  C   C100      1.0  0.18972  0.52288  0.31495  1.0000
  C   C101      1.0  0.08809  0.64401  0.34553  1.0000
  C   C102      1.0  0.11978  0.69282  0.35650  1.0000
  C   C103      1.0  0.10920  0.67949  0.43405  1.0000
  C   C104      1.0  0.09356  0.65543  0.42878  1.0000
  C   C105      1.0  0.13559  0.71728  0.36214  1.0000
  C   C106      1.0  0.16765  0.76623  0.37255  1.0000
  C   C107      1.0  0.16857  0.75068  0.43460  1.0000
  C   C108      1.0  0.15287  0.72663  0.42935  1.0000
  C   C109      1.0  0.96703  0.57928  0.33026  1.0000
  C   C110      1.0  0.95622  0.58056  0.40931  1.0000
  C   C111      1.0  0.93813  0.58577  0.40563  1.0000
  C   C112      1.0  0.93040  0.58987  0.32313  1.0000
  C   C113      1.0  0.91122  0.59395  0.31922  1.0000
  C   C114      1.0  0.87144  0.59993  0.31619  1.0000
  C   C115      1.0  0.88921  0.61156  0.38008  1.0000
  C   C116      1.0  0.90884  0.60869  0.38131  1.0000
  C   C117      1.0  0.97185  0.47684  0.34500  1.0000
  C   C118      1.0  0.96637  0.46534  0.42813  1.0000
  C   C119      1.0  0.93973  0.42812  0.35569  1.0000
  C   C120      1.0  0.95053  0.44132  0.43325  1.0000
  C   C121      1.0  0.92361  0.40372  0.36123  1.0000
  C   C122      1.0  0.90637  0.39459  0.42860  1.0000
  C   C123      1.0  0.89031  0.37062  0.43365  1.0000
  C   C124      1.0  0.89081  0.35495  0.37117  1.0000
  H   H73       1.0  0.87803  0.36471  0.48297  1.0000
  H   H74       1.0  0.90499  0.40538  0.47375  1.0000
  H   H75       1.0  0.94732  0.43347  0.49441  1.0000
  H   H76       1.0  0.97405  0.47433  0.48533  1.0000
  H   H77       1.0  0.01145  0.47442  0.33602  1.0000
  H   H78       1.0  0.05544  0.49794  0.33250  1.0000
  H   H79       1.0  0.03077  0.54330  0.33748  1.0000
  H   H80       1.0  0.02918  0.57755  0.33772  1.0000
  H   H81       1.0  0.94211  0.49432  0.34118  1.0000
  H   H82       1.0  0.94037  0.53172  0.33674  1.0000
  H   H83       1.0  0.96120  0.57736  0.46984  1.0000
  H   H84       1.0  0.93016  0.58579  0.46395  1.0000
  H   H85       1.0  0.00451  0.62292  0.33271  1.0000
  H   H86       1.0  0.04850  0.64643  0.33636  1.0000
  H   H87       1.0  0.11958  0.58915  0.33648  1.0000
  H   H88       1.0  0.11783  0.62655  0.34119  1.0000
  H   H89       1.0  0.08598  0.64636  0.48596  1.0000
  H   H90       1.0  0.11238  0.68728  0.49529  1.0000
  H   H91       1.0  0.15456  0.71594  0.47420  1.0000
  H   H92       1.0  0.18090  0.75674  0.48381  1.0000
  H   H93       1.0  0.09915  0.54392  0.46937  1.0000
  H   H94       1.0  0.13045  0.53590  0.46309  1.0000
  H   H95       1.0  0.17392  0.50100  0.42678  1.0000
  H   H96       1.0  0.13988  0.50468  0.42847  1.0000
  H   H97       1.0  0.92135  0.61743  0.42857  1.0000
  H   H98       1.0  0.88781  0.62196  0.42709  1.0000
  C   C125      1.0  0.18500  0.79152  0.37694  1.0000
  C   C126      1.0  0.21153  0.52177  0.31802  1.0000
  C   C127      1.0  0.87308  0.32977  0.37534  1.0000
  C   C128      1.0  0.84997  0.60164  0.31923  1.0000
  H   H99       1.0  0.18480  0.79793  0.44390  1.0000
  H   H100      1.0  0.22017  0.52957  0.38118  1.0000
  H   H101      1.0  0.84133  0.59412  0.38268  1.0000
  H   H102      1.0  0.87319  0.32321  0.44214  1.0000
  C   C129      1.0  0.60026  0.62350  0.33665  1.0000
  C   C130      1.0  0.58745  0.63466  0.33430  1.0000
  C   C131      1.0  0.56386  0.61775  0.33460  1.0000
  N   N17       1.0  0.56327  0.59705  0.33666  1.0000
  C   C132      1.0  0.58481  0.59951  0.33816  1.0000
  C   C133      1.0  0.59144  0.58219  0.34050  1.0000
  C   C134      1.0  0.57576  0.55784  0.33920  1.0000
  N   N18       1.0  0.55228  0.54674  0.33682  1.0000
  C   C135      1.0  0.54283  0.52339  0.33589  1.0000
  C   C136      1.0  0.56149  0.51923  0.33733  1.0000
  C   C137      1.0  0.58179  0.54047  0.34003  1.0000
  C   C138      1.0  0.51887  0.50626  0.33388  1.0000
  C   C139      1.0  0.50020  0.51097  0.33460  1.0000
  N   N19       1.0  0.50079  0.53168  0.33679  1.0000
  C   C140      1.0  0.47926  0.52921  0.33840  1.0000
  C   C141      1.0  0.46380  0.50523  0.33678  1.0000
  C   C142      1.0  0.47661  0.49407  0.33426  1.0000
  C   C143      1.0  0.47262  0.54653  0.34088  1.0000
  C   C144      1.0  0.48830  0.57088  0.33950  1.0000
  N   N20       1.0  0.51177  0.58198  0.33707  1.0000
  C   C145      1.0  0.52122  0.60533  0.33599  1.0000
  C   C146      1.0  0.50256  0.60949  0.33736  1.0000
  C   C147      1.0  0.48226  0.58824  0.34016  1.0000
  C   C148      1.0  0.54518  0.62246  0.33388  1.0000
  C   C149      1.0  0.55086  0.64615  0.33065  1.0000
  C   C150      1.0  0.56095  0.69321  0.32308  1.0000
  C   C151      1.0  0.55679  0.68139  0.40562  1.0000
  C   C152      1.0  0.55184  0.65818  0.40952  1.0000
  C   C153      1.0  0.56463  0.71632  0.31888  1.0000
  C   C154      1.0  0.57900  0.73355  0.38142  1.0000
  C   C155      1.0  0.58138  0.75584  0.38008  1.0000
  C   C156      1.0  0.56962  0.76168  0.31565  1.0000
  C   C157      1.0  0.44844  0.53888  0.34617  1.0000
  C   C158      1.0  0.39964  0.52178  0.35713  1.0000
  C   C159      1.0  0.41297  0.52453  0.43470  1.0000
  C   C160      1.0  0.43703  0.53295  0.42943  1.0000
  C   C161      1.0  0.37517  0.51311  0.36277  1.0000
  C   C162      1.0  0.32623  0.49622  0.37317  1.0000
  C   C163      1.0  0.34178  0.51270  0.43512  1.0000
  C   C164      1.0  0.36583  0.52106  0.42983  1.0000
  C   C165      1.0  0.51318  0.48257  0.33070  1.0000
  C   C166      1.0  0.51189  0.47044  0.40974  1.0000
  C   C167      1.0  0.50669  0.44715  0.40601  1.0000
  C   C168      1.0  0.50258  0.43534  0.32349  1.0000
  C   C169      1.0  0.49848  0.41209  0.31954  1.0000
  C   C170      1.0  0.49252  0.36633  0.31657  1.0000
  C   C171      1.0  0.48087  0.37245  0.38041  1.0000
  C   C172      1.0  0.48374  0.39494  0.38164  1.0000
  C   C173      1.0  0.61562  0.58982  0.34561  1.0000
  C   C174      1.0  0.62711  0.59582  0.42874  1.0000
  C   C175      1.0  0.66434  0.60642  0.35633  1.0000
  C   C176      1.0  0.65113  0.60398  0.43388  1.0000
  C   C177      1.0  0.68873  0.61468  0.36188  1.0000
  C   C178      1.0  0.69786  0.60656  0.42926  1.0000
  C   C179      1.0  0.72183  0.61444  0.43430  1.0000
  C   C180      1.0  0.73750  0.63062  0.37180  1.0000
  H   H103      1.0  0.72773  0.60805  0.48363  1.0000
  H   H104      1.0  0.68707  0.59436  0.47442  1.0000
  H   H105      1.0  0.65898  0.60860  0.49504  1.0000
  H   H106      1.0  0.61812  0.59448  0.48594  1.0000
  H   H107      1.0  0.61803  0.63184  0.33697  1.0000
  H   H108      1.0  0.59451  0.65232  0.33350  1.0000
  H   H109      1.0  0.54915  0.58228  0.33778  1.0000
  H   H110      1.0  0.51491  0.54644  0.33824  1.0000
  H   H111      1.0  0.59814  0.54261  0.34167  1.0000
  H   H112      1.0  0.56074  0.50347  0.33720  1.0000
  H   H113      1.0  0.51508  0.47858  0.47028  1.0000
  H   H114      1.0  0.50663  0.43912  0.46433  1.0000
  H   H115      1.0  0.46954  0.47641  0.33336  1.0000
  H   H116      1.0  0.44603  0.49688  0.33710  1.0000
  H   H117      1.0  0.50330  0.62524  0.33701  1.0000
  H   H118      1.0  0.46591  0.58610  0.34175  1.0000
  H   H119      1.0  0.44611  0.53444  0.48662  1.0000
  H   H120      1.0  0.40518  0.51991  0.49595  1.0000
  H   H121      1.0  0.37652  0.53343  0.47466  1.0000
  H   H122      1.0  0.33571  0.51897  0.48425  1.0000
  H   H123      1.0  0.54854  0.64999  0.47004  1.0000
  H   H124      1.0  0.55656  0.68932  0.46379  1.0000
  H   H125      1.0  0.59148  0.76770  0.42750  1.0000
  H   H126      1.0  0.58778  0.72998  0.42917  1.0000
  H   H127      1.0  0.47501  0.39870  0.42890  1.0000
  H   H128      1.0  0.47049  0.36064  0.42745  1.0000
  C   C181      1.0  0.30093  0.48825  0.37756  1.0000
  C   C182      1.0  0.57075  0.78461  0.31870  1.0000
  C   C183      1.0  0.76268  0.63805  0.37593  1.0000
  C   C184      1.0  0.49083  0.34315  0.31967  1.0000
  H   H129      1.0  0.29453  0.48165  0.44454  1.0000
  H   H130      1.0  0.56296  0.78545  0.38186  1.0000
  H   H131      1.0  0.49835  0.34203  0.38314  1.0000
  H   H132      1.0  0.76925  0.64470  0.44272  1.0000
  C   C185      1.0  0.46899  0.07160  0.33717  1.0000
  C   C186      1.0  0.45783  0.04763  0.33483  1.0000
  C   C187      1.0  0.47473  0.04094  0.33514  1.0000
  N   N21       1.0  0.49543  0.06105  0.33728  1.0000
  C   C188      1.0  0.49297  0.08012  0.33876  1.0000
  C   C189      1.0  0.51030  0.10408  0.34112  1.0000
  C   C190      1.0  0.53465  0.11275  0.33987  1.0000
  N   N22       1.0  0.54574  0.10036  0.33748  1.0000
  C   C191      1.0  0.56909  0.11426  0.33656  1.0000
  C   C192      1.0  0.57326  0.13708  0.33795  1.0000
  C   C193      1.0  0.55203  0.13614  0.34074  1.0000
  C   C194      1.0  0.58622  0.10742  0.33457  1.0000
  C   C195      1.0  0.58150  0.08403  0.33535  1.0000
  N   N23       1.0  0.56080  0.06392  0.33754  1.0000
  C   C196      1.0  0.56326  0.04485  0.33909  1.0000
  C   C197      1.0  0.58724  0.05337  0.33750  1.0000
  C   C198      1.0  0.59840  0.07734  0.33506  1.0000
  C   C199      1.0  0.54593  0.02089  0.34151  1.0000
  C   C200      1.0  0.52159  0.01222  0.34010  1.0000
  N   N24       1.0  0.51049  0.02461  0.33768  1.0000
  C   C201      1.0  0.48714  0.01071  0.33653  1.0000
  C   C202      1.0  0.48298  0.98789  0.33785  1.0000
  C   C203      1.0  0.50422  0.98883  0.34071  1.0000
  C   C204      1.0  0.47002  0.01755  0.33440  1.0000
  C   C205      1.0  0.44633  0.99954  0.33105  1.0000
  C   C206      1.0  0.39926  0.96258  0.32325  1.0000
  C   C207      1.0  0.41106  0.97020  0.40584  1.0000
  C   C208      1.0  0.43427  0.98845  0.40986  1.0000
  C   C209      1.0  0.37615  0.94316  0.31891  1.0000
  C   C210      1.0  0.35891  0.94026  0.38137  1.0000
  C   C211      1.0  0.33662  0.92033  0.37994  1.0000
  C   C212      1.0  0.33081  0.90276  0.31549  1.0000
  C   C213      1.0  0.55358  0.00436  0.34675  1.0000
  C   C214      1.0  0.57067  0.97265  0.35761  1.0000
  C   C215      1.0  0.56789  0.98316  0.43522  1.0000
  C   C216      1.0  0.55949  0.99882  0.43000  1.0000
  C   C217      1.0  0.57933  0.95684  0.36319  1.0000
  C   C218      1.0  0.59624  0.92480  0.37354  1.0000
  C   C219      1.0  0.57972  0.92380  0.43540  1.0000
  C   C220      1.0  0.57136  0.93950  0.43017  1.0000
  C   C221      1.0  0.60991  0.12541  0.33135  1.0000
  C   C222      1.0  0.62206  0.13622  0.41036  1.0000
  C   C223      1.0  0.64535  0.15431  0.40658  1.0000
  C   C224      1.0  0.65713  0.16204  0.32401  1.0000
  C   C225      1.0  0.68039  0.18121  0.32001  1.0000
  C   C226      1.0  0.72615  0.22099  0.31683  1.0000
  C   C227      1.0  0.72005  0.20320  0.38065  1.0000
  C   C228      1.0  0.69756  0.18358  0.38197  1.0000
  C   C229      1.0  0.50267  0.12062  0.34627  1.0000
  C   C230      1.0  0.49667  0.12608  0.42940  1.0000
  C   C231      1.0  0.48606  0.15273  0.35703  1.0000
  C   C232      1.0  0.48849  0.14192  0.43456  1.0000
  C   C233      1.0  0.47779  0.16885  0.36260  1.0000
  C   C234      1.0  0.48590  0.18607  0.43002  1.0000
  C   C235      1.0  0.47802  0.20215  0.43504  1.0000
  C   C236      1.0  0.46185  0.20168  0.37252  1.0000
  H   H133      1.0  0.48441  0.21443  0.48439  1.0000
  H   H134      1.0  0.49809  0.18745  0.47518  1.0000
  H   H135      1.0  0.48386  0.14512  0.49573  1.0000
  H   H136      1.0  0.49799  0.11839  0.48659  1.0000
  H   H137      1.0  0.46065  0.08103  0.33740  1.0000
  H   H138      1.0  0.44016  0.03703  0.33385  1.0000
  H   H139      1.0  0.51020  0.06169  0.33852  1.0000
  H   H140      1.0  0.54603  0.06328  0.33894  1.0000
  H   H141      1.0  0.54989  0.15035  0.34232  1.0000
  H   H142      1.0  0.58903  0.15208  0.33788  1.0000
  H   H143      1.0  0.61393  0.13125  0.47092  1.0000
  H   H144      1.0  0.65339  0.16227  0.46488  1.0000
  H   H145      1.0  0.61606  0.08794  0.33399  1.0000
  H   H146      1.0  0.59559  0.04394  0.33772  1.0000
  H   H147      1.0  0.46722  0.97288  0.33743  1.0000
  H   H148      1.0  0.50636  0.97462  0.34222  1.0000
  H   H149      1.0  0.55798  0.00636  0.48722  1.0000
  H   H150      1.0  0.57248  0.97995  0.49646  1.0000
  H   H151      1.0  0.55896  0.93776  0.47489  1.0000
  H   H152      1.0  0.57344  0.91143  0.48445  1.0000
  H   H153      1.0  0.44244  0.99330  0.47042  1.0000
  H   H154      1.0  0.40311  0.96201  0.46397  1.0000
  H   H155      1.0  0.32474  0.91855  0.42729  1.0000
  H   H156      1.0  0.36246  0.95259  0.42914  1.0000
  H   H157      1.0  0.69381  0.17106  0.42919  1.0000
  H   H158      1.0  0.73188  0.20460  0.42758  1.0000
  C   C237      1.0  0.60423  0.90748  0.37794  1.0000
  C   C238      1.0  0.30791  0.88095  0.31847  1.0000
  C   C239      1.0  0.45443  0.21943  0.37663  1.0000
  C   C240      1.0  0.74935  0.24245  0.31979  1.0000
  H   H159      1.0  0.61081  0.90765  0.44496  1.0000
  H   H160      1.0  0.30707  0.87231  0.38163  1.0000
  H   H161      1.0  0.75052  0.25107  0.38330  1.0000
  H   H162      1.0  0.44778  0.21934  0.44340  1.0000
  C   C241      1.0  0.27340  0.50179  0.34356  1.0000
  C   C242      1.0  0.25720  0.49476  0.41438  1.0000
  C   C243      1.0  0.23525  0.49236  0.40171  1.0000
  N   N25       1.0  0.22477  0.48746  0.48074  1.0000
  O   O7        1.0  0.26079  0.49148  0.50120  1.0000
  C   C244      1.0  0.23989  0.48650  0.53764  1.0000
  H   H163      1.0  0.23658  0.48365  0.60430  1.0000
  N   N26       1.0  0.29681  0.50767  0.35467  1.0000
  H   H164      1.0  0.30413  0.52063  0.40159  1.0000
  C   C245      1.0  0.59078  0.86645  0.34389  1.0000
  C   C246      1.0  0.59782  0.85728  0.41478  1.0000
  C   C247      1.0  0.60013  0.83768  0.40227  1.0000
  N   N27       1.0  0.60501  0.83207  0.48133  1.0000
  O   O8        1.0  0.60097  0.86406  0.50168  1.0000
  C   C248      1.0  0.60596  0.84814  0.53819  1.0000
  H   H165      1.0  0.60877  0.84764  0.60487  1.0000
  N   N28       1.0  0.58486  0.88395  0.35490  1.0000
  H   H166      1.0  0.57186  0.87826  0.40171  1.0000
  C   C249      1.0  0.22609  0.81903  0.34334  1.0000
  C   C250      1.0  0.23522  0.83521  0.41425  1.0000
  C   C251      1.0  0.25481  0.85713  0.40181  1.0000
  N   N29       1.0  0.26035  0.86763  0.48082  1.0000
  O   O9        1.0  0.22834  0.83158  0.50103  1.0000
  C   C252      1.0  0.24433  0.85244  0.53768  1.0000
  H   H167      1.0  0.24456  0.85587  0.60412  1.0000
  N   N30       1.0  0.20854  0.79563  0.35424  1.0000
  H   H168      1.0  0.21415  0.78827  0.40118  1.0000
  C   C253      1.0  0.78950  0.62359  0.34274  1.0000
  C   C254      1.0  0.80565  0.63035  0.41369  1.0000
  C   C255      1.0  0.82734  0.63212  0.40142  1.0000
  N   N31       1.0  0.83778  0.63680  0.48054  1.0000
  O   O10       1.0  0.80215  0.63376  0.50043  1.0000
  C   C256      1.0  0.82282  0.63809  0.53726  1.0000
  H   H169      1.0  0.82626  0.64120  0.60375  1.0000
  N   N32       1.0  0.76624  0.61826  0.35359  1.0000
  H   H170      1.0  0.75868  0.60536  0.40072  1.0000
  C   C257      1.0  0.46891  0.26072  0.34340  1.0000
  C   C258      1.0  0.46217  0.27012  0.41433  1.0000
  C   C259      1.0  0.46034  0.29000  0.40195  1.0000
  N   N33       1.0  0.45561  0.29571  0.48104  1.0000
  O   O11       1.0  0.45870  0.26315  0.50102  1.0000
  C   C260      1.0  0.45419  0.27938  0.53768  1.0000
  H   H171      1.0  0.45135  0.27985  0.60434  1.0000
  N   N34       1.0  0.47422  0.24279  0.35429  1.0000
  H   H172      1.0  0.48712  0.24810  0.40142  1.0000
  C   C261      1.0  0.83179  0.30290  0.34238  1.0000
  C   C262      1.0  0.82246  0.28678  0.41347  1.0000
  C   C263      1.0  0.80251  0.26511  0.40144  1.0000
  N   N35       1.0  0.79684  0.25469  0.48062  1.0000
  O   O12       1.0  0.82941  0.29035  0.50018  1.0000
  C   C264      1.0  0.81320  0.26962  0.53708  1.0000
  H   H173      1.0  0.81275  0.26635  0.60377  1.0000
  N   N36       1.0  0.84970  0.32617  0.35299  1.0000
  H   H174      1.0  0.84438  0.33375  0.40003  1.0000
