data_image0
_chemical_formula_structural       N2C3HC6HO2CHC3HC6HO2CHC8HC7HCH4N2C2NCHNHCHC2NCHNHCHN2C3HC6HO2CHC3HC6HO2CHC8HC7HCH4N2C2NCHNHCHC2NCHNHCHN2C3HC6HO2CHC3HC6HO2CHC8HC7HCH4N2C2NCHNHCHC2NCHNHCHN2C3HC6HO2CHC3HC6HO2CHC8HC7HCH4N2C2NCHNHCHC2NCHNHCH
_chemical_formula_sum              "N32 C176 H72 O16"
_cell_length_a       39.3538
_cell_length_b       39.3538
_cell_length_c       15.0747
_cell_angle_alpha    90
_cell_angle_beta     90
_cell_angle_gamma    90

_space_group_name_H-M_alt    "P 1"
_space_group_IT_number       1

loop_
  _space_group_symop_operation_xyz
  'x, y, z'

loop_
  _atom_site_type_symbol
  _atom_site_label
  _atom_site_symmetry_multiplicity
  _atom_site_fract_x
  _atom_site_fract_y
  _atom_site_fract_z
  _atom_site_occupancy
  N   N1        1.0  0.02648  0.09998  0.29080  1.0000
  N   N2        1.0  0.47597  0.38651  0.34436  1.0000
  C   C1        1.0  0.49807  0.26012  0.31644  1.0000
  C   C2        1.0  0.97044  0.28034  0.28689  1.0000
  C   C3        1.0  0.97059  0.31521  0.30911  1.0000
  H   H1        1.0  0.95128  0.33035  0.28676  1.0000
  C   C4        1.0  0.49933  0.22530  0.29536  1.0000
  C   C5        1.0  0.50211  0.15503  0.26282  1.0000
  C   C6        1.0  0.47479  0.17463  0.22952  1.0000
  C   C7        1.0  0.47286  0.21000  0.24536  1.0000
  C   C8        1.0  0.94546  0.23028  0.21547  1.0000
  C   C9        1.0  0.94429  0.26521  0.23595  1.0000
  H   H2        1.0  0.95545  0.16279  0.19622  1.0000
  O   O1        1.0  0.91983  0.21663  0.16714  1.0000
  O   O2        1.0  0.91765  0.28384  0.20631  1.0000
  C   C10       1.0  0.00158  0.11940  0.25577  1.0000
  H   H3        1.0  0.98151  0.10790  0.22500  1.0000
  C   C11       1.0  0.23494  0.49690  0.31578  1.0000
  C   C12       1.0  0.21471  0.02456  0.28648  1.0000
  C   C13       1.0  0.17984  0.02438  0.30883  1.0000
  H   H4        1.0  0.16469  0.04371  0.28666  1.0000
  C   C14       1.0  0.26976  0.49567  0.29462  1.0000
  C   C15       1.0  0.34003  0.49298  0.26211  1.0000
  C   C16       1.0  0.32041  0.52032  0.22897  1.0000
  C   C17       1.0  0.28504  0.52221  0.24480  1.0000
  C   C18       1.0  0.26474  0.04962  0.21513  1.0000
  C   C19       1.0  0.22980  0.05075  0.23567  1.0000
  H   H5        1.0  0.33224  0.03970  0.19585  1.0000
  O   O3        1.0  0.27836  0.07531  0.16697  1.0000
  O   O4        1.0  0.21117  0.07743  0.20626  1.0000
  C   C20       1.0  0.37566  0.99357  0.25521  1.0000
  H   H6        1.0  0.38716  0.01368  0.22464  1.0000
  C   C21       1.0  0.01444  0.00634  0.32328  1.0000
  C   C22       1.0  0.04945  0.49717  0.32856  1.0000
  C   C23       1.0  0.07469  0.02297  0.33248  1.0000
  C   C24       1.0  0.06496  0.05705  0.32054  1.0000
  C   C25       1.0  0.03081  0.06655  0.30927  1.0000
  C   C26       1.0  0.00518  0.04129  0.31679  1.0000
  C   C27       1.0  0.05775  0.46239  0.32209  1.0000
  C   C28       1.0  0.47048  0.04969  0.32501  1.0000
  H   H7        1.0  0.08339  0.07551  0.31861  1.0000
  C   C29       1.0  0.48870  0.48062  0.32318  1.0000
  C   C30       1.0  0.49784  0.44560  0.32848  1.0000
  C   C31       1.0  0.47202  0.42038  0.33226  1.0000
  C   C32       1.0  0.43796  0.43013  0.32006  1.0000
  C   C33       1.0  0.42849  0.46430  0.30881  1.0000
  C   C34       1.0  0.45376  0.98990  0.31656  1.0000
  C   C35       1.0  0.03262  0.43727  0.32226  1.0000
  H   H8        1.0  0.41949  0.41172  0.31802  1.0000
  C   C36       1.0  0.44537  0.02459  0.32486  1.0000
  H   H9        1.0  0.04039  0.41298  0.31149  1.0000
  H   H10       1.0  0.08203  0.45459  0.31158  1.0000
  H   H11       1.0  0.42101  0.03227  0.33545  1.0000
  H   H12       1.0  0.46282  0.07405  0.33571  1.0000
  N   N3        1.0  0.10856  0.01898  0.34443  1.0000
  N   N4        1.0  0.39508  0.46865  0.29018  1.0000
  C   C37       1.0  0.49755  0.32973  0.35851  1.0000
  C   C38       1.0  0.52381  0.30787  0.38716  1.0000
  N   N5        1.0  0.52325  0.27453  0.36525  1.0000
  C   C39       1.0  0.52817  0.17230  0.30899  1.0000
  H   H13       1.0  0.54408  0.31682  0.42252  1.0000
  N   N6        1.0  0.52573  0.20606  0.32418  1.0000
  H   H14       1.0  0.54848  0.15970  0.33535  1.0000
  C   C40       1.0  0.50002  0.36489  0.37397  1.0000
  H   H15       1.0  0.52070  0.37429  0.40669  1.0000
  C   C41       1.0  0.16535  0.49738  0.35813  1.0000
  C   C42       1.0  0.18723  0.47109  0.38651  1.0000
  N   N7        1.0  0.22055  0.47167  0.36447  1.0000
  C   C43       1.0  0.32277  0.46685  0.30805  1.0000
  H   H16       1.0  0.17830  0.45079  0.42179  1.0000
  N   N8        1.0  0.28900  0.46925  0.32325  1.0000
  H   H17       1.0  0.33538  0.44652  0.33429  1.0000
  C   C44       1.0  0.13020  0.49490  0.37376  1.0000
  H   H18       1.0  0.12084  0.47420  0.40645  1.0000
  N   N9        1.0  0.02648  0.59998  0.29080  1.0000
  N   N10       1.0  0.47597  0.88651  0.34436  1.0000
  C   C45       1.0  0.49807  0.76012  0.31644  1.0000
  C   C46       1.0  0.97044  0.78034  0.28689  1.0000
  C   C47       1.0  0.97059  0.81521  0.30911  1.0000
  H   H19       1.0  0.95128  0.83034  0.28676  1.0000
  C   C48       1.0  0.49933  0.72530  0.29536  1.0000
  C   C49       1.0  0.50211  0.65503  0.26282  1.0000
  C   C50       1.0  0.47479  0.67463  0.22952  1.0000
  C   C51       1.0  0.47286  0.71000  0.24536  1.0000
  C   C52       1.0  0.94546  0.73028  0.21547  1.0000
  C   C53       1.0  0.94429  0.76521  0.23595  1.0000
  H   H20       1.0  0.95545  0.66279  0.19622  1.0000
  O   O5        1.0  0.91983  0.71663  0.16714  1.0000
  O   O6        1.0  0.91765  0.78383  0.20631  1.0000
  C   C54       1.0  0.00158  0.61940  0.25577  1.0000
  H   H21       1.0  0.98151  0.60790  0.22500  1.0000
  C   C55       1.0  0.23494  0.99690  0.31578  1.0000
  C   C56       1.0  0.21471  0.52456  0.28648  1.0000
  C   C57       1.0  0.17984  0.52438  0.30883  1.0000
  H   H22       1.0  0.16469  0.54371  0.28666  1.0000
  C   C58       1.0  0.26976  0.99567  0.29462  1.0000
  C   C59       1.0  0.34003  0.99298  0.26211  1.0000
  C   C60       1.0  0.32041  0.02032  0.22897  1.0000
  C   C61       1.0  0.28504  0.02221  0.24480  1.0000
  C   C62       1.0  0.26474  0.54962  0.21513  1.0000
  C   C63       1.0  0.22980  0.55075  0.23567  1.0000
  H   H23       1.0  0.33224  0.53970  0.19585  1.0000
  O   O7        1.0  0.27836  0.57531  0.16697  1.0000
  O   O8        1.0  0.21117  0.57743  0.20626  1.0000
  C   C64       1.0  0.37566  0.49357  0.25521  1.0000
  H   H24       1.0  0.38716  0.51367  0.22464  1.0000
  C   C65       1.0  0.01444  0.50634  0.32328  1.0000
  C   C66       1.0  0.04945  0.99717  0.32856  1.0000
  C   C67       1.0  0.07469  0.52297  0.33248  1.0000
  C   C68       1.0  0.06496  0.55705  0.32054  1.0000
  C   C69       1.0  0.03081  0.56655  0.30927  1.0000
  C   C70       1.0  0.00518  0.54129  0.31679  1.0000
  C   C71       1.0  0.05775  0.96239  0.32209  1.0000
  C   C72       1.0  0.47048  0.54969  0.32501  1.0000
  H   H25       1.0  0.08339  0.57551  0.31861  1.0000
  C   C73       1.0  0.48870  0.98062  0.32318  1.0000
  C   C74       1.0  0.49784  0.94560  0.32848  1.0000
  C   C75       1.0  0.47202  0.92038  0.33226  1.0000
  C   C76       1.0  0.43796  0.93013  0.32006  1.0000
  C   C77       1.0  0.42849  0.96429  0.30881  1.0000
  C   C78       1.0  0.45376  0.48990  0.31656  1.0000
  C   C79       1.0  0.03262  0.93727  0.32226  1.0000
  H   H26       1.0  0.41949  0.91172  0.31802  1.0000
  C   C80       1.0  0.44537  0.52459  0.32486  1.0000
  H   H27       1.0  0.04039  0.91299  0.31149  1.0000
  H   H28       1.0  0.08203  0.95459  0.31158  1.0000
  H   H29       1.0  0.42101  0.53227  0.33545  1.0000
  H   H30       1.0  0.46282  0.57405  0.33571  1.0000
  N   N11       1.0  0.10856  0.51898  0.34443  1.0000
  N   N12       1.0  0.39508  0.96865  0.29018  1.0000
  C   C81       1.0  0.49755  0.82973  0.35851  1.0000
  C   C82       1.0  0.52381  0.80788  0.38716  1.0000
  N   N13       1.0  0.52325  0.77453  0.36525  1.0000
  C   C83       1.0  0.52817  0.67230  0.30899  1.0000
  H   H31       1.0  0.54408  0.81682  0.42252  1.0000
  N   N14       1.0  0.52573  0.70607  0.32418  1.0000
  H   H32       1.0  0.54848  0.65970  0.33535  1.0000
  C   C84       1.0  0.50002  0.86489  0.37397  1.0000
  H   H33       1.0  0.52070  0.87428  0.40669  1.0000
  C   C85       1.0  0.16535  0.99737  0.35813  1.0000
  C   C86       1.0  0.18723  0.97109  0.38651  1.0000
  N   N15       1.0  0.22055  0.97167  0.36447  1.0000
  C   C87       1.0  0.32277  0.96685  0.30805  1.0000
  H   H34       1.0  0.17830  0.95079  0.42179  1.0000
  N   N16       1.0  0.28900  0.96925  0.32325  1.0000
  H   H35       1.0  0.33538  0.94653  0.33429  1.0000
  C   C88       1.0  0.13020  0.99490  0.37376  1.0000
  H   H36       1.0  0.12084  0.97420  0.40645  1.0000
  N   N17       1.0  0.52647  0.09998  0.29080  1.0000
  N   N18       1.0  0.97597  0.38651  0.34436  1.0000
  C   C89       1.0  0.99807  0.26012  0.31644  1.0000
  C   C90       1.0  0.47043  0.28034  0.28689  1.0000
  C   C91       1.0  0.47059  0.31521  0.30911  1.0000
  H   H37       1.0  0.45128  0.33035  0.28676  1.0000
  C   C92       1.0  0.99934  0.22530  0.29536  1.0000
  C   C93       1.0  0.00211  0.15503  0.26282  1.0000
  C   C94       1.0  0.97479  0.17463  0.22952  1.0000
  C   C95       1.0  0.97285  0.21000  0.24536  1.0000
  C   C96       1.0  0.44546  0.23028  0.21547  1.0000
  C   C97       1.0  0.44430  0.26521  0.23595  1.0000
  H   H38       1.0  0.45545  0.16279  0.19622  1.0000
  O   O9        1.0  0.41984  0.21663  0.16714  1.0000
  O   O10       1.0  0.41765  0.28384  0.20631  1.0000
  C   C98       1.0  0.50157  0.11940  0.25577  1.0000
  H   H39       1.0  0.48151  0.10790  0.22500  1.0000
  C   C99       1.0  0.73494  0.49690  0.31578  1.0000
  C   C100      1.0  0.71470  0.02456  0.28648  1.0000
  C   C101      1.0  0.67984  0.02438  0.30883  1.0000
  H   H40       1.0  0.66469  0.04371  0.28666  1.0000
  C   C102      1.0  0.76975  0.49567  0.29462  1.0000
  C   C103      1.0  0.84003  0.49298  0.26211  1.0000
  C   C104      1.0  0.82041  0.52032  0.22897  1.0000
  C   C105      1.0  0.78504  0.52221  0.24480  1.0000
  C   C106      1.0  0.76474  0.04962  0.21513  1.0000
  C   C107      1.0  0.72980  0.05075  0.23567  1.0000
  H   H41       1.0  0.83224  0.03970  0.19585  1.0000
  O   O11       1.0  0.77836  0.07531  0.16697  1.0000
  O   O12       1.0  0.71117  0.07743  0.20626  1.0000
  C   C108      1.0  0.87567  0.99357  0.25521  1.0000
  H   H42       1.0  0.88715  0.01368  0.22464  1.0000
  C   C109      1.0  0.51444  0.00634  0.32328  1.0000
  C   C110      1.0  0.54945  0.49717  0.32856  1.0000
  C   C111      1.0  0.57469  0.02297  0.33248  1.0000
  C   C112      1.0  0.56496  0.05705  0.32054  1.0000
  C   C113      1.0  0.53081  0.06655  0.30927  1.0000
  C   C114      1.0  0.50518  0.04129  0.31679  1.0000
  C   C115      1.0  0.55774  0.46239  0.32209  1.0000
  C   C116      1.0  0.97048  0.04969  0.32501  1.0000
  H   H43       1.0  0.58339  0.07551  0.31861  1.0000
  C   C117      1.0  0.98870  0.48062  0.32318  1.0000
  C   C118      1.0  0.99784  0.44560  0.32848  1.0000
  C   C119      1.0  0.97202  0.42038  0.33226  1.0000
  C   C120      1.0  0.93795  0.43013  0.32006  1.0000
  C   C121      1.0  0.92849  0.46430  0.30881  1.0000
  C   C122      1.0  0.95376  0.98990  0.31656  1.0000
  C   C123      1.0  0.53262  0.43727  0.32226  1.0000
  H   H44       1.0  0.91948  0.41172  0.31802  1.0000
  C   C124      1.0  0.94537  0.02459  0.32486  1.0000
  H   H45       1.0  0.54039  0.41298  0.31149  1.0000
  H   H46       1.0  0.58203  0.45459  0.31158  1.0000
  H   H47       1.0  0.92101  0.03227  0.33545  1.0000
  H   H48       1.0  0.96281  0.07405  0.33571  1.0000
  N   N19       1.0  0.60856  0.01898  0.34443  1.0000
  N   N20       1.0  0.89508  0.46865  0.29018  1.0000
  C   C125      1.0  0.99755  0.32973  0.35851  1.0000
  C   C126      1.0  0.02381  0.30787  0.38716  1.0000
  N   N21       1.0  0.02325  0.27453  0.36525  1.0000
  C   C127      1.0  0.02817  0.17230  0.30899  1.0000
  H   H49       1.0  0.04408  0.31682  0.42252  1.0000
  N   N22       1.0  0.02573  0.20606  0.32418  1.0000
  H   H50       1.0  0.04848  0.15970  0.33535  1.0000
  C   C128      1.0  0.00002  0.36489  0.37397  1.0000
  H   H51       1.0  0.02070  0.37429  0.40669  1.0000
  C   C129      1.0  0.66535  0.49738  0.35813  1.0000
  C   C130      1.0  0.68722  0.47109  0.38651  1.0000
  N   N23       1.0  0.72055  0.47167  0.36447  1.0000
  C   C131      1.0  0.82276  0.46685  0.30805  1.0000
  H   H52       1.0  0.67830  0.45079  0.42179  1.0000
  N   N24       1.0  0.78900  0.46925  0.32325  1.0000
  H   H53       1.0  0.83538  0.44652  0.33429  1.0000
  C   C132      1.0  0.63020  0.49490  0.37376  1.0000
  H   H54       1.0  0.62084  0.47420  0.40645  1.0000
  N   N25       1.0  0.52647  0.59998  0.29080  1.0000
  N   N26       1.0  0.97597  0.88651  0.34436  1.0000
  C   C133      1.0  0.99807  0.76012  0.31644  1.0000
  C   C134      1.0  0.47043  0.78034  0.28689  1.0000
  C   C135      1.0  0.47059  0.81521  0.30911  1.0000
  H   H55       1.0  0.45128  0.83034  0.28676  1.0000
  C   C136      1.0  0.99934  0.72530  0.29536  1.0000
  C   C137      1.0  0.00211  0.65503  0.26282  1.0000
  C   C138      1.0  0.97479  0.67463  0.22952  1.0000
  C   C139      1.0  0.97285  0.71000  0.24536  1.0000
  C   C140      1.0  0.44546  0.73028  0.21547  1.0000
  C   C141      1.0  0.44430  0.76521  0.23595  1.0000
  H   H56       1.0  0.45545  0.66279  0.19622  1.0000
  O   O13       1.0  0.41984  0.71663  0.16714  1.0000
  O   O14       1.0  0.41765  0.78383  0.20631  1.0000
  C   C142      1.0  0.50157  0.61940  0.25577  1.0000
  H   H57       1.0  0.48151  0.60790  0.22500  1.0000
  C   C143      1.0  0.73494  0.99690  0.31578  1.0000
  C   C144      1.0  0.71470  0.52456  0.28648  1.0000
  C   C145      1.0  0.67984  0.52438  0.30883  1.0000
  H   H58       1.0  0.66469  0.54371  0.28666  1.0000
  C   C146      1.0  0.76975  0.99567  0.29462  1.0000
  C   C147      1.0  0.84003  0.99298  0.26211  1.0000
  C   C148      1.0  0.82041  0.02032  0.22897  1.0000
  C   C149      1.0  0.78504  0.02221  0.24480  1.0000
  C   C150      1.0  0.76474  0.54962  0.21513  1.0000
  C   C151      1.0  0.72980  0.55075  0.23567  1.0000
  H   H59       1.0  0.83224  0.53970  0.19585  1.0000
  O   O15       1.0  0.77836  0.57531  0.16697  1.0000
  O   O16       1.0  0.71117  0.57743  0.20626  1.0000
  C   C152      1.0  0.87567  0.49357  0.25521  1.0000
  H   H60       1.0  0.88715  0.51367  0.22464  1.0000
  C   C153      1.0  0.51444  0.50634  0.32328  1.0000
  C   C154      1.0  0.54945  0.99717  0.32856  1.0000
  C   C155      1.0  0.57469  0.52297  0.33248  1.0000
  C   C156      1.0  0.56496  0.55705  0.32054  1.0000
  C   C157      1.0  0.53081  0.56655  0.30927  1.0000
  C   C158      1.0  0.50518  0.54129  0.31679  1.0000
  C   C159      1.0  0.55774  0.96239  0.32209  1.0000
  C   C160      1.0  0.97048  0.54969  0.32501  1.0000
  H   H61       1.0  0.58339  0.57551  0.31861  1.0000
  C   C161      1.0  0.98870  0.98062  0.32318  1.0000
  C   C162      1.0  0.99784  0.94560  0.32848  1.0000
  C   C163      1.0  0.97202  0.92038  0.33226  1.0000
  C   C164      1.0  0.93795  0.93013  0.32006  1.0000
  C   C165      1.0  0.92849  0.96429  0.30881  1.0000
  C   C166      1.0  0.95376  0.48990  0.31656  1.0000
  C   C167      1.0  0.53262  0.93727  0.32226  1.0000
  H   H62       1.0  0.91948  0.91172  0.31802  1.0000
  C   C168      1.0  0.94537  0.52459  0.32486  1.0000
  H   H63       1.0  0.54039  0.91299  0.31149  1.0000
  H   H64       1.0  0.58203  0.95459  0.31158  1.0000
  H   H65       1.0  0.92101  0.53227  0.33545  1.0000
  H   H66       1.0  0.96281  0.57405  0.33571  1.0000
  N   N27       1.0  0.60856  0.51898  0.34443  1.0000
  N   N28       1.0  0.89508  0.96865  0.29018  1.0000
  C   C169      1.0  0.99755  0.82973  0.35851  1.0000
  C   C170      1.0  0.02381  0.80788  0.38716  1.0000
  N   N29       1.0  0.02325  0.77453  0.36525  1.0000
  C   C171      1.0  0.02817  0.67230  0.30899  1.0000
  H   H67       1.0  0.04408  0.81682  0.42252  1.0000
  N   N30       1.0  0.02573  0.70607  0.32418  1.0000
  H   H68       1.0  0.04848  0.65970  0.33535  1.0000
  C   C172      1.0  0.00002  0.86489  0.37397  1.0000
  H   H69       1.0  0.02070  0.87428  0.40669  1.0000
  C   C173      1.0  0.66535  0.99737  0.35813  1.0000
  C   C174      1.0  0.68722  0.97109  0.38651  1.0000
  N   N31       1.0  0.72055  0.97167  0.36447  1.0000
  C   C175      1.0  0.82276  0.96685  0.30805  1.0000
  H   H70       1.0  0.67830  0.95079  0.42179  1.0000
  N   N32       1.0  0.78900  0.96925  0.32325  1.0000
  H   H71       1.0  0.83538  0.94653  0.33429  1.0000
  C   C176      1.0  0.63020  0.99490  0.37376  1.0000
  H   H72       1.0  0.62084  0.97420  0.40645  1.0000
