data_image0
_chemical_formula_structural       C5H3CH3C5H3CH3C5H3CH3C2H2C2H2C2H2C5H3CH3C5H3CH3C5H3CH3C5H3CH3C5H3CH3C5H3CH3C2H2C2H2C2H2C2H2C2H2C2H2C5H3CH3C5H3CH3C5H3CH3C5H3CH3C5H3CH3C5H3CH3CNCNCNCNCNCNCNCNCNCNCNCNCNCNCNCNCNCNCNCNCNCNCNCNCNCNCNCNCNCNCNCNCNCNCNCNCNCNCNCNCNCNCNCNCNCNCNCNC2H2C2H2C2H2C5H3CH3C5H3CH3C5H3CH3C2H2C2H2C2H2C2H2C2H2C2H2C5H3CH3C5H3CH3C5H3CH3C5H3CH3C5H3CH3C5H3CH3C2H2C2H2C2H2C2H2C2H2C2H2
_chemical_formula_sum              "C240 H192 N48"
_cell_length_a       41.636
_cell_length_b       41.636
_cell_length_c       14.8141
_cell_angle_alpha    90
_cell_angle_beta     90
_cell_angle_gamma    120

_space_group_name_H-M_alt    "P 1"
_space_group_IT_number       1

loop_
  _space_group_symop_operation_xyz
  'x, y, z'

loop_
  _atom_site_type_symbol
  _atom_site_label
  _atom_site_symmetry_multiplicity
  _atom_site_fract_x
  _atom_site_fract_y
  _atom_site_fract_z
  _atom_site_occupancy
  C   C1        1.0  0.00883  0.14444  0.33333  1.0000
  C   C2        1.0  0.00794  0.07378  0.33403  1.0000
  C   C3        1.0  0.98942  0.08231  0.26431  1.0000
  C   C4        1.0  0.99003  0.11740  0.26371  1.0000
  C   C5        1.0  0.97078  0.05549  0.18818  1.0000
  H   H1        1.0  0.97288  0.03053  0.19096  1.0000
  H   H2        1.0  0.98325  0.06853  0.12396  1.0000
  H   H3        1.0  0.94133  0.04674  0.18698  1.0000
  C   C6        1.0  0.97252  0.12628  0.18622  1.0000
  H   H4        1.0  0.97693  0.15429  0.18619  1.0000
  H   H5        1.0  0.94265  0.10718  0.18622  1.0000
  H   H6        1.0  0.98410  0.12375  0.12239  1.0000
  C   C7        1.0  0.87125  0.86753  0.33332  1.0000
  C   C8        1.0  0.94191  0.93730  0.33403  1.0000
  C   C9        1.0  0.93339  0.91025  0.26430  1.0000
  C   C10       1.0  0.89829  0.87576  0.26369  1.0000
  C   C11       1.0  0.96021  0.91843  0.18817  1.0000
  H   H7        1.0  0.98517  0.94549  0.19096  1.0000
  H   H8        1.0  0.94717  0.91787  0.12395  1.0000
  H   H9        1.0  0.96895  0.89773  0.18696  1.0000
  C   C12       1.0  0.88941  0.84939  0.18618  1.0000
  H   H10       1.0  0.86140  0.82579  0.18613  1.0000
  H   H11       1.0  0.90850  0.83861  0.18617  1.0000
  H   H12       1.0  0.89194  0.86350  0.12236  1.0000
  C   C13       1.0  0.14817  0.00686  0.33332  1.0000
  C   C14       1.0  0.07840  0.00775  0.33405  1.0000
  C   C15       1.0  0.10543  0.02626  0.26430  1.0000
  C   C16       1.0  0.13992  0.02565  0.26369  1.0000
  C   C17       1.0  0.09725  0.04489  0.18816  1.0000
  H   H13       1.0  0.07019  0.04280  0.19096  1.0000
  H   H14       1.0  0.09780  0.03240  0.12395  1.0000
  H   H15       1.0  0.11795  0.07433  0.18692  1.0000
  C   C18       1.0  0.16629  0.04314  0.18615  1.0000
  H   H16       1.0  0.18989  0.03872  0.18611  1.0000
  H   H17       1.0  0.17707  0.07300  0.18613  1.0000
  H   H18       1.0  0.15217  0.03155  0.12235  1.0000
  C   C19       1.0  0.10069  0.29642  0.30341  1.0000
  C   C20       1.0  0.12888  0.33391  0.30385  1.0000
  H   H19       1.0  0.14593  0.34393  0.24873  1.0000
  H   H20       1.0  0.09806  0.28076  0.24762  1.0000
  C   C21       1.0  0.71926  0.80740  0.30339  1.0000
  C   C22       1.0  0.68176  0.79809  0.30382  1.0000
  H   H21       1.0  0.67173  0.80511  0.24869  1.0000
  H   H22       1.0  0.73491  0.82042  0.24757  1.0000
  C   C23       1.0  0.20826  0.91497  0.30341  1.0000
  C   C24       1.0  0.21756  0.88678  0.30387  1.0000
  H   H23       1.0  0.21052  0.86972  0.24876  1.0000
  H   H24       1.0  0.19522  0.91759  0.24762  1.0000
  C   C25       1.0  0.28516  0.07105  0.32807  1.0000
  C   C26       1.0  0.36175  0.12885  0.32721  1.0000
  C   C27       1.0  0.34663  0.10422  0.25182  1.0000
  C   C28       1.0  0.30842  0.07504  0.25275  1.0000
  C   C29       1.0  0.37014  0.10915  0.17043  1.0000
  H   H25       1.0  0.39776  0.13344  0.17267  1.0000
  H   H26       1.0  0.35711  0.11253  0.11010  1.0000
  H   H27       1.0  0.37339  0.08490  0.16213  1.0000
  C   C30       1.0  0.29293  0.04912  0.17377  1.0000
  H   H28       1.0  0.26355  0.02866  0.17923  1.0000
  H   H29       1.0  0.30782  0.03395  0.16564  1.0000
  H   H30       1.0  0.29580  0.06471  0.11225  1.0000
  C   C31       1.0  0.79843  0.73053  0.32813  1.0000
  C   C32       1.0  0.77966  0.65394  0.32721  1.0000
  C   C33       1.0  0.77012  0.66906  0.25186  1.0000
  C   C34       1.0  0.77916  0.70728  0.25281  1.0000
  C   C35       1.0  0.75153  0.64555  0.17049  1.0000
  H   H31       1.0  0.74819  0.61793  0.17271  1.0000
  H   H32       1.0  0.76794  0.65858  0.11014  1.0000
  H   H33       1.0  0.72403  0.64230  0.16222  1.0000
  C   C36       1.0  0.76871  0.72276  0.17385  1.0000
  H   H34       1.0  0.77765  0.75215  0.17931  1.0000
  H   H35       1.0  0.73866  0.70788  0.16573  1.0000
  H   H36       1.0  0.78143  0.71989  0.11231  1.0000
  C   C37       1.0  0.94462  0.21722  0.32823  1.0000
  C   C38       1.0  0.88682  0.23601  0.32723  1.0000
  C   C39       1.0  0.91146  0.24552  0.25188  1.0000
  C   C40       1.0  0.94064  0.23648  0.25287  1.0000
  C   C41       1.0  0.90656  0.26410  0.17046  1.0000
  H   H37       1.0  0.88228  0.26745  0.17267  1.0000
  H   H38       1.0  0.90317  0.24768  0.11015  1.0000
  H   H39       1.0  0.93081  0.29160  0.16216  1.0000
  C   C42       1.0  0.96657  0.24690  0.17391  1.0000
  H   H40       1.0  0.98701  0.23795  0.17941  1.0000
  H   H41       1.0  0.98176  0.27695  0.16576  1.0000
  H   H42       1.0  0.95098  0.23417  0.11239  1.0000
  C   C43       1.0  0.26099  0.45984  0.34472  1.0000
  C   C44       1.0  0.34026  0.49789  0.33428  1.0000
  C   C45       1.0  0.31842  0.47362  0.26276  1.0000
  C   C46       1.0  0.27857  0.45425  0.26829  1.0000
  C   C47       1.0  0.33678  0.46962  0.17968  1.0000
  H   H43       1.0  0.36667  0.48804  0.17730  1.0000
  H   H44       1.0  0.32602  0.47616  0.11957  1.0000
  H   H45       1.0  0.33143  0.44123  0.17458  1.0000
  C   C48       1.0  0.25591  0.42959  0.19208  1.0000
  H   H46       1.0  0.22609  0.41582  0.20217  1.0000
  H   H47       1.0  0.26285  0.40783  0.18164  1.0000
  H   H48       1.0  0.26161  0.44576  0.13025  1.0000
  C   C49       1.0  0.55582  0.80427  0.34468  1.0000
  C   C50       1.0  0.51780  0.84551  0.33430  1.0000
  C   C51       1.0  0.54210  0.84797  0.26279  1.0000
  C   C52       1.0  0.56145  0.82747  0.26830  1.0000
  C   C53       1.0  0.54612  0.87035  0.17975  1.0000
  H   H49       1.0  0.52771  0.88183  0.17737  1.0000
  H   H50       1.0  0.53959  0.85308  0.11961  1.0000
  H   H51       1.0  0.57452  0.89338  0.17470  1.0000
  C   C54       1.0  0.58613  0.82949  0.19211  1.0000
  H   H52       1.0  0.59988  0.81342  0.20217  1.0000
  H   H53       1.0  0.60790  0.85819  0.18175  1.0000
  H   H54       1.0  0.56997  0.81905  0.13025  1.0000
  C   C55       1.0  0.21142  0.75469  0.34468  1.0000
  C   C56       1.0  0.17019  0.67543  0.33424  1.0000
  C   C57       1.0  0.16773  0.69727  0.26276  1.0000
  C   C58       1.0  0.18823  0.73712  0.26829  1.0000
  C   C59       1.0  0.14535  0.67892  0.17971  1.0000
  H   H55       1.0  0.13387  0.64902  0.17731  1.0000
  H   H56       1.0  0.16263  0.68967  0.11957  1.0000
  H   H57       1.0  0.12232  0.68428  0.17465  1.0000
  C   C60       1.0  0.18622  0.75979  0.19211  1.0000
  H   H58       1.0  0.20228  0.78961  0.20218  1.0000
  H   H59       1.0  0.15751  0.75286  0.18174  1.0000
  H   H60       1.0  0.19666  0.75408  0.13025  1.0000
  C   C61       1.0  0.49027  0.27992  0.29090  1.0000
  C   C62       1.0  0.50847  0.31868  0.29387  1.0000
  H   H61       1.0  0.52692  0.33328  0.24348  1.0000
  H   H62       1.0  0.49681  0.26788  0.23912  1.0000
  C   C63       1.0  0.80219  0.52542  0.29094  1.0000
  C   C64       1.0  0.82275  0.50722  0.29389  1.0000
  H   H63       1.0  0.81888  0.48876  0.24351  1.0000
  H   H64       1.0  0.78361  0.51888  0.23917  1.0000
  C   C65       1.0  0.73577  0.21350  0.29099  1.0000
  C   C66       1.0  0.69701  0.19292  0.29396  1.0000
  H   H65       1.0  0.68241  0.19678  0.24358  1.0000
  H   H66       1.0  0.74780  0.23207  0.23921  1.0000
  C   C67       1.0  0.13620  0.51999  0.29786  1.0000
  C   C68       1.0  0.14330  0.49053  0.30285  1.0000
  H   H67       1.0  0.13356  0.47121  0.25213  1.0000
  H   H68       1.0  0.12087  0.52047  0.24431  1.0000
  C   C69       1.0  0.49569  0.61935  0.29784  1.0000
  C   C70       1.0  0.52515  0.65590  0.30283  1.0000
  H   H69       1.0  0.54447  0.66550  0.25211  1.0000
  H   H70       1.0  0.49520  0.60354  0.24427  1.0000
  C   C71       1.0  0.39633  0.87945  0.29786  1.0000
  C   C72       1.0  0.35979  0.87237  0.30285  1.0000
  H   H71       1.0  0.35019  0.88209  0.25212  1.0000
  H   H72       1.0  0.41214  0.89476  0.24429  1.0000
  C   C73       1.0  0.55254  0.14780  0.33508  1.0000
  C   C74       1.0  0.49174  0.16125  0.32713  1.0000
  C   C75       1.0  0.51911  0.17505  0.25715  1.0000
  C   C76       1.0  0.54967  0.16816  0.26091  1.0000
  C   C77       1.0  0.51526  0.19527  0.17778  1.0000
  H   H73       1.0  0.48997  0.19691  0.17773  1.0000
  H   H74       1.0  0.51476  0.18124  0.11520  1.0000
  H   H75       1.0  0.53861  0.22359  0.17603  1.0000
  C   C78       1.0  0.57738  0.18117  0.18546  1.0000
  H   H76       1.0  0.59961  0.17490  0.19430  1.0000
  H   H77       1.0  0.59050  0.21121  0.17842  1.0000
  H   H78       1.0  0.56357  0.16809  0.12235  1.0000
  C   C79       1.0  0.60781  0.46314  0.33505  1.0000
  C   C80       1.0  0.68206  0.52394  0.32719  1.0000
  C   C81       1.0  0.66850  0.49658  0.25718  1.0000
  C   C82       1.0  0.63105  0.46602  0.26091  1.0000
  C   C83       1.0  0.69258  0.50044  0.17783  1.0000
  H   H79       1.0  0.71951  0.52573  0.17781  1.0000
  H   H80       1.0  0.67906  0.50095  0.11525  1.0000
  H   H81       1.0  0.69756  0.47709  0.17608  1.0000
  C   C84       1.0  0.61636  0.43832  0.18544  1.0000
  H   H82       1.0  0.58787  0.41608  0.19425  1.0000
  H   H83       1.0  0.63329  0.42520  0.17841  1.0000
  H   H84       1.0  0.61710  0.45213  0.12233  1.0000
  C   C85       1.0  0.86786  0.40787  0.33498  1.0000
  C   C86       1.0  0.85443  0.33362  0.32709  1.0000
  C   C87       1.0  0.84063  0.34718  0.25710  1.0000
  C   C88       1.0  0.84751  0.38463  0.26083  1.0000
  C   C89       1.0  0.82040  0.32310  0.17776  1.0000
  H   H85       1.0  0.81877  0.29617  0.17773  1.0000
  H   H86       1.0  0.83442  0.33662  0.11517  1.0000
  H   H87       1.0  0.79207  0.31811  0.17602  1.0000
  C   C90       1.0  0.83448  0.39931  0.18536  1.0000
  H   H88       1.0  0.84074  0.42780  0.19420  1.0000
  H   H89       1.0  0.80444  0.38238  0.17834  1.0000
  H   H90       1.0  0.84756  0.39858  0.12226  1.0000
  C   C91       1.0  0.97015  0.53027  0.31935  1.0000
  C   C92       1.0  0.04844  0.56891  0.32309  1.0000
  C   C93       1.0  0.02967  0.54631  0.24681  1.0000
  C   C94       1.0  0.98996  0.52687  0.24471  1.0000
  C   C95       1.0  0.05095  0.54303  0.16901  1.0000
  H   H91       1.0  0.08096  0.55986  0.17543  1.0000
  H   H92       1.0  0.04384  0.55207  0.10684  1.0000
  H   H93       1.0  0.04420  0.51427  0.16149  1.0000
  C   C96       1.0  0.96976  0.50386  0.16392  1.0000
  H   H94       1.0  0.93984  0.49237  0.16587  1.0000
  H   H95       1.0  0.97495  0.48076  0.15741  1.0000
  H   H96       1.0  0.97921  0.52071  0.10285  1.0000
  C   C97       1.0  0.48540  0.44300  0.31934  1.0000
  C   C98       1.0  0.44676  0.48266  0.32305  1.0000
  C   C99       1.0  0.46938  0.48650  0.24679  1.0000
  C   C100      1.0  0.48881  0.46623  0.24470  1.0000
  C   C101      1.0  0.47266  0.51106  0.16897  1.0000
  H   H97       1.0  0.45583  0.52424  0.17539  1.0000
  H   H98       1.0  0.46363  0.49490  0.10680  1.0000
  H   H99       1.0  0.50143  0.53307  0.16148  1.0000
  C   C102      1.0  0.51183  0.46904  0.16393  1.0000
  H   H100      1.0  0.52332  0.45060  0.16590  1.0000
  H   H101      1.0  0.53494  0.49733  0.15744  1.0000
  H   H102      1.0  0.49499  0.46164  0.10285  1.0000
  C   C103      1.0  0.57267  0.04553  0.31942  1.0000
  C   C104      1.0  0.53300  0.96724  0.32317  1.0000
  C   C105      1.0  0.52916  0.98601  0.24690  1.0000
  C   C106      1.0  0.54944  0.02572  0.24480  1.0000
  C   C107      1.0  0.50460  0.96474  0.16909  1.0000
  H   H103      1.0  0.49141  0.93472  0.17552  1.0000
  H   H104      1.0  0.52075  0.97185  0.10692  1.0000
  H   H105      1.0  0.48260  0.97150  0.16160  1.0000
  C   C108      1.0  0.54663  0.04593  0.16402  1.0000
  H   H106      1.0  0.56506  0.07584  0.16597  1.0000
  H   H107      1.0  0.51833  0.04074  0.15754  1.0000
  H   H108      1.0  0.55402  0.03647  0.10293  1.0000
  C   C109      1.0  0.97642  0.97238  0.34142  1.0000
  N   N1        1.0  0.01030  0.97440  0.34140  1.0000
  C   C110      1.0  0.04331  0.00717  0.34145  1.0000
  N   N2        1.0  0.04129  0.03903  0.34140  1.0000
  C   C111      1.0  0.00852  0.03927  0.34144  1.0000
  N   N3        1.0  0.97666  0.00539  0.34138  1.0000
  C   C112      1.0  0.97666  0.21353  0.34155  1.0000
  N   N4        1.0  0.97704  0.18094  0.33656  1.0000
  C   C113      1.0  0.00919  0.17942  0.34186  1.0000
  N   N5        1.0  0.04157  0.21249  0.35405  1.0000
  C   C114      1.0  0.04227  0.24567  0.36032  1.0000
  N   N6        1.0  0.00956  0.24520  0.35278  1.0000
  C   C115      1.0  0.80213  0.76627  0.34137  1.0000
  N   N7        1.0  0.83473  0.79924  0.33648  1.0000
  C   C116      1.0  0.83627  0.83291  0.34182  1.0000
  N   N8        1.0  0.80321  0.83224  0.35403  1.0000
  C   C117      1.0  0.77001  0.79976  0.36026  1.0000
  N   N9        1.0  0.77047  0.76752  0.35268  1.0000
  C   C118      1.0  0.24942  0.03900  0.34129  1.0000
  N   N10       1.0  0.21645  0.03863  0.33645  1.0000
  C   C119      1.0  0.18279  0.00650  0.34182  1.0000
  N   N11       1.0  0.18346  0.97411  0.35403  1.0000
  C   C120      1.0  0.21594  0.97340  0.36025  1.0000
  N   N12       1.0  0.24818  0.00610  0.35263  1.0000
  C   C121      1.0  0.22205  0.44548  0.35250  1.0000
  N   N13       1.0  0.19617  0.40861  0.35690  1.0000
  C   C122      1.0  0.15919  0.39675  0.36550  1.0000
  N   N14       1.0  0.14869  0.42302  0.37008  1.0000
  C   C123      1.0  0.17399  0.45998  0.36734  1.0000
  N   N15       1.0  0.21026  0.47043  0.35824  1.0000
  C   C124      1.0  0.57020  0.77970  0.35246  1.0000
  N   N16       1.0  0.60707  0.79069  0.35689  1.0000
  C   C125      1.0  0.61893  0.76558  0.36552  1.0000
  N   N17       1.0  0.59267  0.72881  0.37010  1.0000
  C   C126      1.0  0.55570  0.71714  0.36735  1.0000
  N   N18       1.0  0.54525  0.74296  0.35822  1.0000
  C   C127      1.0  0.23599  0.79363  0.35251  1.0000
  N   N19       1.0  0.22500  0.81951  0.35691  1.0000
  C   C128      1.0  0.25010  0.85648  0.36554  1.0000
  N   N20       1.0  0.28688  0.86699  0.37011  1.0000
  C   C129      1.0  0.29855  0.84170  0.36737  1.0000
  N   N21       1.0  0.27273  0.80543  0.35826  1.0000
  C   C130      1.0  0.44899  0.21878  0.34975  1.0000
  N   N22       1.0  0.41214  0.19285  0.34493  1.0000
  C   C131      1.0  0.40031  0.15589  0.33642  1.0000
  N   N23       1.0  0.42652  0.14533  0.33189  1.0000
  C   C132      1.0  0.46344  0.17063  0.33504  1.0000
  N   N24       1.0  0.47388  0.20689  0.34406  1.0000
  C   C133      1.0  0.78234  0.56670  0.34984  1.0000
  N   N25       1.0  0.79326  0.60355  0.34496  1.0000
  C   C134      1.0  0.76812  0.61538  0.33644  1.0000
  N   N26       1.0  0.73135  0.58917  0.33193  1.0000
  C   C135      1.0  0.71974  0.55225  0.33513  1.0000
  N   N27       1.0  0.74556  0.54181  0.34413  1.0000
  C   C136      1.0  0.79691  0.23335  0.34987  1.0000
  N   N28       1.0  0.82282  0.22242  0.34498  1.0000
  C   C137      1.0  0.85979  0.24755  0.33640  1.0000
  N   N29       1.0  0.87035  0.28432  0.33186  1.0000
  C   C138      1.0  0.84506  0.29594  0.33506  1.0000
  N   N30       1.0  0.80880  0.27013  0.34410  1.0000
  C   C139      1.0  0.13796  0.57506  0.35532  1.0000
  N   N31       1.0  0.16105  0.61264  0.35124  1.0000
  C   C140      1.0  0.14734  0.63620  0.34037  1.0000
  N   N32       1.0  0.11004  0.62155  0.33413  1.0000
  C   C141      1.0  0.08676  0.58446  0.33702  1.0000
  N   N33       1.0  0.10097  0.56171  0.34705  1.0000
  C   C142      1.0  0.44062  0.56604  0.35528  1.0000
  N   N34       1.0  0.40304  0.55155  0.35125  1.0000
  C   C143      1.0  0.37949  0.51428  0.34040  1.0000
  N   N35       1.0  0.39413  0.49162  0.33412  1.0000
  C   C144      1.0  0.43123  0.50545  0.33696  1.0000
  N   N36       1.0  0.45397  0.54240  0.34701  1.0000
  C   C145      1.0  0.44965  0.87771  0.35538  1.0000
  N   N37       1.0  0.46414  0.85462  0.35128  1.0000
  C   C146      1.0  0.50141  0.86834  0.34043  1.0000
  N   N38       1.0  0.52406  0.90565  0.33419  1.0000
  C   C147      1.0  0.51023  0.92892  0.33708  1.0000
  N   N39       1.0  0.47328  0.91470  0.34711  1.0000
  C   C148      1.0  0.57878  0.13553  0.33983  1.0000
  N   N40       1.0  0.61611  0.15826  0.35042  1.0000
  C   C149      1.0  0.63944  0.14405  0.35364  1.0000
  N   N41       1.0  0.62500  0.10693  0.34292  1.0000
  C   C150      1.0  0.58811  0.08406  0.33091  1.0000
  N   N42       1.0  0.56543  0.09863  0.33042  1.0000
  C   C151      1.0  0.56929  0.43690  0.33975  1.0000
  N   N43       1.0  0.55469  0.39957  0.35034  1.0000
  C   C152      1.0  0.51715  0.37623  0.35354  1.0000
  N   N44       1.0  0.49447  0.39068  0.34284  1.0000
  C   C153      1.0  0.50849  0.42757  0.33086  1.0000
  N   N45       1.0  0.54574  0.45025  0.33036  1.0000
  C   C154      1.0  0.88015  0.44639  0.33966  1.0000
  N   N46       1.0  0.85742  0.46099  0.35029  1.0000
  C   C155      1.0  0.87162  0.49853  0.35356  1.0000
  N   N47       1.0  0.90875  0.52120  0.34284  1.0000
  C   C156      1.0  0.93162  0.50718  0.33083  1.0000
  N   N48       1.0  0.91705  0.46993  0.33030  1.0000
  C   C157      1.0  0.02825  0.13587  0.39852  1.0000
  C   C158      1.0  0.02793  0.10182  0.39868  1.0000
  H   H109      1.0  0.04190  0.09722  0.44929  1.0000
  H   H110      1.0  0.04231  0.15430  0.44931  1.0000
  C   C159      1.0  0.87982  0.89552  0.39850  1.0000
  C   C160      1.0  0.91387  0.92925  0.39866  1.0000
  H   H111      1.0  0.91847  0.94782  0.44927  1.0000
  H   H112      1.0  0.86139  0.89115  0.44928  1.0000
  C   C161      1.0  0.12018  0.98745  0.39854  1.0000
  C   C162      1.0  0.08645  0.98777  0.39870  1.0000
  H   H113      1.0  0.06789  0.97381  0.44932  1.0000
  H   H114      1.0  0.12456  0.97340  0.44932  1.0000
  C   C163      1.0  0.07463  0.28126  0.37428  1.0000
  C   C164      1.0  0.13218  0.35812  0.37471  1.0000
  C   C165      1.0  0.10741  0.34298  0.44984  1.0000
  C   C166      1.0  0.07843  0.30467  0.44915  1.0000
  C   C167      1.0  0.11197  0.36656  0.53083  1.0000
  H   H115      1.0  0.13606  0.39432  0.52852  1.0000
  H   H116      1.0  0.11549  0.35380  0.59149  1.0000
  H   H117      1.0  0.08752  0.36950  0.53866  1.0000
  C   C168      1.0  0.05253  0.28915  0.52819  1.0000
  H   H118      1.0  0.03256  0.25962  0.52350  1.0000
  H   H119      1.0  0.03687  0.30358  0.53544  1.0000
  H   H120      1.0  0.06819  0.29259  0.58996  1.0000
  C   C169      1.0  0.73444  0.79655  0.37430  1.0000
  C   C170      1.0  0.65756  0.77721  0.37471  1.0000
  C   C171      1.0  0.67271  0.76759  0.44985  1.0000
  C   C172      1.0  0.71103  0.77693  0.44915  1.0000
  C   C173      1.0  0.64914  0.74857  0.53085  1.0000
  H   H121      1.0  0.62138  0.74490  0.52854  1.0000
  H   H122      1.0  0.66190  0.76487  0.59150  1.0000
  H   H123      1.0  0.64621  0.72119  0.53870  1.0000
  C   C174      1.0  0.72655  0.76655  0.52818  1.0000
  H   H124      1.0  0.75609  0.77612  0.52347  1.0000
  H   H125      1.0  0.71213  0.73647  0.53543  1.0000
  H   H126      1.0  0.72312  0.77877  0.58996  1.0000
  C   C175      1.0  0.21916  0.94104  0.37425  1.0000
  C   C176      1.0  0.23848  0.88349  0.37472  1.0000
  C   C177      1.0  0.24811  0.90827  0.44984  1.0000
  C   C178      1.0  0.23878  0.93726  0.44912  1.0000
  C   C179      1.0  0.26713  0.90372  0.53084  1.0000
  H   H127      1.0  0.27080  0.87963  0.52855  1.0000
  H   H128      1.0  0.25085  0.90021  0.59150  1.0000
  H   H129      1.0  0.29452  0.92816  0.53865  1.0000
  C   C180      1.0  0.24917  0.96317  0.52814  1.0000
  H   H130      1.0  0.23962  0.98315  0.52341  1.0000
  H   H131      1.0  0.27926  0.97882  0.53537  1.0000
  H   H132      1.0  0.23696  0.94752  0.58992  1.0000
  C   C181      1.0  0.30029  0.09688  0.39934  1.0000
  C   C182      1.0  0.33769  0.12523  0.39871  1.0000
  H   H133      1.0  0.34774  0.14218  0.45400  1.0000
  H   H134      1.0  0.28463  0.09410  0.45526  1.0000
  C   C183      1.0  0.80914  0.71540  0.39938  1.0000
  C   C184      1.0  0.80008  0.67799  0.39873  1.0000
  H   H135      1.0  0.80699  0.66794  0.45401  1.0000
  H   H136      1.0  0.82202  0.73105  0.45530  1.0000
  C   C185      1.0  0.91878  0.20653  0.39948  1.0000
  C   C186      1.0  0.89044  0.21560  0.39878  1.0000
  H   H137      1.0  0.87348  0.20871  0.45405  1.0000
  H   H138      1.0  0.92155  0.19367  0.45543  1.0000
  C   C187      1.0  0.28338  0.48500  0.41253  1.0000
  C   C188      1.0  0.32216  0.50346  0.40784  1.0000
  H   H139      1.0  0.33705  0.52040  0.46034  1.0000
  H   H140      1.0  0.27155  0.48994  0.46753  1.0000
  C   C189      1.0  0.53067  0.80150  0.41250  1.0000
  C   C190      1.0  0.51223  0.82183  0.40782  1.0000
  H   H141      1.0  0.49528  0.81978  0.46032  1.0000
  H   H142      1.0  0.52572  0.78472  0.46748  1.0000
  C   C191      1.0  0.21418  0.73230  0.41250  1.0000
  C   C192      1.0  0.19385  0.69352  0.40780  1.0000
  H   H143      1.0  0.19590  0.67862  0.46030  1.0000
  H   H144      1.0  0.23096  0.74413  0.46749  1.0000
  C   C193      1.0  0.46339  0.25782  0.35604  1.0000
  C   C194      1.0  0.50052  0.33712  0.36234  1.0000
  C   C195      1.0  0.47388  0.31572  0.43026  1.0000
  C   C196      1.0  0.45534  0.27584  0.42741  1.0000
  C   C197      1.0  0.46640  0.33467  0.50684  1.0000
  H   H145      1.0  0.48339  0.36476  0.50650  1.0000
  H   H146      1.0  0.47202  0.32572  0.57118  1.0000
  H   H147      1.0  0.43746  0.32778  0.50519  1.0000
  C   C198      1.0  0.42903  0.25371  0.50162  1.0000
  H   H148      1.0  0.41694  0.22387  0.49548  1.0000
  H   H149      1.0  0.40608  0.25931  0.50368  1.0000
  H   H150      1.0  0.44339  0.26122  0.56638  1.0000
  C   C199      1.0  0.80700  0.55232  0.35604  1.0000
  C   C200      1.0  0.84916  0.51517  0.36233  1.0000
  C   C201      1.0  0.85439  0.54180  0.43027  1.0000
  C   C202      1.0  0.83305  0.56035  0.42743  1.0000
  C   C203      1.0  0.88081  0.54927  0.50686  1.0000
  H   H151      1.0  0.89391  0.53227  0.50652  1.0000
  H   H152      1.0  0.86624  0.54365  0.57120  1.0000
  H   H153      1.0  0.90288  0.57821  0.50523  1.0000
  C   C204      1.0  0.83724  0.58666  0.50166  1.0000
  H   H154      1.0  0.81951  0.59877  0.49551  1.0000
  H   H155      1.0  0.86579  0.60959  0.50374  1.0000
  H   H156      1.0  0.83038  0.57229  0.56641  1.0000
  C   C205      1.0  0.75787  0.20871  0.35612  1.0000
  C   C206      1.0  0.67856  0.16653  0.36242  1.0000
  C   C207      1.0  0.69997  0.16129  0.43033  1.0000
  C   C208      1.0  0.73985  0.18263  0.42748  1.0000
  C   C209      1.0  0.68102  0.13486  0.50691  1.0000
  H   H157      1.0  0.65092  0.12175  0.50658  1.0000
  H   H158      1.0  0.68997  0.14942  0.57125  1.0000
  H   H159      1.0  0.68790  0.11280  0.50524  1.0000
  C   C210      1.0  0.76198  0.17844  0.50168  1.0000
  H   H160      1.0  0.79181  0.19619  0.49553  1.0000
  H   H161      1.0  0.75637  0.14989  0.50372  1.0000
  H   H162      1.0  0.75447  0.18529  0.56645  1.0000
  C   C211      1.0  0.14987  0.54847  0.36352  1.0000
  C   C212      1.0  0.16449  0.48829  0.37397  1.0000
  C   C213      1.0  0.17839  0.51632  0.44241  1.0000
  C   C214      1.0  0.17085  0.54647  0.43752  1.0000
  C   C215      1.0  0.19944  0.51357  0.52145  1.0000
  H   H163      1.0  0.20185  0.48871  0.52216  1.0000
  H   H164      1.0  0.18557  0.51304  0.58433  1.0000
  H   H165      1.0  0.22749  0.53740  0.52201  1.0000
  C   C216      1.0  0.18371  0.57453  0.51217  1.0000
  H   H166      1.0  0.17617  0.59585  0.50413  1.0000
  H   H167      1.0  0.21388  0.58867  0.51728  1.0000
  H   H168      1.0  0.17164  0.56082  0.57611  1.0000
  C   C217      1.0  0.46722  0.60454  0.36352  1.0000
  C   C218      1.0  0.52741  0.67934  0.37397  1.0000
  C   C219      1.0  0.49938  0.66520  0.44242  1.0000
  C   C220      1.0  0.46923  0.62752  0.43753  1.0000
  C   C221      1.0  0.50213  0.68900  0.52147  1.0000
  H   H169      1.0  0.52699  0.71626  0.52218  1.0000
  H   H170      1.0  0.50267  0.67566  0.58435  1.0000
  H   H171      1.0  0.47831  0.69322  0.52206  1.0000
  C   C222      1.0  0.44117  0.61231  0.51219  1.0000
  H   H172      1.0  0.41985  0.58345  0.50415  1.0000
  H   H173      1.0  0.42702  0.62834  0.51733  1.0000
  H   H174      1.0  0.45489  0.61395  0.57613  1.0000
  C   C223      1.0  0.41113  0.86577  0.36353  1.0000
  C   C224      1.0  0.33634  0.85121  0.37403  1.0000
  C   C225      1.0  0.35048  0.83732  0.44248  1.0000
  C   C226      1.0  0.38816  0.84484  0.43757  1.0000
  C   C227      1.0  0.32669  0.81629  0.52154  1.0000
  H   H175      1.0  0.29943  0.81390  0.52225  1.0000
  H   H176      1.0  0.34003  0.83017  0.58440  1.0000
  H   H177      1.0  0.32244  0.78823  0.52214  1.0000
  C   C228      1.0  0.40336  0.83198  0.51224  1.0000
  H   H178      1.0  0.43221  0.83950  0.50417  1.0000
  H   H179      1.0  0.38731  0.80181  0.51744  1.0000
  H   H180      1.0  0.40175  0.84409  0.57617  1.0000
  C   C229      1.0  0.52456  0.13380  0.40181  1.0000
  C   C230      1.0  0.49484  0.14055  0.39829  1.0000
  H   H181      1.0  0.47585  0.13077  0.44974  1.0000
  H   H182      1.0  0.52559  0.11846  0.45467  1.0000
  C   C231      1.0  0.62177  0.49112  0.40178  1.0000
  C   C232      1.0  0.65824  0.52084  0.39830  1.0000
  H   H183      1.0  0.66744  0.53983  0.44976  1.0000
  H   H184      1.0  0.60539  0.49009  0.45462  1.0000
  C   C233      1.0  0.88188  0.39391  0.40172  1.0000
  C   C234      1.0  0.87513  0.35744  0.39823  1.0000
  H   H185      1.0  0.88491  0.34824  0.44969  1.0000
  H   H186      1.0  0.89722  0.41028  0.45457  1.0000
  C   C235      1.0  0.98952  0.55454  0.39111  1.0000
  C   C236      1.0  0.02827  0.57373  0.39289  1.0000
  H   H187      1.0  0.04146  0.58941  0.44860  1.0000
  H   H188      1.0  0.97568  0.55673  0.44585  1.0000
  C   C237      1.0  0.46114  0.43812  0.39110  1.0000
  C   C238      1.0  0.44195  0.45769  0.39287  1.0000
  H   H189      1.0  0.42627  0.45521  0.44858  1.0000
  H   H190      1.0  0.45894  0.42210  0.44585  1.0000
  C   C239      1.0  0.57758  0.02616  0.39116  1.0000
  C   C240      1.0  0.55800  0.98740  0.39295  1.0000
  H   H191      1.0  0.56050  0.97421  0.44865  1.0000
  H   H192      1.0  0.59361  0.03999  0.44589  1.0000
