data_image0
_chemical_formula_structural       C3HNO2COC3HNO2COC3HNO2COC3HNO2COC3HNO2COC3HNO2COC6H3NHNHNHC6H3NHNHNHC6H3NHNHNHC6H3NHNHNHC3HNO2COC3HNO2COC3HNO2COC3HNO2COC3HNO2COC3HNO2CO
_chemical_formula_sum              "C72 H36 N24 O36"
_cell_length_a       33.8593
_cell_length_b       33.8594
_cell_length_c       15.09
_cell_angle_alpha    90
_cell_angle_beta     90
_cell_angle_gamma    120

_space_group_name_H-M_alt    "P 1"
_space_group_IT_number       1

loop_
  _space_group_symop_operation_xyz
  'x, y, z'

loop_
  _atom_site_type_symbol
  _atom_site_label
  _atom_site_symmetry_multiplicity
  _atom_site_fract_x
  _atom_site_fract_y
  _atom_site_fract_z
  _atom_site_occupancy
  C   C1        1.0  0.16379  0.07958  0.29974  1.0000
  C   C2        1.0  0.19990  0.10377  0.23908  1.0000
  C   C3        1.0  0.24476  0.12901  0.27225  1.0000
  H   H1        1.0  0.27071  0.14700  0.22815  1.0000
  N   N1        1.0  0.19078  0.10350  0.14733  1.0000
  O   O1        1.0  0.20271  0.14287  0.11939  1.0000
  O   O2        1.0  0.21084  0.08753  0.10247  1.0000
  C   C4        1.0  0.11815  0.05298  0.27115  1.0000
  O   O3        1.0  0.10917  0.02352  0.20320  1.0000
  C   C5        1.0  0.90667  0.08359  0.29792  1.0000
  C   C6        1.0  0.88239  0.09517  0.23678  1.0000
  C   C7        1.0  0.85718  0.11495  0.26924  1.0000
  H   H2        1.0  0.83910  0.12260  0.22479  1.0000
  N   N2        1.0  0.88253  0.08579  0.14526  1.0000
  O   O4        1.0  0.84312  0.05820  0.11770  1.0000
  O   O5        1.0  0.89845  0.12158  0.09963  1.0000
  C   C8        1.0  0.93327  0.06443  0.26998  1.0000
  O   O6        1.0  0.96243  0.08440  0.20139  1.0000
  C   C9        1.0  0.90323  0.82248  0.30023  1.0000
  C   C10       1.0  0.89170  0.78677  0.23876  1.0000
  C   C11       1.0  0.87172  0.74169  0.27078  1.0000
  H   H3        1.0  0.86396  0.71604  0.22605  1.0000
  N   N3        1.0  0.90119  0.79647  0.14732  1.0000
  O   O7        1.0  0.92872  0.78460  0.11966  1.0000
  O   O8        1.0  0.86544  0.77680  0.10152  1.0000
  C   C12       1.0  0.92212  0.86825  0.27251  1.0000
  O   O9        1.0  0.90205  0.87728  0.20388  1.0000
  C   C13       1.0  0.60664  0.14047  0.30819  1.0000
  C   C14       1.0  0.57279  0.12353  0.24088  1.0000
  C   C15       1.0  0.52848  0.11516  0.26106  1.0000
  H   H4        1.0  0.50526  0.10622  0.21058  1.0000
  N   N4        1.0  0.58381  0.11659  0.15376  1.0000
  O   O10       1.0  0.56008  0.07559  0.13065  1.0000
  O   O11       1.0  0.57825  0.14103  0.09811  1.0000
  C   C16       1.0  0.65378  0.15945  0.28795  1.0000
  O   O12       1.0  0.66934  0.18493  0.21327  1.0000
  C   C17       1.0  0.84248  0.46429  0.30363  1.0000
  C   C18       1.0  0.85972  0.44758  0.23650  1.0000
  C   C19       1.0  0.86772  0.41138  0.25650  1.0000
  H   H5        1.0  0.87707  0.39740  0.20612  1.0000
  N   N5        1.0  0.86744  0.46609  0.14976  1.0000
  O   O13       1.0  0.90860  0.48331  0.12785  1.0000
  O   O14       1.0  0.84333  0.43648  0.09321  1.0000
  C   C20       1.0  0.82410  0.49298  0.28335  1.0000
  O   O15       1.0  0.79919  0.48371  0.20802  1.0000
  C   C21       1.0  0.52081  0.37724  0.30428  1.0000
  C   C22       1.0  0.53740  0.40942  0.23390  1.0000
  C   C23       1.0  0.57349  0.45417  0.25039  1.0000
  H   H6        1.0  0.58742  0.47624  0.19807  1.0000
  N   N6        1.0  0.51897  0.39633  0.14746  1.0000
  O   O16       1.0  0.50165  0.41954  0.12118  1.0000
  O   O17       1.0  0.54865  0.40047  0.09233  1.0000
  C   C24       1.0  0.49269  0.32961  0.28823  1.0000
  O   O18       1.0  0.50178  0.31249  0.21478  1.0000
  C   C25       1.0  0.03881  0.02602  0.30221  1.0000
  C   C26       1.0  0.00794  0.04246  0.30274  1.0000
  C   C27       1.0  0.96039  0.01229  0.30219  1.0000
  C   C28       1.0  0.94396  0.96499  0.30420  1.0000
  C   C29       1.0  0.97412  0.94759  0.30363  1.0000
  C   C30       1.0  0.02143  0.97846  0.30409  1.0000
  H   H7        1.0  0.90960  0.94307  0.31015  1.0000
  H   H8        1.0  0.04336  0.96605  0.31025  1.0000
  H   H9        1.0  0.02039  0.07685  0.30779  1.0000
  N   N7        1.0  0.08414  0.05583  0.31298  1.0000
  H   H10       1.0  0.09253  0.08108  0.35422  1.0000
  N   N8        1.0  0.95855  0.90229  0.31526  1.0000
  H   H11       1.0  0.97529  0.89400  0.35699  1.0000
  N   N9        1.0  0.93062  0.02789  0.31275  1.0000
  H   H12       1.0  0.90552  0.01129  0.35445  1.0000
  C   C31       1.0  0.45517  0.18663  0.33544  1.0000
  C   C32       1.0  0.47373  0.23442  0.33894  1.0000
  C   C33       1.0  0.44573  0.25409  0.34829  1.0000
  C   C34       1.0  0.39836  0.22513  0.35719  1.0000
  C   C35       1.0  0.37861  0.17723  0.35296  1.0000
  C   C36       1.0  0.40736  0.15862  0.34037  1.0000
  H   H13       1.0  0.37795  0.23941  0.36003  1.0000
  H   H14       1.0  0.39296  0.12415  0.33190  1.0000
  H   H15       1.0  0.50834  0.25535  0.33477  1.0000
  N   N10       1.0  0.48355  0.16940  0.32033  1.0000
  H   H16       1.0  0.51135  0.18918  0.28686  1.0000
  N   N11       1.0  0.33257  0.14918  0.34721  1.0000
  H   H17       1.0  0.32196  0.12382  0.30536  1.0000
  N   N12       1.0  0.46375  0.30027  0.35042  1.0000
  H   H18       1.0  0.45346  0.31251  0.39797  1.0000
  C   C37       1.0  0.79724  0.26632  0.32853  1.0000
  C   C38       1.0  0.74954  0.23664  0.33271  1.0000
  C   C39       1.0  0.73046  0.18908  0.34303  1.0000
  C   C40       1.0  0.75994  0.17128  0.35187  1.0000
  C   C41       1.0  0.80775  0.19990  0.34675  1.0000
  C   C42       1.0  0.82577  0.24710  0.33335  1.0000
  H   H19       1.0  0.74608  0.13667  0.35580  1.0000
  H   H20       1.0  0.86018  0.26753  0.32462  1.0000
  H   H21       1.0  0.72828  0.24996  0.32905  1.0000
  N   N13       1.0  0.81396  0.31186  0.31358  1.0000
  H   H22       1.0  0.79404  0.31962  0.27998  1.0000
  N   N14       1.0  0.83627  0.18243  0.34183  1.0000
  H   H23       1.0  0.86148  0.19709  0.29964  1.0000
  N   N15       1.0  0.68440  0.16054  0.34778  1.0000
  H   H24       1.0  0.67311  0.13864  0.39650  1.0000
  C   C43       1.0  0.71825  0.53119  0.32206  1.0000
  C   C44       1.0  0.74743  0.51259  0.32604  1.0000
  C   C45       1.0  0.79493  0.54044  0.33854  1.0000
  C   C46       1.0  0.81312  0.58767  0.34971  1.0000
  C   C47       1.0  0.78504  0.60747  0.34484  1.0000
  C   C48       1.0  0.73791  0.57891  0.32931  1.0000
  H   H25       1.0  0.84773  0.60801  0.35517  1.0000
  H   H26       1.0  0.71785  0.59333  0.32089  1.0000
  H   H27       1.0  0.73376  0.47801  0.32085  1.0000
  N   N16       1.0  0.67278  0.50302  0.30527  1.0000
  H   H28       1.0  0.66505  0.47577  0.27022  1.0000
  N   N17       1.0  0.80303  0.65358  0.34188  1.0000
  H   H29       1.0  0.78882  0.66482  0.30008  1.0000
  N   N18       1.0  0.82298  0.52235  0.34353  1.0000
  H   H30       1.0  0.84455  0.53242  0.39279  1.0000
  C   C49       1.0  0.25439  0.13006  0.36373  1.0000
  C   C50       1.0  0.21822  0.10623  0.42449  1.0000
  C   C51       1.0  0.17330  0.08119  0.39137  1.0000
  H   H31       1.0  0.14736  0.06290  0.43533  1.0000
  N   N19       1.0  0.22744  0.10609  0.51608  1.0000
  O   O19       1.0  0.21528  0.06656  0.54340  1.0000
  O   O20       1.0  0.20763  0.12212  0.56157  1.0000
  C   C52       1.0  0.30045  0.15444  0.39115  1.0000
  O   O21       1.0  0.31157  0.18332  0.46080  1.0000
  C   C53       1.0  0.85623  0.12405  0.36048  1.0000
  C   C54       1.0  0.88011  0.11201  0.42175  1.0000
  C   C55       1.0  0.90515  0.09199  0.38934  1.0000
  H   H32       1.0  0.92346  0.08456  0.43365  1.0000
  N   N20       1.0  0.88027  0.12178  0.51314  1.0000
  O   O22       1.0  0.91980  0.14925  0.54029  1.0000
  O   O23       1.0  0.86422  0.08614  0.55923  1.0000
  C   C56       1.0  0.83168  0.14567  0.38719  1.0000
  O   O24       1.0  0.80301  0.12825  0.45723  1.0000
  C   C57       1.0  0.86233  0.73140  0.36187  1.0000
  C   C58       1.0  0.87450  0.76718  0.42353  1.0000
  C   C59       1.0  0.89479  0.81236  0.39158  1.0000
  H   H33       1.0  0.90221  0.83800  0.43611  1.0000
  N   N21       1.0  0.86454  0.75733  0.51479  1.0000
  O   O25       1.0  0.83719  0.76953  0.54204  1.0000
  O   O26       1.0  0.90011  0.77661  0.56114  1.0000
  C   C60       1.0  0.83997  0.68509  0.38784  1.0000
  O   O27       1.0  0.85689  0.67307  0.45756  1.0000
  C   C61       1.0  0.51728  0.12361  0.34638  1.0000
  C   C62       1.0  0.55021  0.13783  0.41524  1.0000
  C   C63       1.0  0.59407  0.14540  0.39524  1.0000
  H   H34       1.0  0.61840  0.15935  0.44381  1.0000
  N   N22       1.0  0.54418  0.14883  0.50291  1.0000
  O   O28       1.0  0.53611  0.18120  0.50634  1.0000
  O   O29       1.0  0.51347  0.11483  0.54304  1.0000
  C   C64       1.0  0.47920  0.12993  0.35359  1.0000
  O   O30       1.0  0.44758  0.10530  0.41584  1.0000
  C   C65       1.0  0.85883  0.39143  0.34157  1.0000
  C   C66       1.0  0.84419  0.40982  0.41028  1.0000
  C   C67       1.0  0.83675  0.44620  0.39034  1.0000
  H   H35       1.0  0.82266  0.45653  0.43874  1.0000
  N   N23       1.0  0.83259  0.39236  0.49756  1.0000
  O   O31       1.0  0.80025  0.35188  0.49989  1.0000
  O   O32       1.0  0.86632  0.39549  0.53848  1.0000
  C   C68       1.0  0.85281  0.34714  0.34842  1.0000
  O   O33       1.0  0.87732  0.34014  0.41094  1.0000
  C   C69       1.0  0.59338  0.46748  0.33517  1.0000
  C   C70       1.0  0.57505  0.43654  0.40689  1.0000
  C   C71       1.0  0.53873  0.39198  0.39047  1.0000
  H   H36       1.0  0.52862  0.36900  0.44147  1.0000
  N   N24       1.0  0.59567  0.44903  0.49174  1.0000
  O   O34       1.0  0.61235  0.42478  0.51495  1.0000
  O   O35       1.0  0.56764  0.44608  0.54964  1.0000
  C   C72       1.0  0.63751  0.50624  0.34142  1.0000
  O   O36       1.0  0.64491  0.53663  0.40666  1.0000
