data_image0
_chemical_formula_structural       C2H2C2HC6H3C2HC6H3C2HC6H3C2NCNC2H3CH3C2NCNC2H3CH3C2NCNC2H3CH3C4H3C6H3C6H3C6H3C2NCNC2H3CH2C2NCNC2H3CH2C2NCNC2H3CH3C2HC6H3C2HC6H3C2HC6H3
_chemical_formula_sum              "C108 H72 N12"
_cell_length_a       34.1192
_cell_length_b       34.1297
_cell_length_c       14.8675
_cell_angle_alpha    90
_cell_angle_beta     90
_cell_angle_gamma    119.993

_space_group_name_H-M_alt    "P 1"
_space_group_IT_number       1

loop_
  _space_group_symop_operation_xyz
  'x, y, z'

loop_
  _atom_site_type_symbol
  _atom_site_label
  _atom_site_symmetry_multiplicity
  _atom_site_fract_x
  _atom_site_fract_y
  _atom_site_fract_z
  _atom_site_occupancy
  C   C1        1.0  0.05129  0.02662  0.34145  1.0000
  C   C2        1.0  0.97913  0.02664  0.34143  1.0000
  H   H1        1.0  0.08264  0.01625  0.52176  1.0000
  H   H2        1.0  0.93742  0.01631  0.52176  1.0000
  C   C3        1.0  0.26747  0.13478  0.25934  1.0000
  C   C4        1.0  0.31530  0.15872  0.26201  1.0000
  H   H3        1.0  0.33314  0.16767  0.20284  1.0000
  C   C5        1.0  0.19522  0.09861  0.34134  1.0000
  C   C6        1.0  0.09948  0.05071  0.34252  1.0000
  C   C7        1.0  0.12345  0.06270  0.26021  1.0000
  C   C8        1.0  0.17129  0.08664  0.25846  1.0000
  C   C9        1.0  0.19577  0.09890  0.17689  1.0000
  C   C10       1.0  0.24338  0.12272  0.17733  1.0000
  H   H4        1.0  0.17913  0.09057  0.11646  1.0000
  H   H5        1.0  0.26030  0.13119  0.11721  1.0000
  H   H6        1.0  0.10584  0.05390  0.20079  1.0000
  C   C11       1.0  0.87117  0.13485  0.25926  1.0000
  C   C12       1.0  0.84727  0.15878  0.26192  1.0000
  H   H7        1.0  0.83832  0.16767  0.20275  1.0000
  C   C13       1.0  0.90725  0.09869  0.34129  1.0000
  C   C14       1.0  0.95504  0.05074  0.34250  1.0000
  C   C15       1.0  0.94307  0.06273  0.26018  1.0000
  C   C16       1.0  0.91918  0.08669  0.25841  1.0000
  C   C17       1.0  0.90695  0.09893  0.17684  1.0000
  C   C18       1.0  0.88318  0.12277  0.17726  1.0000
  H   H8        1.0  0.91525  0.09059  0.11642  1.0000
  H   H9        1.0  0.87473  0.13122  0.11713  1.0000
  H   H10       1.0  0.95186  0.05391  0.20077  1.0000
  C   C19       1.0  0.87104  0.73837  0.25931  1.0000
  C   C20       1.0  0.84715  0.69056  0.26197  1.0000
  H   H11       1.0  0.83825  0.67272  0.20281  1.0000
  C   C21       1.0  0.90715  0.81060  0.34133  1.0000
  C   C22       1.0  0.95502  0.90631  0.34252  1.0000
  C   C23       1.0  0.94304  0.88235  0.26020  1.0000
  C   C24       1.0  0.91912  0.83452  0.25844  1.0000
  C   C25       1.0  0.90689  0.81005  0.17687  1.0000
  C   C26       1.0  0.88309  0.76246  0.17731  1.0000
  H   H12       1.0  0.91521  0.82669  0.11645  1.0000
  H   H13       1.0  0.87464  0.74554  0.11718  1.0000
  H   H14       1.0  0.95185  0.89995  0.20078  1.0000
  C   C27       1.0  0.69105  0.17257  0.34055  1.0000
  C   C28       1.0  0.66708  0.16895  0.25985  1.0000
  N   N1        1.0  0.62505  0.16402  0.26554  1.0000
  C   C29       1.0  0.60346  0.16170  0.34382  1.0000
  N   N2        1.0  0.54280  0.16421  0.26559  1.0000
  C   C30       1.0  0.50599  0.16965  0.26018  1.0000
  C   C31       1.0  0.68563  0.17373  0.16790  1.0000
  H   H15       1.0  0.71882  0.17636  0.16718  1.0000
  H   H16       1.0  0.68863  0.20397  0.13626  1.0000
  H   H17       1.0  0.66273  0.14425  0.12785  1.0000
  C   C32       1.0  0.49072  0.17416  0.16951  1.0000
  H   H18       1.0  0.51014  0.16924  0.11678  1.0000
  H   H19       1.0  0.49481  0.20777  0.16117  1.0000
  H   H20       1.0  0.45510  0.14880  0.16075  1.0000
  C   C33       1.0  0.83336  0.52057  0.34061  1.0000
  C   C34       1.0  0.83693  0.50019  0.25991  1.0000
  N   N3        1.0  0.84186  0.46310  0.26563  1.0000
  C   C35       1.0  0.84419  0.44385  0.34392  1.0000
  N   N4        1.0  0.84169  0.38069  0.26573  1.0000
  C   C36       1.0  0.83627  0.33846  0.26033  1.0000
  C   C37       1.0  0.83215  0.51396  0.16795  1.0000
  H   H21       1.0  0.82954  0.54452  0.16722  1.0000
  H   H22       1.0  0.80190  0.48673  0.13633  1.0000
  H   H23       1.0  0.86164  0.52051  0.12790  1.0000
  C   C38       1.0  0.83177  0.31868  0.16965  1.0000
  H   H24       1.0  0.83670  0.34302  0.11693  1.0000
  H   H25       1.0  0.79815  0.28918  0.16129  1.0000
  H   H26       1.0  0.85713  0.30843  0.16091  1.0000
  C   C39       1.0  0.48531  0.31491  0.34043  1.0000
  C   C40       1.0  0.50572  0.33886  0.25976  1.0000
  N   N5        1.0  0.54280  0.38088  0.26545  1.0000
  C   C41       1.0  0.56208  0.40244  0.34373  1.0000
  N   N6        1.0  0.62521  0.46312  0.26551  1.0000
  C   C42       1.0  0.66744  0.49993  0.26008  1.0000
  C   C43       1.0  0.49185  0.32033  0.16781  1.0000
  H   H27       1.0  0.46129  0.28717  0.16716  1.0000
  H   H28       1.0  0.51906  0.31733  0.13603  1.0000
  H   H29       1.0  0.48525  0.34325  0.12788  1.0000
  C   C44       1.0  0.68723  0.51524  0.16942  1.0000
  H   H30       1.0  0.66290  0.49582  0.11668  1.0000
  H   H31       1.0  0.71677  0.51118  0.16108  1.0000
  H   H32       1.0  0.69745  0.55083  0.16069  1.0000
  C   C45       1.0  0.02699  0.05019  0.34131  1.0000
  C   C46       1.0  0.95556  0.97879  0.34130  1.0000
  C   C47       1.0  0.97912  0.95449  0.34143  1.0000
  C   C48       1.0  0.02698  0.97877  0.34129  1.0000
  H   H33       1.0  0.92087  0.96146  0.34176  1.0000
  H   H34       1.0  0.04433  0.96143  0.34177  1.0000
  H   H35       1.0  0.04434  0.08487  0.34176  1.0000
  C   C49       1.0  0.45927  0.19502  0.34104  1.0000
  C   C50       1.0  0.48245  0.24271  0.34047  1.0000
  C   C51       1.0  0.45898  0.26694  0.34121  1.0000
  C   C52       1.0  0.41118  0.24272  0.34293  1.0000
  C   C53       1.0  0.38709  0.19475  0.34351  1.0000
  C   C54       1.0  0.41147  0.17116  0.34261  1.0000
  H   H36       1.0  0.39391  0.26011  0.34348  1.0000
  H   H37       1.0  0.39442  0.13651  0.34313  1.0000
  H   H38       1.0  0.51721  0.26019  0.33944  1.0000
  C   C55       1.0  0.81095  0.26644  0.34103  1.0000
  C   C56       1.0  0.76325  0.24190  0.34051  1.0000
  C   C57       1.0  0.73903  0.19421  0.34116  1.0000
  C   C58       1.0  0.76328  0.17067  0.34283  1.0000
  C   C59       1.0  0.81126  0.19456  0.34340  1.0000
  C   C60       1.0  0.83484  0.24252  0.34255  1.0000
  H   H39       1.0  0.74589  0.13601  0.34339  1.0000
  H   H40       1.0  0.86950  0.26014  0.34312  1.0000
  H   H41       1.0  0.74574  0.25916  0.33958  1.0000
  C   C61       1.0  0.73947  0.54662  0.34098  1.0000
  C   C62       1.0  0.76401  0.52345  0.34047  1.0000
  C   C63       1.0  0.81171  0.54691  0.34121  1.0000
  C   C64       1.0  0.83527  0.59470  0.34293  1.0000
  C   C65       1.0  0.81138  0.61878  0.34346  1.0000
  C   C66       1.0  0.76341  0.59441  0.34252  1.0000
  H   H42       1.0  0.86994  0.61195  0.34354  1.0000
  H   H43       1.0  0.74579  0.61146  0.34302  1.0000
  H   H44       1.0  0.74674  0.48870  0.33948  1.0000
  C   C67       1.0  0.33893  0.17056  0.34474  1.0000
  C   C68       1.0  0.31311  0.15764  0.42546  1.0000
  N   N7        1.0  0.26708  0.13459  0.41990  1.0000
  C   C69       1.0  0.24318  0.12262  0.34176  1.0000
  N   N8        1.0  0.17099  0.08650  0.41911  1.0000
  C   C70       1.0  0.12492  0.06345  0.42363  1.0000
  C   C71       1.0  0.33228  0.16725  0.51749  1.0000
  H   H45       1.0  0.36916  0.18570  0.51820  1.0000
  H   H46       1.0  0.32068  0.13546  0.55351  1.0000
  H   H47       1.0  0.32064  0.18743  0.55345  1.0000
  C   C72       1.0  0.10367  0.05282  0.51377  1.0000
  H   H48       1.0  0.12909  0.06553  0.56710  1.0000
  H   H49       1.0  0.08261  0.06833  0.52175  1.0000
  C   C73       1.0  0.83547  0.17061  0.34464  1.0000
  C   C74       1.0  0.84837  0.15770  0.42538  1.0000
  N   N9        1.0  0.87137  0.13467  0.41983  1.0000
  C   C75       1.0  0.88330  0.12270  0.34169  1.0000
  N   N10       1.0  0.91935  0.08657  0.41907  1.0000
  C   C76       1.0  0.94235  0.06350  0.42360  1.0000
  C   C77       1.0  0.83877  0.16728  0.51740  1.0000
  H   H50       1.0  0.82036  0.18575  0.51809  1.0000
  H   H51       1.0  0.87057  0.18742  0.55342  1.0000
  H   H52       1.0  0.81855  0.13547  0.55335  1.0000
  C   C78       1.0  0.95297  0.05287  0.51374  1.0000
  H   H53       1.0  0.94028  0.06561  0.56707  1.0000
  H   H54       1.0  0.98954  0.06837  0.52173  1.0000
  C   C79       1.0  0.83534  0.66692  0.34470  1.0000
  C   C80       1.0  0.84824  0.69273  0.42543  1.0000
  N   N11       1.0  0.87124  0.73875  0.41987  1.0000
  C   C81       1.0  0.88318  0.76265  0.34174  1.0000
  N   N12       1.0  0.91926  0.83481  0.41909  1.0000
  C   C82       1.0  0.94230  0.88087  0.42361  1.0000
  C   C83       1.0  0.83867  0.67356  0.51745  1.0000
  H   H55       1.0  0.82023  0.63669  0.51816  1.0000
  H   H56       1.0  0.81850  0.68519  0.55347  1.0000
  H   H57       1.0  0.87050  0.68517  0.55341  1.0000
  C   C84       1.0  0.95292  0.90212  0.51376  1.0000
  H   H58       1.0  0.94021  0.87670  0.56709  1.0000
  H   H59       1.0  0.93739  0.92316  0.52175  1.0000
  H   H60       1.0  0.98949  0.92315  0.52175  1.0000
  C   C85       1.0  0.62545  0.16390  0.42627  1.0000
  C   C86       1.0  0.66915  0.16901  0.42348  1.0000
  H   H61       1.0  0.68683  0.17453  0.48238  1.0000
  C   C87       1.0  0.56213  0.16194  0.34385  1.0000
  C   C88       1.0  0.48592  0.17372  0.34081  1.0000
  C   C89       1.0  0.50441  0.17029  0.42366  1.0000
  C   C90       1.0  0.54263  0.16457  0.42637  1.0000
  C   C91       1.0  0.56383  0.16500  0.50822  1.0000
  C   C92       1.0  0.60487  0.16463  0.50817  1.0000
  H   H62       1.0  0.55066  0.16763  0.56833  1.0000
  H   H63       1.0  0.62061  0.16701  0.56824  1.0000
  H   H64       1.0  0.49235  0.17591  0.48258  1.0000
  C   C93       1.0  0.84203  0.46367  0.42635  1.0000
  C   C94       1.0  0.83690  0.50222  0.42354  1.0000
  H   H65       1.0  0.83150  0.51448  0.48243  1.0000
  C   C95       1.0  0.84398  0.40230  0.34398  1.0000
  C   C96       1.0  0.83221  0.31438  0.34104  1.0000
  C   C97       1.0  0.83569  0.33630  0.42387  1.0000
  C   C98       1.0  0.84143  0.38023  0.42653  1.0000
  C   C99       1.0  0.84104  0.40104  0.50836  1.0000
  C   C100      1.0  0.84139  0.44242  0.50827  1.0000
  H   H66       1.0  0.83850  0.38529  0.56849  1.0000
  H   H67       1.0  0.83908  0.45582  0.56835  1.0000
  H   H68       1.0  0.83017  0.31864  0.48278  1.0000
  C   C101      1.0  0.54231  0.38044  0.42618  1.0000
  C   C102      1.0  0.50374  0.33675  0.42336  1.0000
  H   H69       1.0  0.49150  0.31910  0.48226  1.0000
  C   C103      1.0  0.60362  0.44379  0.34378  1.0000
  C   C104      1.0  0.69151  0.51996  0.34076  1.0000
  C   C105      1.0  0.66964  0.50155  0.42366  1.0000
  C   C106      1.0  0.62574  0.46329  0.42632  1.0000
  C   C107      1.0  0.60498  0.44206  0.50815  1.0000
  C   C108      1.0  0.56361  0.40101  0.50809  1.0000
  H   H70       1.0  0.62075  0.45526  0.56827  1.0000
  H   H71       1.0  0.55024  0.38529  0.56816  1.0000
  H   H72       1.0  0.68736  0.51359  0.48253  1.0000
