data_image0
_chemical_formula_structural       C4H3ONCN2C4H3ONCN2C2HOC2HOC2HNC2HNH2CNCNCOCNCNCOC4HC2H3OC4HC2H3ON6CNCNCNCNCNCNCNCN5C4HC2H3OC4HC2H3OC4HC2H3C4HC2H3OC4HC2H3ON6CNCNCNCNCNCNCNCN5C4HC2H3OC4HC2H3OC4HC2H3C4HC2H3OC4H2C4HC2H3ON6CNCNCNCNCNCNCNCNCNCNCNCN7C4HC2H3OC4HC2H3OC4HC2H3OC4HC2H3OC4H2C4HC2H3ON6CNCNCNCNCNCNCNCNCNCNCNCN7C4HC2H3OC4HC2H3OC4HC2H3O
_chemical_formula_sum              "C192 H96 O24 N96"
_cell_length_a       44.7226
_cell_length_b       44.7272
_cell_length_c       14.8372
_cell_angle_alpha    90
_cell_angle_beta     90
_cell_angle_gamma    120.01

_space_group_name_H-M_alt    "P 1"
_space_group_IT_number       1

loop_
  _space_group_symop_operation_xyz
  'x, y, z'

loop_
  _atom_site_type_symbol
  _atom_site_label
  _atom_site_symmetry_multiplicity
  _atom_site_fract_x
  _atom_site_fract_y
  _atom_site_fract_z
  _atom_site_occupancy
  C   C1        1.0  0.09656  0.01945  0.29435  1.0000
  C   C2        1.0  0.07802  0.03506  0.32969  1.0000
  C   C3        1.0  0.07999  0.98820  0.24823  1.0000
  C   C4        1.0  0.07418  0.98883  0.15229  1.0000
  H   H1        1.0  0.06298  0.00514  0.13753  1.0000
  H   H2        1.0  0.05618  0.96283  0.12814  1.0000
  H   H3        1.0  0.09843  0.99874  0.11538  1.0000
  O   O1        1.0  0.08647  0.96603  0.27393  1.0000
  N   N1        1.0  0.02565  0.03872  0.33254  1.0000
  C   C5        1.0  0.04119  0.01919  0.33232  1.0000
  N   N2        1.0  0.02015  0.48422  0.33252  1.0000
  N   N3        1.0  0.09733  0.06788  0.36186  1.0000
  C   C6        1.0  0.09656  0.51945  0.29435  1.0000
  C   C7        1.0  0.07802  0.53506  0.32969  1.0000
  C   C8        1.0  0.07998  0.48820  0.24823  1.0000
  C   C9        1.0  0.07418  0.48883  0.15229  1.0000
  H   H4        1.0  0.06298  0.50514  0.13753  1.0000
  H   H5        1.0  0.05617  0.46283  0.12813  1.0000
  H   H6        1.0  0.09842  0.49874  0.11537  1.0000
  O   O2        1.0  0.08647  0.46603  0.27392  1.0000
  N   N4        1.0  0.02565  0.53872  0.33254  1.0000
  C   C10       1.0  0.04119  0.51919  0.33232  1.0000
  N   N5        1.0  0.02015  0.98422  0.33252  1.0000
  N   N6        1.0  0.09733  0.56788  0.36187  1.0000
  C   C11       1.0  0.02181  0.09469  0.24867  1.0000
  C   C12       1.0  0.02096  0.08799  0.15267  1.0000
  H   H7        1.0  0.04693  0.09606  0.12808  1.0000
  O   O3        1.0  0.04393  0.12364  0.27251  1.0000
  C   C13       1.0  0.02181  0.59469  0.24866  1.0000
  C   C14       1.0  0.02096  0.58799  0.15267  1.0000
  H   H8        1.0  0.04693  0.59606  0.12807  1.0000
  O   O4        1.0  0.04393  0.62364  0.27250  1.0000
  C   C15       1.0  0.15102  0.07186  0.33454  1.0000
  C   C16       1.0  0.13315  0.03816  0.29820  1.0000
  H   H9        1.0  0.14686  0.02763  0.27093  1.0000
  N   N7        1.0  0.13121  0.08511  0.36388  1.0000
  C   C17       1.0  0.15102  0.57186  0.33454  1.0000
  C   C18       1.0  0.13315  0.53816  0.29820  1.0000
  H   H10       1.0  0.14686  0.52763  0.27093  1.0000
  N   N8        1.0  0.13121  0.58511  0.36388  1.0000
  H   H11       1.0  0.01082  0.10209  0.11561  1.0000
  H   H12       1.0  0.01082  0.60209  0.11561  1.0000
  C   C19       1.0  0.23996  0.14586  0.33384  1.0000
  N   N9        1.0  0.20479  0.12708  0.33759  1.0000
  C   C20       1.0  0.18779  0.09170  0.33690  1.0000
  N   N10       1.0  0.20698  0.07559  0.33376  1.0000
  C   C21       1.0  0.24204  0.09385  0.33086  1.0000
  O   O5        1.0  0.24097  0.20760  0.51978  1.0000
  C   C22       1.0  0.23996  0.64586  0.33384  1.0000
  N   N11       1.0  0.20479  0.62708  0.33759  1.0000
  C   C23       1.0  0.18779  0.59170  0.33690  1.0000
  N   N12       1.0  0.20698  0.57559  0.33376  1.0000
  C   C24       1.0  0.24204  0.59385  0.33086  1.0000
  O   O6        1.0  0.24097  0.70760  0.51977  1.0000
  C   C25       1.0  0.43804  0.08196  0.33432  1.0000
  C   C26       1.0  0.47180  0.09784  0.29828  1.0000
  C   C27       1.0  0.49047  0.07993  0.29436  1.0000
  C   C28       1.0  0.47482  0.04575  0.32956  1.0000
  H   H13       1.0  0.48236  0.12210  0.27113  1.0000
  C   C29       1.0  0.52181  0.09469  0.24867  1.0000
  C   C30       1.0  0.52096  0.08799  0.15267  1.0000
  H   H14       1.0  0.50476  0.06042  0.13841  1.0000
  H   H15       1.0  0.54693  0.09606  0.12808  1.0000
  H   H16       1.0  0.51082  0.10209  0.11561  1.0000
  O   O7        1.0  0.54393  0.12364  0.27251  1.0000
  C   C31       1.0  0.42787  0.35886  0.33423  1.0000
  C   C32       1.0  0.41204  0.37674  0.29797  1.0000
  C   C33       1.0  0.42996  0.41332  0.29410  1.0000
  C   C34       1.0  0.46410  0.43185  0.32956  1.0000
  H   H17       1.0  0.38783  0.36305  0.27048  1.0000
  C   C35       1.0  0.41532  0.42992  0.24790  1.0000
  C   C36       1.0  0.42181  0.43573  0.15197  1.0000
  H   H18       1.0  0.44933  0.44692  0.13732  1.0000
  H   H19       1.0  0.41384  0.45374  0.12776  1.0000
  H   H20       1.0  0.40748  0.41149  0.11504  1.0000
  O   O8        1.0  0.38666  0.42345  0.27347  1.0000
  N   N13       1.0  0.31562  0.09054  0.25807  1.0000
  N   N14       1.0  0.28619  0.09000  0.25633  1.0000
  N   N15       1.0  0.41955  0.22800  0.25720  1.0000
  N   N16       1.0  0.42016  0.19915  0.25537  1.0000
  N   N17       1.0  0.28169  0.19429  0.25772  1.0000
  N   N18       1.0  0.31059  0.22371  0.25547  1.0000
  C   C37       1.0  0.48507  0.46867  0.33225  1.0000
  N   N19       1.0  0.47113  0.48971  0.33246  1.0000
  C   C38       1.0  0.49067  0.02479  0.33227  1.0000
  N   N20       1.0  0.25767  0.12867  0.33036  1.0000
  C   C39       1.0  0.36407  0.09695  0.33347  1.0000
  N   N21       1.0  0.38284  0.08056  0.33740  1.0000
  C   C40       1.0  0.41822  0.09891  0.33663  1.0000
  N   N22       1.0  0.43436  0.13421  0.33332  1.0000
  C   C41       1.0  0.41613  0.15103  0.33035  1.0000
  N   N23       1.0  0.38131  0.13186  0.32985  1.0000
  C   C42       1.0  0.41286  0.26991  0.33304  1.0000
  N   N24       1.0  0.42927  0.30507  0.33711  1.0000
  C   C43       1.0  0.41092  0.32209  0.33648  1.0000
  N   N25       1.0  0.37561  0.30292  0.33319  1.0000
  C   C44       1.0  0.35878  0.26787  0.33000  1.0000
  N   N26       1.0  0.37795  0.25223  0.32937  1.0000
  N   N27       1.0  0.44197  0.03223  0.36154  1.0000
  N   N28       1.0  0.42475  0.04889  0.36351  1.0000
  N   N29       1.0  0.47758  0.41253  0.36176  1.0000
  N   N30       1.0  0.46091  0.37864  0.36369  1.0000
  C   C45       1.0  0.26412  0.07989  0.32733  1.0000
  C   C46       1.0  0.27446  0.07000  0.40651  1.0000
  C   C47       1.0  0.30664  0.07083  0.40948  1.0000
  C   C48       1.0  0.32766  0.08134  0.33093  1.0000
  H   H21       1.0  0.26039  0.06576  0.46440  1.0000
  C   C49       1.0  0.31889  0.06525  0.49007  1.0000
  C   C50       1.0  0.33236  0.09222  0.55782  1.0000
  H   H22       1.0  0.35045  0.11714  0.52788  1.0000
  H   H23       1.0  0.34622  0.08656  0.60961  1.0000
  H   H24       1.0  0.31143  0.09417  0.58992  1.0000
  O   O9        1.0  0.30227  0.03567  0.51869  1.0000
  C   C51       1.0  0.43005  0.18706  0.32647  1.0000
  C   C52       1.0  0.43983  0.20723  0.40579  1.0000
  C   C53       1.0  0.43879  0.23848  0.40898  1.0000
  C   C54       1.0  0.42838  0.24905  0.33031  1.0000
  H   H25       1.0  0.44382  0.19728  0.46381  1.0000
  C   C55       1.0  0.44420  0.25618  0.48983  1.0000
  C   C56       1.0  0.41657  0.24224  0.55587  1.0000
  H   H26       1.0  0.39194  0.23583  0.52471  1.0000
  H   H27       1.0  0.42191  0.26134  0.60858  1.0000
  H   H28       1.0  0.41414  0.21902  0.58710  1.0000
  O   O10       1.0  0.47353  0.26877  0.51988  1.0000
  C   C57       1.0  0.32272  0.24574  0.32644  1.0000
  C   C58       1.0  0.30274  0.23557  0.40605  1.0000
  C   C59       1.0  0.27145  0.20332  0.40957  1.0000
  C   C60       1.0  0.26070  0.18228  0.33106  1.0000
  H   H29       1.0  0.31282  0.24957  0.46393  1.0000
  C   C61       1.0  0.25393  0.19107  0.49056  1.0000
  C   C62       1.0  0.26774  0.17770  0.55771  1.0000
  H   H30       1.0  0.27456  0.15968  0.52734  1.0000
  H   H31       1.0  0.24841  0.16380  0.60991  1.0000
  H   H32       1.0  0.29069  0.19868  0.58940  1.0000
  C   C63       1.0  0.43804  0.58196  0.33432  1.0000
  C   C64       1.0  0.47180  0.59784  0.29828  1.0000
  C   C65       1.0  0.49047  0.57993  0.29436  1.0000
  C   C66       1.0  0.47482  0.54575  0.32956  1.0000
  H   H33       1.0  0.48236  0.62210  0.27113  1.0000
  C   C67       1.0  0.52181  0.59469  0.24866  1.0000
  C   C68       1.0  0.52096  0.58799  0.15267  1.0000
  H   H34       1.0  0.50476  0.56042  0.13841  1.0000
  H   H35       1.0  0.54693  0.59606  0.12807  1.0000
  H   H36       1.0  0.51082  0.60209  0.11561  1.0000
  O   O11       1.0  0.54393  0.62364  0.27250  1.0000
  C   C69       1.0  0.42787  0.85886  0.33424  1.0000
  C   C70       1.0  0.41204  0.87674  0.29797  1.0000
  C   C71       1.0  0.42996  0.91333  0.29410  1.0000
  C   C72       1.0  0.46410  0.93185  0.32956  1.0000
  H   H37       1.0  0.38784  0.86305  0.27048  1.0000
  C   C73       1.0  0.41532  0.92992  0.24789  1.0000
  C   C74       1.0  0.42181  0.93573  0.15197  1.0000
  H   H38       1.0  0.44933  0.94692  0.13732  1.0000
  H   H39       1.0  0.41384  0.95374  0.12775  1.0000
  H   H40       1.0  0.40748  0.91149  0.11504  1.0000
  O   O12       1.0  0.38666  0.92345  0.27347  1.0000
  N   N31       1.0  0.31562  0.59054  0.25807  1.0000
  N   N32       1.0  0.28619  0.59000  0.25633  1.0000
  N   N33       1.0  0.41954  0.72799  0.25720  1.0000
  N   N34       1.0  0.42016  0.69915  0.25538  1.0000
  N   N35       1.0  0.28169  0.69429  0.25773  1.0000
  N   N36       1.0  0.31059  0.72371  0.25548  1.0000
  C   C75       1.0  0.48507  0.96867  0.33225  1.0000
  N   N37       1.0  0.47113  0.98971  0.33246  1.0000
  C   C76       1.0  0.49067  0.52479  0.33227  1.0000
  N   N38       1.0  0.25767  0.62867  0.33036  1.0000
  C   C77       1.0  0.36408  0.59695  0.33347  1.0000
  N   N39       1.0  0.38284  0.58056  0.33741  1.0000
  C   C78       1.0  0.41822  0.59891  0.33663  1.0000
  N   N40       1.0  0.43436  0.63421  0.33332  1.0000
  C   C79       1.0  0.41613  0.65103  0.33035  1.0000
  N   N41       1.0  0.38131  0.63186  0.32985  1.0000
  C   C80       1.0  0.41286  0.76991  0.33304  1.0000
  N   N42       1.0  0.42927  0.80507  0.33711  1.0000
  C   C81       1.0  0.41092  0.82209  0.33648  1.0000
  N   N43       1.0  0.37561  0.80292  0.33319  1.0000
  C   C82       1.0  0.35879  0.76787  0.33000  1.0000
  N   N44       1.0  0.37795  0.75223  0.32937  1.0000
  N   N45       1.0  0.44197  0.53223  0.36154  1.0000
  N   N46       1.0  0.42475  0.54889  0.36351  1.0000
  N   N47       1.0  0.47758  0.91253  0.36176  1.0000
  N   N48       1.0  0.46091  0.87864  0.36370  1.0000
  C   C83       1.0  0.26412  0.57989  0.32733  1.0000
  C   C84       1.0  0.27446  0.57000  0.40651  1.0000
  C   C85       1.0  0.30665  0.57083  0.40948  1.0000
  C   C86       1.0  0.32766  0.58134  0.33093  1.0000
  H   H41       1.0  0.26039  0.56576  0.46440  1.0000
  C   C87       1.0  0.31889  0.56525  0.49007  1.0000
  C   C88       1.0  0.33236  0.59222  0.55782  1.0000
  H   H42       1.0  0.35045  0.61714  0.52788  1.0000
  H   H43       1.0  0.34622  0.58656  0.60961  1.0000
  H   H44       1.0  0.31143  0.59417  0.58992  1.0000
  O   O13       1.0  0.30227  0.53567  0.51869  1.0000
  C   C89       1.0  0.43005  0.68706  0.32647  1.0000
  C   C90       1.0  0.43983  0.70723  0.40579  1.0000
  C   C91       1.0  0.43879  0.73847  0.40898  1.0000
  C   C92       1.0  0.42838  0.74905  0.33031  1.0000
  H   H45       1.0  0.44382  0.69728  0.46381  1.0000
  C   C93       1.0  0.44420  0.75618  0.48983  1.0000
  C   C94       1.0  0.41657  0.74224  0.55587  1.0000
  H   H46       1.0  0.39194  0.73583  0.52471  1.0000
  H   H47       1.0  0.42191  0.76134  0.60857  1.0000
  H   H48       1.0  0.41414  0.71903  0.58710  1.0000
  O   O14       1.0  0.47353  0.76877  0.51988  1.0000
  C   C95       1.0  0.32272  0.74575  0.32644  1.0000
  C   C96       1.0  0.30274  0.73557  0.40605  1.0000
  C   C97       1.0  0.27145  0.70332  0.40957  1.0000
  C   C98       1.0  0.26070  0.68228  0.33106  1.0000
  H   H49       1.0  0.31282  0.74957  0.46393  1.0000
  C   C99       1.0  0.25393  0.69107  0.49056  1.0000
  C   C100      1.0  0.26774  0.67770  0.55772  1.0000
  H   H50       1.0  0.27457  0.65968  0.52734  1.0000
  H   H51       1.0  0.24841  0.66380  0.60991  1.0000
  H   H52       1.0  0.29069  0.69868  0.58940  1.0000
  C   C101      1.0  0.65102  0.07186  0.33454  1.0000
  C   C102      1.0  0.63315  0.03816  0.29820  1.0000
  C   C103      1.0  0.59656  0.01945  0.29435  1.0000
  C   C104      1.0  0.57802  0.03506  0.32969  1.0000
  H   H53       1.0  0.64686  0.02763  0.27093  1.0000
  C   C105      1.0  0.57999  0.98820  0.24823  1.0000
  C   C106      1.0  0.57418  0.98883  0.15229  1.0000
  H   H54       1.0  0.56298  0.00514  0.13753  1.0000
  H   H55       1.0  0.55618  0.96283  0.12814  1.0000
  H   H56       1.0  0.59842  0.99874  0.11538  1.0000
  O   O15       1.0  0.58647  0.96603  0.27393  1.0000
  C   C107      1.0  0.93804  0.08196  0.33432  1.0000
  C   C108      1.0  0.97180  0.09784  0.29828  1.0000
  C   C109      1.0  0.99047  0.07993  0.29436  1.0000
  C   C110      1.0  0.97482  0.04575  0.32956  1.0000
  H   H57       1.0  0.98236  0.12210  0.27113  1.0000
  H   H58       1.0  0.00476  0.06042  0.13841  1.0000
  C   C111      1.0  0.92787  0.35886  0.33423  1.0000
  C   C112      1.0  0.91204  0.37674  0.29797  1.0000
  C   C113      1.0  0.92996  0.41332  0.29410  1.0000
  C   C114      1.0  0.96410  0.43185  0.32956  1.0000
  H   H59       1.0  0.88784  0.36305  0.27048  1.0000
  C   C115      1.0  0.91532  0.42992  0.24790  1.0000
  C   C116      1.0  0.92181  0.43573  0.15197  1.0000
  H   H60       1.0  0.94933  0.44692  0.13732  1.0000
  H   H61       1.0  0.91384  0.45374  0.12776  1.0000
  H   H62       1.0  0.90748  0.41149  0.11504  1.0000
  O   O16       1.0  0.88666  0.42345  0.27347  1.0000
  N   N49       1.0  0.81562  0.09054  0.25807  1.0000
  N   N50       1.0  0.78619  0.09000  0.25633  1.0000
  N   N51       1.0  0.91955  0.22800  0.25720  1.0000
  N   N52       1.0  0.92016  0.19915  0.25537  1.0000
  N   N53       1.0  0.78169  0.19429  0.25772  1.0000
  N   N54       1.0  0.81059  0.22371  0.25547  1.0000
  C   C117      1.0  0.98507  0.46867  0.33225  1.0000
  N   N55       1.0  0.97113  0.48971  0.33246  1.0000
  C   C118      1.0  0.99067  0.02479  0.33227  1.0000
  N   N56       1.0  0.52565  0.03872  0.33254  1.0000
  C   C119      1.0  0.54119  0.01919  0.33232  1.0000
  N   N57       1.0  0.52015  0.48422  0.33252  1.0000
  C   C120      1.0  0.73996  0.14586  0.33384  1.0000
  N   N58       1.0  0.70480  0.12708  0.33759  1.0000
  C   C121      1.0  0.68779  0.09170  0.33690  1.0000
  N   N59       1.0  0.70698  0.07559  0.33376  1.0000
  C   C122      1.0  0.74204  0.09385  0.33086  1.0000
  N   N60       1.0  0.75767  0.12867  0.33036  1.0000
  C   C123      1.0  0.86408  0.09695  0.33347  1.0000
  N   N61       1.0  0.88284  0.08056  0.33740  1.0000
  C   C124      1.0  0.91822  0.09891  0.33663  1.0000
  N   N62       1.0  0.93436  0.13421  0.33332  1.0000
  C   C125      1.0  0.91613  0.15103  0.33035  1.0000
  N   N63       1.0  0.88131  0.13186  0.32985  1.0000
  C   C126      1.0  0.91286  0.26991  0.33304  1.0000
  N   N64       1.0  0.92927  0.30507  0.33711  1.0000
  C   C127      1.0  0.91092  0.32209  0.33648  1.0000
  N   N65       1.0  0.87561  0.30292  0.33319  1.0000
  C   C128      1.0  0.85879  0.26787  0.33000  1.0000
  N   N66       1.0  0.87795  0.25223  0.32937  1.0000
  N   N67       1.0  0.59733  0.06788  0.36186  1.0000
  N   N68       1.0  0.63121  0.08511  0.36388  1.0000
  N   N69       1.0  0.94197  0.03223  0.36154  1.0000
  N   N70       1.0  0.92475  0.04889  0.36351  1.0000
  N   N71       1.0  0.97758  0.41253  0.36176  1.0000
  N   N72       1.0  0.96091  0.37864  0.36369  1.0000
  C   C129      1.0  0.76413  0.07989  0.32733  1.0000
  C   C130      1.0  0.77446  0.07000  0.40651  1.0000
  C   C131      1.0  0.80665  0.07083  0.40948  1.0000
  C   C132      1.0  0.82766  0.08134  0.33093  1.0000
  H   H63       1.0  0.76039  0.06576  0.46440  1.0000
  C   C133      1.0  0.81889  0.06525  0.49007  1.0000
  C   C134      1.0  0.83236  0.09222  0.55782  1.0000
  H   H64       1.0  0.85045  0.11714  0.52788  1.0000
  H   H65       1.0  0.84622  0.08656  0.60961  1.0000
  H   H66       1.0  0.81144  0.09417  0.58992  1.0000
  O   O17       1.0  0.80227  0.03567  0.51869  1.0000
  C   C135      1.0  0.93005  0.18706  0.32647  1.0000
  C   C136      1.0  0.93983  0.20723  0.40579  1.0000
  C   C137      1.0  0.93879  0.23848  0.40898  1.0000
  C   C138      1.0  0.92838  0.24905  0.33031  1.0000
  H   H67       1.0  0.94382  0.19728  0.46381  1.0000
  C   C139      1.0  0.94420  0.25618  0.48983  1.0000
  C   C140      1.0  0.91657  0.24224  0.55587  1.0000
  H   H68       1.0  0.89194  0.23583  0.52471  1.0000
  H   H69       1.0  0.92191  0.26134  0.60858  1.0000
  H   H70       1.0  0.91415  0.21902  0.58710  1.0000
  O   O18       1.0  0.97353  0.26877  0.51988  1.0000
  C   C141      1.0  0.82272  0.24574  0.32644  1.0000
  C   C142      1.0  0.80274  0.23557  0.40605  1.0000
  C   C143      1.0  0.77145  0.20332  0.40957  1.0000
  C   C144      1.0  0.76070  0.18228  0.33106  1.0000
  H   H71       1.0  0.81283  0.24957  0.46393  1.0000
  C   C145      1.0  0.75393  0.19107  0.49056  1.0000
  C   C146      1.0  0.76774  0.17770  0.55771  1.0000
  H   H72       1.0  0.77457  0.15968  0.52734  1.0000
  H   H73       1.0  0.74841  0.16380  0.60991  1.0000
  H   H74       1.0  0.79069  0.19868  0.58940  1.0000
  O   O19       1.0  0.74098  0.20760  0.51978  1.0000
  C   C147      1.0  0.65102  0.57186  0.33454  1.0000
  C   C148      1.0  0.63315  0.53816  0.29820  1.0000
  C   C149      1.0  0.59656  0.51945  0.29435  1.0000
  C   C150      1.0  0.57802  0.53506  0.32969  1.0000
  H   H75       1.0  0.64686  0.52763  0.27093  1.0000
  C   C151      1.0  0.57999  0.48820  0.24823  1.0000
  C   C152      1.0  0.57418  0.48883  0.15229  1.0000
  H   H76       1.0  0.56298  0.50514  0.13753  1.0000
  H   H77       1.0  0.55617  0.46283  0.12813  1.0000
  H   H78       1.0  0.59842  0.49874  0.11537  1.0000
  O   O20       1.0  0.58647  0.46603  0.27392  1.0000
  C   C153      1.0  0.93804  0.58196  0.33432  1.0000
  C   C154      1.0  0.97180  0.59784  0.29828  1.0000
  C   C155      1.0  0.99047  0.57993  0.29436  1.0000
  C   C156      1.0  0.97482  0.54575  0.32956  1.0000
  H   H79       1.0  0.98236  0.62210  0.27113  1.0000
  H   H80       1.0  0.00476  0.56042  0.13841  1.0000
  C   C157      1.0  0.92787  0.85886  0.33424  1.0000
  C   C158      1.0  0.91204  0.87674  0.29797  1.0000
  C   C159      1.0  0.92996  0.91333  0.29410  1.0000
  C   C160      1.0  0.96410  0.93185  0.32956  1.0000
  H   H81       1.0  0.88784  0.86305  0.27048  1.0000
  C   C161      1.0  0.91532  0.92992  0.24789  1.0000
  C   C162      1.0  0.92181  0.93573  0.15197  1.0000
  H   H82       1.0  0.94933  0.94692  0.13732  1.0000
  H   H83       1.0  0.91384  0.95374  0.12775  1.0000
  H   H84       1.0  0.90748  0.91149  0.11504  1.0000
  O   O21       1.0  0.88666  0.92345  0.27347  1.0000
  N   N73       1.0  0.81562  0.59054  0.25807  1.0000
  N   N74       1.0  0.78619  0.59000  0.25633  1.0000
  N   N75       1.0  0.91954  0.72799  0.25720  1.0000
  N   N76       1.0  0.92016  0.69915  0.25538  1.0000
  N   N77       1.0  0.78169  0.69429  0.25773  1.0000
  N   N78       1.0  0.81059  0.72371  0.25548  1.0000
  C   C163      1.0  0.98507  0.96867  0.33225  1.0000
  N   N79       1.0  0.97113  0.98971  0.33246  1.0000
  C   C164      1.0  0.99067  0.52479  0.33227  1.0000
  N   N80       1.0  0.52565  0.53872  0.33254  1.0000
  C   C165      1.0  0.54119  0.51919  0.33232  1.0000
  N   N81       1.0  0.52015  0.98422  0.33252  1.0000
  C   C166      1.0  0.73996  0.64586  0.33384  1.0000
  N   N82       1.0  0.70480  0.62708  0.33759  1.0000
  C   C167      1.0  0.68779  0.59170  0.33690  1.0000
  N   N83       1.0  0.70698  0.57559  0.33376  1.0000
  C   C168      1.0  0.74204  0.59385  0.33086  1.0000
  N   N84       1.0  0.75767  0.62867  0.33036  1.0000
  C   C169      1.0  0.86408  0.59695  0.33347  1.0000
  N   N85       1.0  0.88284  0.58056  0.33741  1.0000
  C   C170      1.0  0.91822  0.59891  0.33663  1.0000
  N   N86       1.0  0.93436  0.63421  0.33332  1.0000
  C   C171      1.0  0.91613  0.65103  0.33035  1.0000
  N   N87       1.0  0.88131  0.63186  0.32985  1.0000
  C   C172      1.0  0.91286  0.76991  0.33304  1.0000
  N   N88       1.0  0.92927  0.80507  0.33711  1.0000
  C   C173      1.0  0.91092  0.82209  0.33648  1.0000
  N   N89       1.0  0.87561  0.80292  0.33319  1.0000
  C   C174      1.0  0.85879  0.76787  0.33000  1.0000
  N   N90       1.0  0.87795  0.75223  0.32937  1.0000
  N   N91       1.0  0.59733  0.56788  0.36187  1.0000
  N   N92       1.0  0.63122  0.58511  0.36388  1.0000
  N   N93       1.0  0.94197  0.53223  0.36154  1.0000
  N   N94       1.0  0.92475  0.54889  0.36351  1.0000
  N   N95       1.0  0.97758  0.91253  0.36176  1.0000
  N   N96       1.0  0.96091  0.87864  0.36370  1.0000
  C   C175      1.0  0.76413  0.57989  0.32733  1.0000
  C   C176      1.0  0.77446  0.57000  0.40651  1.0000
  C   C177      1.0  0.80665  0.57083  0.40948  1.0000
  C   C178      1.0  0.82766  0.58134  0.33093  1.0000
  H   H85       1.0  0.76039  0.56576  0.46440  1.0000
  C   C179      1.0  0.81889  0.56525  0.49007  1.0000
  C   C180      1.0  0.83236  0.59222  0.55782  1.0000
  H   H86       1.0  0.85045  0.61714  0.52788  1.0000
  H   H87       1.0  0.84622  0.58656  0.60961  1.0000
  H   H88       1.0  0.81144  0.59417  0.58992  1.0000
  O   O22       1.0  0.80227  0.53567  0.51869  1.0000
  C   C181      1.0  0.93005  0.68706  0.32647  1.0000
  C   C182      1.0  0.93983  0.70723  0.40579  1.0000
  C   C183      1.0  0.93879  0.73847  0.40898  1.0000
  C   C184      1.0  0.92838  0.74905  0.33031  1.0000
  H   H89       1.0  0.94382  0.69728  0.46381  1.0000
  C   C185      1.0  0.94420  0.75618  0.48983  1.0000
  C   C186      1.0  0.91657  0.74224  0.55587  1.0000
  H   H90       1.0  0.89194  0.73583  0.52471  1.0000
  H   H91       1.0  0.92191  0.76134  0.60857  1.0000
  H   H92       1.0  0.91415  0.71903  0.58710  1.0000
  O   O23       1.0  0.97353  0.76877  0.51988  1.0000
  C   C187      1.0  0.82272  0.74575  0.32644  1.0000
  C   C188      1.0  0.80274  0.73557  0.40605  1.0000
  C   C189      1.0  0.77145  0.70332  0.40957  1.0000
  C   C190      1.0  0.76070  0.68228  0.33106  1.0000
  H   H93       1.0  0.81283  0.74957  0.46393  1.0000
  C   C191      1.0  0.75393  0.69107  0.49056  1.0000
  C   C192      1.0  0.76774  0.67770  0.55772  1.0000
  H   H94       1.0  0.77457  0.65968  0.52734  1.0000
  H   H95       1.0  0.74841  0.66380  0.60991  1.0000
  H   H96       1.0  0.79069  0.69868  0.58940  1.0000
  O   O24       1.0  0.74098  0.70760  0.51977  1.0000
