data_image0
_chemical_formula_structural       C4HNHO2C2HNH2C2NO2HC6H2C2NO2CHC2HNH2C3HNHC2HC3HNHC3HC4HN2H2O2C3HC4HN2H2O2C2HNH2C5H2NH2NO2C3HNO2C5H2NH2NO2C5H2NH2NO2C5H2NH2NO2C6H3C6H3C6H3C6H3C6H3C3HNO2C5H2NH2NO2C5H2NH2NO2C4HNHO2C3HC4HN2H2O2C3HNH2C3HC4HN2H2O2C3HC4HN2H2O2C3HC4HN2H2O2
_chemical_formula_sum              "C144 H90 N36 O36"
_cell_length_a       46.9363
_cell_length_b       46.9363
_cell_length_c       14.8238
_cell_angle_alpha    90
_cell_angle_beta     90
_cell_angle_gamma    120

_space_group_name_H-M_alt    "P 1"
_space_group_IT_number       1

loop_
  _space_group_symop_operation_xyz
  'x, y, z'

loop_
  _atom_site_type_symbol
  _atom_site_label
  _atom_site_symmetry_multiplicity
  _atom_site_fract_x
  _atom_site_fract_y
  _atom_site_fract_z
  _atom_site_occupancy
  C   C1        1.0  0.02715  0.51372  0.34324  1.0000
  C   C2        1.0  0.09845  0.55099  0.34658  1.0000
  C   C3        1.0  0.08065  0.54866  0.26648  1.0000
  C   C4        1.0  0.04569  0.53061  0.26628  1.0000
  H   H1        1.0  0.03355  0.52964  0.20794  1.0000
  N   N1        1.0  0.09820  0.56396  0.18644  1.0000
  H   H2        1.0  0.01026  0.46658  0.21762  1.0000
  O   O1        1.0  0.09229  0.54329  0.12495  1.0000
  O   O2        1.0  0.09151  0.58516  0.15806  1.0000
  C   C5        1.0  0.04521  0.51662  0.42250  1.0000
  C   C6        1.0  0.08020  0.53488  0.42601  1.0000
  H   H3        1.0  0.03243  0.50484  0.47957  1.0000
  N   N2        1.0  0.09501  0.53680  0.50660  1.0000
  H   H4        1.0  0.08219  0.52607  0.56041  1.0000
  H   H5        1.0  0.11867  0.54987  0.51437  1.0000
  C   C7        1.0  0.20830  0.55669  0.36273  1.0000
  C   C8        1.0  0.21102  0.53741  0.29334  1.0000
  N   N3        1.0  0.18766  0.52571  0.22250  1.0000
  O   O3        1.0  0.20091  0.53754  0.14767  1.0000
  O   O4        1.0  0.17304  0.49487  0.21749  1.0000
  H   H6        1.0  0.20232  0.63522  0.16278  1.0000
  C   C9        1.0  0.18760  0.57099  0.35359  1.0000
  C   C10       1.0  0.20346  0.60547  0.34309  1.0000
  C   C11       1.0  0.18602  0.62258  0.33491  1.0000
  C   C12       1.0  0.15120  0.60423  0.33749  1.0000
  C   C13       1.0  0.13399  0.56936  0.34578  1.0000
  C   C14       1.0  0.15270  0.55316  0.35310  1.0000
  H   H7        1.0  0.13829  0.61645  0.33295  1.0000
  H   H8        1.0  0.14077  0.52811  0.35986  1.0000
  C   C15       1.0  0.20537  0.65774  0.32924  1.0000
  C   C16       1.0  0.21170  0.67636  0.40997  1.0000
  N   N4        1.0  0.19171  0.66151  0.48684  1.0000
  O   O5        1.0  0.20790  0.65884  0.55060  1.0000
  O   O6        1.0  0.17851  0.67753  0.51396  1.0000
  C   C17       1.0  0.23814  0.53190  0.29303  1.0000
  H   H9        1.0  0.23992  0.51846  0.24117  1.0000
  C   C18       1.0  0.25497  0.70408  0.26320  1.0000
  C   C19       1.0  0.22676  0.67246  0.25383  1.0000
  H   H10       1.0  0.27150  0.71323  0.21111  1.0000
  N   N5        1.0  0.22187  0.65639  0.17378  1.0000
  H   H11       1.0  0.23654  0.66668  0.12268  1.0000
  H   H12       1.0  0.22871  0.61871  0.34188  1.0000
  C   C20       1.0  0.26391  0.54644  0.35733  1.0000
  C   C21       1.0  0.26117  0.56586  0.42731  1.0000
  C   C22       1.0  0.23279  0.56920  0.43071  1.0000
  H   H13       1.0  0.23168  0.58429  0.47893  1.0000
  N   N6        1.0  0.28560  0.58374  0.48783  1.0000
  H   H14       1.0  0.28341  0.59781  0.53229  1.0000
  C   C23       1.0  0.26269  0.72196  0.34488  1.0000
  C   C24       1.0  0.23939  0.70853  0.41538  1.0000
  H   H15       1.0  0.24430  0.72090  0.47541  1.0000
  C   C25       1.0  0.99148  0.49514  0.34173  1.0000
  C   C26       1.0  0.97267  0.46955  0.27848  1.0000
  C   C27       1.0  0.93770  0.45354  0.28060  1.0000
  H   H16       1.0  0.92471  0.43560  0.23375  1.0000
  N   N7        1.0  0.98682  0.45868  0.21756  1.0000
  H   H17       1.0  0.97355  0.44063  0.17649  1.0000
  C   C28       1.0  0.51970  0.49930  0.34179  1.0000
  C   C29       1.0  0.54529  0.50608  0.27851  1.0000
  C   C30       1.0  0.56129  0.48712  0.28059  1.0000
  H   H18       1.0  0.57922  0.49206  0.23370  1.0000
  C   C31       1.0  0.50111  0.51638  0.34330  1.0000
  C   C32       1.0  0.46384  0.55041  0.34662  1.0000
  C   C33       1.0  0.46620  0.53496  0.26650  1.0000
  C   C34       1.0  0.48424  0.51805  0.26631  1.0000
  H   H19       1.0  0.48524  0.50691  0.20795  1.0000
  N   N8        1.0  0.45093  0.53725  0.18643  1.0000
  N   N9        1.0  0.55610  0.53107  0.21749  1.0000
  H   H20       1.0  0.57429  0.53597  0.17684  1.0000
  H   H21       1.0  0.54836  0.54674  0.21809  1.0000
  O   O7        1.0  0.47162  0.55203  0.12501  1.0000
  O   O8        1.0  0.42973  0.50936  0.15797  1.0000
  C   C35       1.0  0.51555  0.02336  0.34173  1.0000
  C   C36       1.0  0.50878  0.04217  0.27849  1.0000
  C   C37       1.0  0.52773  0.07714  0.28061  1.0000
  H   H22       1.0  0.52277  0.09013  0.23376  1.0000
  C   C38       1.0  0.49846  0.98769  0.34325  1.0000
  C   C39       1.0  0.46443  0.91639  0.34660  1.0000
  C   C40       1.0  0.47990  0.93419  0.26648  1.0000
  C   C41       1.0  0.49682  0.96915  0.26628  1.0000
  H   H23       1.0  0.50798  0.98129  0.20795  1.0000
  N   N10       1.0  0.47764  0.91664  0.18644  1.0000
  N   N11       1.0  0.48375  0.02802  0.21757  1.0000
  H   H24       1.0  0.47896  0.04128  0.17650  1.0000
  H   H25       1.0  0.46820  0.00458  0.21763  1.0000
  O   O9        1.0  0.46288  0.92255  0.12496  1.0000
  O   O10       1.0  0.50554  0.92333  0.15806  1.0000
  C   C42       1.0  0.31080  0.55391  0.26308  1.0000
  C   C43       1.0  0.34242  0.55732  0.25369  1.0000
  H   H26       1.0  0.30165  0.56130  0.21099  1.0000
  N   N12       1.0  0.35850  0.56850  0.17364  1.0000
  H   H27       1.0  0.34821  0.57289  0.12255  1.0000
  H   H28       1.0  0.37967  0.57012  0.16266  1.0000
  C   C44       1.0  0.45825  0.65461  0.36269  1.0000
  C   C45       1.0  0.47750  0.67661  0.29332  1.0000
  C   C46       1.0  0.48294  0.70922  0.29296  1.0000
  C   C47       1.0  0.46088  0.75984  0.26318  1.0000
  C   C48       1.0  0.45751  0.78808  0.25375  1.0000
  H   H29       1.0  0.45353  0.74332  0.21107  1.0000
  H   H30       1.0  0.49642  0.72448  0.24119  1.0000
  N   N13       1.0  0.44632  0.79296  0.17371  1.0000
  H   H31       1.0  0.44180  0.77822  0.12273  1.0000
  H   H32       1.0  0.44463  0.81248  0.16276  1.0000
  N   N14       1.0  0.48922  0.66498  0.22251  1.0000
  O   O11       1.0  0.47738  0.66636  0.14767  1.0000
  O   O12       1.0  0.52006  0.68123  0.21749  1.0000
  C   C49       1.0  0.36026  0.80656  0.36281  1.0000
  C   C50       1.0  0.33827  0.80385  0.29343  1.0000
  C   C51       1.0  0.30564  0.77674  0.29311  1.0000
  H   H33       1.0  0.29041  0.77496  0.24125  1.0000
  N   N15       1.0  0.34993  0.82720  0.22257  1.0000
  O   O13       1.0  0.34851  0.81395  0.14775  1.0000
  O   O14       1.0  0.33373  0.84184  0.21754  1.0000
  C   C52       1.0  0.80962  0.45520  0.36122  1.0000
  C   C53       1.0  0.80679  0.47438  0.29182  1.0000
  C   C54       1.0  0.77970  0.47993  0.29193  1.0000
  C   C55       1.0  0.70707  0.45801  0.26312  1.0000
  C   C56       1.0  0.67546  0.45463  0.25394  1.0000
  H   H34       1.0  0.71619  0.45064  0.21091  1.0000
  H   H35       1.0  0.77783  0.49335  0.24011  1.0000
  N   N16       1.0  0.65933  0.44344  0.17397  1.0000
  H   H36       1.0  0.66954  0.43893  0.12289  1.0000
  H   H37       1.0  0.63812  0.44173  0.16314  1.0000
  N   N17       1.0  0.82996  0.48592  0.22056  1.0000
  O   O15       1.0  0.81652  0.47398  0.14601  1.0000
  O   O16       1.0  0.84463  0.51675  0.21519  1.0000
  C   C57       1.0  0.55969  0.35741  0.36126  1.0000
  C   C58       1.0  0.54050  0.33540  0.29182  1.0000
  C   C59       1.0  0.53490  0.30274  0.29198  1.0000
  C   C60       1.0  0.55677  0.25201  0.26306  1.0000
  C   C61       1.0  0.56018  0.22379  0.25396  1.0000
  H   H38       1.0  0.56417  0.26850  0.21087  1.0000
  H   H39       1.0  0.52153  0.28749  0.24007  1.0000
  N   N18       1.0  0.57137  0.21886  0.17396  1.0000
  H   H40       1.0  0.57573  0.23349  0.12277  1.0000
  H   H41       1.0  0.57299  0.19930  0.16309  1.0000
  N   N19       1.0  0.52899  0.34705  0.22051  1.0000
  O   O17       1.0  0.54094  0.34553  0.14599  1.0000
  O   O18       1.0  0.49817  0.33092  0.21510  1.0000
  C   C62       1.0  0.65746  0.20523  0.36116  1.0000
  C   C63       1.0  0.67949  0.20807  0.29177  1.0000
  C   C64       1.0  0.71212  0.23516  0.29188  1.0000
  C   C65       1.0  0.76283  0.30780  0.26311  1.0000
  C   C66       1.0  0.79106  0.33940  0.25396  1.0000
  H   H42       1.0  0.74634  0.29868  0.21090  1.0000
  H   H43       1.0  0.72740  0.23703  0.24007  1.0000
  N   N20       1.0  0.79599  0.35554  0.17400  1.0000
  H   H44       1.0  0.78129  0.34534  0.12291  1.0000
  H   H45       1.0  0.81551  0.37676  0.16318  1.0000
  N   N21       1.0  0.66785  0.18489  0.22050  1.0000
  O   O19       1.0  0.66935  0.19833  0.14595  1.0000
  O   O20       1.0  0.68402  0.17023  0.21513  1.0000
  C   C67       1.0  0.44389  0.61959  0.35361  1.0000
  C   C68       1.0  0.40941  0.60099  0.34300  1.0000
  C   C69       1.0  0.39228  0.56643  0.33485  1.0000
  C   C70       1.0  0.41062  0.54995  0.33746  1.0000
  C   C71       1.0  0.44549  0.56760  0.34580  1.0000
  C   C72       1.0  0.46170  0.60250  0.35315  1.0000
  H   H46       1.0  0.39839  0.52483  0.33290  1.0000
  H   H47       1.0  0.48675  0.61561  0.35993  1.0000
  H   H48       1.0  0.39619  0.61302  0.34172  1.0000
  C   C73       1.0  0.39527  0.82726  0.35368  1.0000
  C   C74       1.0  0.41388  0.81138  0.34313  1.0000
  C   C75       1.0  0.44843  0.82882  0.33488  1.0000
  C   C76       1.0  0.46489  0.86363  0.33748  1.0000
  C   C77       1.0  0.44725  0.88085  0.34579  1.0000
  C   C78       1.0  0.41235  0.86216  0.35314  1.0000
  H   H49       1.0  0.49002  0.87653  0.33289  1.0000
  H   H50       1.0  0.39923  0.87409  0.35991  1.0000
  H   H51       1.0  0.40185  0.78613  0.34196  1.0000
  C   C79       1.0  0.83026  0.44081  0.35221  1.0000
  C   C80       1.0  0.81434  0.40630  0.34315  1.0000
  C   C81       1.0  0.83175  0.38917  0.33534  1.0000
  C   C82       1.0  0.86657  0.40754  0.33776  1.0000
  C   C83       1.0  0.88412  0.44255  0.34447  1.0000
  C   C84       1.0  0.86515  0.45858  0.35025  1.0000
  H   H52       1.0  0.87922  0.39505  0.33464  1.0000
  H   H53       1.0  0.87684  0.48369  0.35367  1.0000
  H   H54       1.0  0.78909  0.39307  0.34236  1.0000
  C   C85       1.0  0.57406  0.39243  0.35221  1.0000
  C   C86       1.0  0.60857  0.41103  0.34315  1.0000
  C   C87       1.0  0.62568  0.44556  0.33527  1.0000
  C   C88       1.0  0.60731  0.46200  0.33773  1.0000
  C   C89       1.0  0.57231  0.44455  0.34446  1.0000
  C   C90       1.0  0.55628  0.40955  0.35025  1.0000
  H   H55       1.0  0.61980  0.48715  0.33461  1.0000
  H   H56       1.0  0.53117  0.39613  0.35369  1.0000
  H   H57       1.0  0.62180  0.39900  0.34239  1.0000
  C   C91       1.0  0.62243  0.18458  0.35214  1.0000
  C   C92       1.0  0.60384  0.20050  0.34303  1.0000
  C   C93       1.0  0.56931  0.18309  0.33524  1.0000
  C   C94       1.0  0.55286  0.14828  0.33775  1.0000
  C   C95       1.0  0.57032  0.13073  0.34445  1.0000
  C   C96       1.0  0.60532  0.14969  0.35021  1.0000
  H   H58       1.0  0.52771  0.13562  0.33468  1.0000
  H   H59       1.0  0.61873  0.13800  0.35364  1.0000
  H   H60       1.0  0.61587  0.22576  0.34222  1.0000
  C   C97       1.0  0.91987  0.46087  0.34480  1.0000
  C   C98       1.0  0.93877  0.48582  0.40900  1.0000
  C   C99       1.0  0.97373  0.50247  0.40609  1.0000
  H   H61       1.0  0.98649  0.52055  0.45276  1.0000
  N   N22       1.0  0.92253  0.49306  0.47814  1.0000
  O   O21       1.0  0.92956  0.52265  0.47571  1.0000
  O   O22       1.0  0.92949  0.48701  0.55502  1.0000
  C   C100      1.0  0.55399  0.46198  0.34483  1.0000
  C   C101      1.0  0.52905  0.45593  0.40906  1.0000
  C   C102      1.0  0.51240  0.47424  0.40616  1.0000
  C   C103      1.0  0.49819  0.53152  0.42257  1.0000
  C   C104      1.0  0.47992  0.54824  0.42607  1.0000
  H   H62       1.0  0.50996  0.53051  0.47965  1.0000
  H   H63       1.0  0.49431  0.46891  0.45284  1.0000
  N   N23       1.0  0.47800  0.56113  0.50667  1.0000
  H   H64       1.0  0.48867  0.55899  0.56052  1.0000
  H   H65       1.0  0.46488  0.57167  0.51445  1.0000
  N   N24       1.0  0.52182  0.43245  0.47822  1.0000
  O   O23       1.0  0.49223  0.40989  0.47583  1.0000
  O   O24       1.0  0.52789  0.44548  0.55508  1.0000
  C   C105      1.0  0.55288  0.09497  0.34480  1.0000
  C   C106      1.0  0.55894  0.07607  0.40899  1.0000
  C   C107      1.0  0.54063  0.04111  0.40608  1.0000
  C   C108      1.0  0.48330  0.96963  0.42251  1.0000
  C   C109      1.0  0.46658  0.93465  0.42602  1.0000
  H   H66       1.0  0.48431  0.98242  0.47957  1.0000
  H   H67       1.0  0.54596  0.02836  0.45274  1.0000
  N   N25       1.0  0.45368  0.91984  0.50662  1.0000
  H   H68       1.0  0.45578  0.93265  0.56042  1.0000
  H   H69       1.0  0.44310  0.89618  0.51439  1.0000
  N   N26       1.0  0.58244  0.09232  0.47812  1.0000
  O   O25       1.0  0.60499  0.08529  0.47567  1.0000
  O   O26       1.0  0.56942  0.08536  0.55500  1.0000
  C   C110      1.0  0.29293  0.54376  0.34478  1.0000
  C   C111      1.0  0.35711  0.55063  0.32909  1.0000
  C   C112      1.0  0.33854  0.53837  0.40988  1.0000
  C   C113      1.0  0.30637  0.53390  0.41529  1.0000
  H   H70       1.0  0.29400  0.52645  0.47533  1.0000
  N   N27       1.0  0.35339  0.53324  0.48675  1.0000
  H   H71       1.0  0.30723  0.58605  0.48278  1.0000
  O   O27       1.0  0.35606  0.55210  0.55051  1.0000
  O   O28       1.0  0.33736  0.50401  0.51390  1.0000
  C   C114      1.0  0.46841  0.72044  0.35731  1.0000
  C   C115      1.0  0.44900  0.69827  0.42730  1.0000
  C   C116      1.0  0.44564  0.66654  0.43055  1.0000
  H   H72       1.0  0.43058  0.65033  0.47880  1.0000
  C   C117      1.0  0.47109  0.75215  0.34482  1.0000
  C   C118      1.0  0.46424  0.80946  0.32918  1.0000
  C   C119      1.0  0.47651  0.80316  0.40996  1.0000
  C   C120      1.0  0.48093  0.77543  0.41536  1.0000
  H   H73       1.0  0.48845  0.77053  0.47530  1.0000
  N   N28       1.0  0.48168  0.82317  0.48680  1.0000
  N   N29       1.0  0.43107  0.70476  0.48776  1.0000
  H   H74       1.0  0.41716  0.68858  0.53260  1.0000
  H   H75       1.0  0.42892  0.72419  0.48332  1.0000
  O   O29       1.0  0.46283  0.80700  0.55059  1.0000
  O   O30       1.0  0.51091  0.83634  0.51389  1.0000
  C   C121      1.0  0.29439  0.75097  0.35742  1.0000
  C   C122      1.0  0.31655  0.75370  0.42741  1.0000
  C   C123      1.0  0.34828  0.78208  0.43080  1.0000
  H   H76       1.0  0.36448  0.78318  0.47902  1.0000
  N   N30       1.0  0.30999  0.72928  0.48794  1.0000
  H   H77       1.0  0.32625  0.73147  0.53241  1.0000
  H   H78       1.0  0.29067  0.70766  0.48291  1.0000
  C   C124      1.0  0.75409  0.46557  0.35678  1.0000
  C   C125      1.0  0.75698  0.44628  0.42690  1.0000
  C   C126      1.0  0.78532  0.44287  0.42975  1.0000
  H   H79       1.0  0.78659  0.42793  0.47818  1.0000
  C   C127      1.0  0.72506  0.46826  0.34461  1.0000
  C   C128      1.0  0.66087  0.46135  0.32954  1.0000
  C   C129      1.0  0.67950  0.47364  0.41018  1.0000
  C   C130      1.0  0.71167  0.47811  0.41528  1.0000
  H   H80       1.0  0.72417  0.48567  0.47511  1.0000
  N   N31       1.0  0.66472  0.47880  0.48716  1.0000
  N   N32       1.0  0.73270  0.42850  0.48786  1.0000
  H   H81       1.0  0.73506  0.41465  0.53276  1.0000
  H   H82       1.0  0.71112  0.42632  0.48367  1.0000
  O   O31       1.0  0.66213  0.45997  0.55091  1.0000
  O   O32       1.0  0.68078  0.50804  0.51419  1.0000
  C   C131      1.0  0.54926  0.29149  0.35680  1.0000
  C   C132      1.0  0.56857  0.31368  0.42690  1.0000
  C   C133      1.0  0.57195  0.34542  0.42988  1.0000
  H   H83       1.0  0.58692  0.36161  0.47828  1.0000
  C   C134      1.0  0.54659  0.25978  0.34460  1.0000
  C   C135      1.0  0.55353  0.20248  0.32956  1.0000
  C   C136      1.0  0.54124  0.20887  0.41016  1.0000
  C   C137      1.0  0.53671  0.23654  0.41526  1.0000
  H   H84       1.0  0.52922  0.24149  0.47519  1.0000
  N   N33       1.0  0.53612  0.18896  0.48717  1.0000
  N   N34       1.0  0.58631  0.30714  0.48793  1.0000
  H   H85       1.0  0.60030  0.32342  0.53244  1.0000
  H   H86       1.0  0.58865  0.28784  0.48315  1.0000
  O   O33       1.0  0.55496  0.20522  0.55087  1.0000
  O   O34       1.0  0.50689  0.17576  0.51427  1.0000
  C   C138      1.0  0.72336  0.26076  0.35674  1.0000
  C   C139      1.0  0.70118  0.25787  0.42685  1.0000
  C   C140      1.0  0.66943  0.22952  0.42969  1.0000
  H   H87       1.0  0.65322  0.22826  0.47811  1.0000
  C   C141      1.0  0.75508  0.28980  0.34459  1.0000
  C   C142      1.0  0.81236  0.35399  0.32958  1.0000
  C   C143      1.0  0.80601  0.33535  0.41020  1.0000
  C   C144      1.0  0.77831  0.30318  0.41528  1.0000
  H   H88       1.0  0.77338  0.29067  0.47510  1.0000
  N   N35       1.0  0.82595  0.35012  0.48719  1.0000
  N   N36       1.0  0.70766  0.28215  0.48781  1.0000
  H   H89       1.0  0.69146  0.27978  0.53270  1.0000
  H   H90       1.0  0.72707  0.30373  0.48363  1.0000
  O   O35       1.0  0.80971  0.35270  0.55094  1.0000
  O   O36       1.0  0.83912  0.33405  0.51421  1.0000
