data_image0
_chemical_formula_structural       C3HNO2C4HNO2CHC3HNOC2NCN2CNCN5C3HNO2CHC3HNO2CHC3HNOCHOHC2OHC3HNO2CHC3HNO2CHC3HNO2CHCN4CN3CN2CNCNCN4C3HNO2CHC3HNO2CHC3HNO2CH
_chemical_formula_sum              "C60 H24 N36 O24"
_cell_length_a       34.5445
_cell_length_b       34.5446
_cell_length_c       14.6623
_cell_angle_alpha    90
_cell_angle_beta     90
_cell_angle_gamma    120

_space_group_name_H-M_alt    "P 1"
_space_group_IT_number       1

loop_
  _space_group_symop_operation_xyz
  'x, y, z'

loop_
  _atom_site_type_symbol
  _atom_site_label
  _atom_site_symmetry_multiplicity
  _atom_site_fract_x
  _atom_site_fract_y
  _atom_site_fract_z
  _atom_site_occupancy
  C   C1        1.0  0.27425  0.14660  0.35365  1.0000
  C   C2        1.0  0.24532  0.14174  0.27987  1.0000
  C   C3        1.0  0.19868  0.11113  0.28660  1.0000
  H   H1        1.0  0.17858  0.10761  0.23219  1.0000
  N   N1        1.0  0.26361  0.16701  0.19913  1.0000
  O   O1        1.0  0.25706  0.14214  0.13144  1.0000
  O   O2        1.0  0.24743  0.19173  0.18243  1.0000
  C   C4        1.0  0.31982  0.17868  0.34928  1.0000
  C   C5        1.0  0.87485  0.13339  0.35377  1.0000
  C   C6        1.0  0.87960  0.10919  0.28010  1.0000
  C   C7        1.0  0.91022  0.09317  0.28680  1.0000
  H   H2        1.0  0.91365  0.07650  0.23248  1.0000
  N   N2        1.0  0.85420  0.10205  0.19950  1.0000
  O   O3        1.0  0.87895  0.12024  0.13160  1.0000
  O   O4        1.0  0.82944  0.06112  0.18314  1.0000
  C   C8        1.0  0.84277  0.14688  0.34943  1.0000
  H   H3        1.0  0.81135  0.12374  0.33574  1.0000
  C   C9        1.0  0.55841  0.17676  0.33234  1.0000
  C   C10       1.0  0.58664  0.17886  0.26037  1.0000
  C   C11       1.0  0.62823  0.18123  0.27664  1.0000
  H   H4        1.0  0.57903  0.18298  0.19481  1.0000
  N   N3        1.0  0.65775  0.18852  0.20296  1.0000
  O   O5        1.0  0.64061  0.15732  0.14569  1.0000
  C   C12       1.0  0.52610  0.18888  0.31543  1.0000
  C   C13       1.0  0.05830  0.03470  0.35264  1.0000
  N   N4        1.0  0.03232  0.05408  0.35225  1.0000
  C   C14       1.0  0.98675  0.02934  0.35265  1.0000
  N   N5        1.0  0.96030  0.04732  0.35084  1.0000
  N   N6        1.0  0.10273  0.06116  0.35082  1.0000
  C   C15       1.0  0.39552  0.19428  0.35850  1.0000
  N   N7        1.0  0.41992  0.17307  0.36245  1.0000
  C   C16       1.0  0.46541  0.19638  0.35967  1.0000
  N   N8        1.0  0.35099  0.16890  0.36028  1.0000
  N   N9        1.0  0.49147  0.17814  0.36586  1.0000
  N   N10       1.0  0.78142  0.18348  0.35430  1.0000
  N   N11       1.0  0.85256  0.18784  0.36034  1.0000
  N   N12       1.0  0.71253  0.18388  0.34852  1.0000
  C   C17       1.0  0.17955  0.08482  0.36528  1.0000
  C   C18       1.0  0.20868  0.08965  0.43760  1.0000
  C   C19       1.0  0.25533  0.12037  0.43346  1.0000
  H   H5        1.0  0.19581  0.07086  0.49547  1.0000
  N   N13       1.0  0.28327  0.12564  0.50881  1.0000
  O   O6        1.0  0.28263  0.08982  0.52749  1.0000
  O   O7        1.0  0.27207  0.13883  0.57856  1.0000
  C   C20       1.0  0.13420  0.05270  0.37008  1.0000
  H   H6        1.0  0.12612  0.02234  0.39225  1.0000
  C   C21       1.0  0.93667  0.10052  0.36533  1.0000
  C   C22       1.0  0.93192  0.12491  0.43757  1.0000
  C   C23       1.0  0.90119  0.14083  0.43345  1.0000
  H   H7        1.0  0.95080  0.13093  0.49533  1.0000
  N   N14       1.0  0.89603  0.16362  0.50871  1.0000
  O   O8        1.0  0.93188  0.19883  0.52709  1.0000
  O   O9        1.0  0.88295  0.13935  0.57863  1.0000
  C   C24       1.0  0.96876  0.08725  0.37013  1.0000
  H   H8        1.0  0.99913  0.10952  0.39230  1.0000
  C   C25       1.0  0.64201  0.18038  0.36772  1.0000
  C   C26       1.0  0.61266  0.17562  0.44062  1.0000
  C   C27       1.0  0.57130  0.17347  0.42211  1.0000
  H   H9        1.0  0.55266  0.17392  0.47596  1.0000
  N   N15       1.0  0.62653  0.17627  0.53204  1.0000
  O   O10       1.0  0.59983  0.14121  0.57395  1.0000
  C   C28       1.0  0.68720  0.19685  0.38682  1.0000
  H   H10       1.0  0.32809  0.21009  0.33555  1.0000
  O   O11       1.0  0.66925  0.22486  0.16287  1.0000
  H   H11       1.0  0.53348  0.21176  0.26677  1.0000
  C   C29       1.0  0.82718  0.20699  0.35855  1.0000
  C   C30       1.0  0.75711  0.20471  0.35536  1.0000
  O   O12       1.0  0.63027  0.20936  0.57545  1.0000
  H   H12       1.0  0.70149  0.22410  0.42599  1.0000
  C   C31       1.0  0.88799  0.74719  0.35370  1.0000
  C   C32       1.0  0.91212  0.77613  0.27997  1.0000
  C   C33       1.0  0.92817  0.82277  0.28669  1.0000
  H   H13       1.0  0.94476  0.84286  0.23229  1.0000
  N   N16       1.0  0.91913  0.75784  0.19926  1.0000
  O   O13       1.0  0.90086  0.76440  0.13151  1.0000
  O   O14       1.0  0.96004  0.77400  0.18266  1.0000
  C   C34       1.0  0.87450  0.70162  0.34934  1.0000
  H   H14       1.0  0.89764  0.69335  0.33565  1.0000
  C   C35       1.0  0.84473  0.38738  0.33233  1.0000
  C   C36       1.0  0.84256  0.41351  0.26041  1.0000
  C   C37       1.0  0.84014  0.45271  0.27665  1.0000
  H   H15       1.0  0.83847  0.40179  0.19485  1.0000
  N   N17       1.0  0.83283  0.47491  0.20293  1.0000
  O   O15       1.0  0.79649  0.45003  0.16283  1.0000
  O   O16       1.0  0.86404  0.48899  0.14568  1.0000
  C   C38       1.0  0.83261  0.34296  0.31538  1.0000
  H   H16       1.0  0.80970  0.32746  0.26676  1.0000
  C   C39       1.0  0.63403  0.46302  0.33212  1.0000
  C   C40       1.0  0.60787  0.43480  0.26018  1.0000
  C   C41       1.0  0.56864  0.39322  0.27643  1.0000
  H   H17       1.0  0.61954  0.44250  0.19459  1.0000
  N   N18       1.0  0.54633  0.36373  0.20276  1.0000
  O   O17       1.0  0.57113  0.35222  0.16249  1.0000
  O   O18       1.0  0.53225  0.38091  0.14563  1.0000
  C   C42       1.0  0.67844  0.49541  0.31521  1.0000
  H   H18       1.0  0.69395  0.48808  0.26650  1.0000
  C   C43       1.0  0.99210  0.96314  0.35260  1.0000
  N   N19       1.0  0.03747  0.98913  0.35221  1.0000
  N   N20       1.0  0.96737  0.98398  0.35223  1.0000
  N   N21       1.0  0.97412  0.91871  0.35080  1.0000
  N   N22       1.0  0.48583  0.24155  0.35691  1.0000
  C   C44       1.0  0.46331  0.26435  0.35521  1.0000
  N   N23       1.0  0.41777  0.24004  0.35421  1.0000
  N   N24       1.0  0.48706  0.30893  0.34840  1.0000
  N   N25       1.0  0.84839  0.25260  0.36251  1.0000
  C   C45       1.0  0.82508  0.27478  0.35974  1.0000
  N   N26       1.0  0.77990  0.25003  0.35702  1.0000
  N   N27       1.0  0.84332  0.31908  0.36588  1.0000
  C   C46       1.0  0.81439  0.62592  0.35855  1.0000
  N   N28       1.0  0.76878  0.60152  0.36249  1.0000
  C   C47       1.0  0.74661  0.55604  0.35971  1.0000
  N   N29       1.0  0.77135  0.53561  0.35700  1.0000
  C   C48       1.0  0.81667  0.55813  0.35536  1.0000
  N   N30       1.0  0.83790  0.60367  0.35431  1.0000
  N   N31       1.0  0.83355  0.67045  0.36032  1.0000
  N   N32       1.0  0.83748  0.53436  0.34848  1.0000
  N   N33       1.0  0.70230  0.52996  0.36584  1.0000
  C   C49       1.0  0.92093  0.84190  0.36532  1.0000
  C   C50       1.0  0.89662  0.81277  0.43764  1.0000
  C   C51       1.0  0.88067  0.76611  0.43348  1.0000
  H   H19       1.0  0.89068  0.82565  0.49546  1.0000
  N   N34       1.0  0.85797  0.73818  0.50883  1.0000
  O   O19       1.0  0.82280  0.73884  0.52745  1.0000
  O   O20       1.0  0.88234  0.74936  0.57860  1.0000
  C   C52       1.0  0.93419  0.88725  0.37010  1.0000
  H   H20       1.0  0.91192  0.89535  0.39227  1.0000
  C   C53       1.0  0.84098  0.46731  0.36776  1.0000
  C   C54       1.0  0.84576  0.44275  0.44065  1.0000
  C   C55       1.0  0.84788  0.40354  0.42210  1.0000
  H   H21       1.0  0.84754  0.38448  0.47592  1.0000
  N   N35       1.0  0.84509  0.45597  0.53205  1.0000
  O   O21       1.0  0.88016  0.46433  0.57397  1.0000
  O   O22       1.0  0.81200  0.42661  0.57546  1.0000
  C   C56       1.0  0.82445  0.49601  0.38660  1.0000
  H   H22       1.0  0.79723  0.48310  0.42587  1.0000
  C   C57       1.0  0.55410  0.37946  0.36756  1.0000
  C   C58       1.0  0.57870  0.40875  0.44052  1.0000
  C   C59       1.0  0.61792  0.45008  0.42194  1.0000
  H   H23       1.0  0.63701  0.46879  0.47573  1.0000
  N   N36       1.0  0.56550  0.39488  0.53193  1.0000
  O   O23       1.0  0.55719  0.42160  0.57390  1.0000
  O   O24       1.0  0.59486  0.39111  0.57528  1.0000
  C   C60       1.0  0.52538  0.33425  0.38664  1.0000
  H   H24       1.0  0.53835  0.31994  0.42574  1.0000
