data_image0
_chemical_formula_structural       C4H2C4H2N2C4H2C4H2N2C4H2C4H2N2C3H2CHC3H2CHC3H2CHC3H2CHC3H2CHC3H2CHC2HC2HN2C2HC2HN2C2HC2HN2C3HNH2CHC3HNH2CHC3HNH2CHC3HNH2CHC3HNH2CHC3HNH2CH
_chemical_formula_sum              "C84 H60 N18"
_cell_length_a       32.0293
_cell_length_b       32.0293
_cell_length_c       15.0647
_cell_angle_alpha    90
_cell_angle_beta     90
_cell_angle_gamma    120

_space_group_name_H-M_alt    "P 1"
_space_group_IT_number       1

loop_
  _space_group_symop_operation_xyz
  'x, y, z'

loop_
  _atom_site_type_symbol
  _atom_site_label
  _atom_site_symmetry_multiplicity
  _atom_site_fract_x
  _atom_site_fract_y
  _atom_site_fract_z
  _atom_site_occupancy
  C   C1        1.0  0.97100  0.48511  0.32717  1.0000
  C   C2        1.0  0.86835  0.43431  0.32832  1.0000
  C   C3        1.0  0.89313  0.40853  0.32046  1.0000
  C   C4        1.0  0.94361  0.43444  0.31199  1.0000
  H   H1        1.0  0.96010  0.41484  0.29938  1.0000
  H   H2        1.0  0.83147  0.41602  0.32931  1.0000
  C   C5        1.0  0.02255  0.51058  0.32719  1.0000
  C   C6        1.0  0.04993  0.56125  0.31200  1.0000
  C   C7        1.0  0.10042  0.58716  0.32049  1.0000
  C   C8        1.0  0.12519  0.56138  0.32834  1.0000
  H   H3        1.0  0.03345  0.58085  0.29938  1.0000
  H   H4        1.0  0.16208  0.57967  0.32932  1.0000
  N   N1        1.0  0.12380  0.63596  0.32087  1.0000
  N   N2        1.0  0.86975  0.35973  0.32085  1.0000
  C   C9        1.0  0.50951  0.48481  0.32732  1.0000
  C   C10       1.0  0.56032  0.43297  0.32840  1.0000
  C   C11       1.0  0.58609  0.48352  0.32054  1.0000
  C   C12       1.0  0.56019  0.50811  0.31220  1.0000
  H   H5        1.0  0.57977  0.54418  0.29943  1.0000
  H   H6        1.0  0.57860  0.41437  0.32932  1.0000
  C   C13       1.0  0.48404  0.51090  0.32733  1.0000
  C   C14       1.0  0.43337  0.48760  0.31221  1.0000
  C   C15       1.0  0.40746  0.51219  0.32056  1.0000
  C   C16       1.0  0.43324  0.56274  0.32841  1.0000
  H   H7        1.0  0.41378  0.45153  0.29943  1.0000
  H   H8        1.0  0.41496  0.58135  0.32930  1.0000
  N   N3        1.0  0.35866  0.48677  0.32089  1.0000
  N   N4        1.0  0.63490  0.50894  0.32088  1.0000
  C   C17       1.0  0.50982  0.02363  0.32733  1.0000
  C   C18       1.0  0.56167  0.12627  0.32841  1.0000
  C   C19       1.0  0.51111  0.10150  0.32055  1.0000
  C   C20       1.0  0.48653  0.05101  0.31219  1.0000
  H   H9        1.0  0.45046  0.03452  0.29939  1.0000
  H   H10       1.0  0.58027  0.16316  0.32932  1.0000
  C   C21       1.0  0.48373  0.97207  0.32731  1.0000
  C   C22       1.0  0.50703  0.94470  0.31217  1.0000
  C   C23       1.0  0.48245  0.89421  0.32051  1.0000
  C   C24       1.0  0.43189  0.86943  0.32838  1.0000
  H   H11       1.0  0.54310  0.96119  0.29940  1.0000
  H   H12       1.0  0.41329  0.83254  0.32929  1.0000
  N   N5        1.0  0.50787  0.87082  0.32084  1.0000
  N   N6        1.0  0.48570  0.12488  0.32087  1.0000
  C   C25       1.0  0.26688  0.47637  0.26545  1.0000
  C   C26       1.0  0.22599  0.47941  0.24286  1.0000
  C   C27       1.0  0.19509  0.47986  0.30912  1.0000
  H   H13       1.0  0.29018  0.48047  0.21520  1.0000
  H   H14       1.0  0.22033  0.48372  0.17742  1.0000
  C   C28       1.0  0.16126  0.49394  0.28740  1.0000
  H   H15       1.0  0.16555  0.51182  0.22861  1.0000
  C   C29       1.0  0.51828  0.78945  0.26543  1.0000
  C   C30       1.0  0.51523  0.74551  0.24286  1.0000
  C   C31       1.0  0.51478  0.71417  0.30914  1.0000
  H   H16       1.0  0.51416  0.80863  0.21518  1.0000
  H   H17       1.0  0.51091  0.73552  0.17743  1.0000
  C   C32       1.0  0.50070  0.66625  0.28744  1.0000
  H   H18       1.0  0.48281  0.65266  0.22865  1.0000
  C   C33       1.0  0.20518  0.72774  0.26547  1.0000
  C   C34       1.0  0.24912  0.76864  0.24290  1.0000
  C   C35       1.0  0.28046  0.79953  0.30917  1.0000
  H   H19       1.0  0.18599  0.70445  0.21522  1.0000
  H   H20       1.0  0.25910  0.77431  0.17747  1.0000
  C   C36       1.0  0.32838  0.83336  0.28747  1.0000
  H   H21       1.0  0.34197  0.82907  0.22867  1.0000
  C   C37       1.0  0.72667  0.51934  0.26545  1.0000
  C   C38       1.0  0.76756  0.51629  0.24286  1.0000
  C   C39       1.0  0.79845  0.51584  0.30912  1.0000
  H   H22       1.0  0.70337  0.51523  0.21520  1.0000
  H   H23       1.0  0.77322  0.51197  0.17742  1.0000
  C   C40       1.0  0.83228  0.50175  0.28741  1.0000
  H   H24       1.0  0.82798  0.48386  0.22862  1.0000
  C   C41       1.0  0.47530  0.20627  0.26545  1.0000
  C   C42       1.0  0.47834  0.25021  0.24288  1.0000
  C   C43       1.0  0.47879  0.28154  0.30914  1.0000
  H   H25       1.0  0.47941  0.18708  0.21520  1.0000
  H   H26       1.0  0.48267  0.26020  0.17745  1.0000
  C   C44       1.0  0.49287  0.32946  0.28745  1.0000
  H   H27       1.0  0.51076  0.34306  0.22867  1.0000
  C   C45       1.0  0.78838  0.26794  0.26547  1.0000
  C   C46       1.0  0.74443  0.22704  0.24291  1.0000
  C   C47       1.0  0.71309  0.19616  0.30918  1.0000
  H   H28       1.0  0.80756  0.29123  0.21521  1.0000
  H   H29       1.0  0.73445  0.22136  0.17747  1.0000
  C   C48       1.0  0.66518  0.16232  0.28749  1.0000
  H   H30       1.0  0.65159  0.16660  0.22869  1.0000
  C   C49       1.0  0.94421  0.50898  0.34289  1.0000
  C   C50       1.0  0.89369  0.48489  0.33576  1.0000
  H   H31       1.0  0.96111  0.54504  0.35599  1.0000
  C   C51       1.0  0.09985  0.51080  0.33574  1.0000
  C   C52       1.0  0.04933  0.48672  0.34296  1.0000
  H   H32       1.0  0.03244  0.45065  0.35597  1.0000
  N   N7        1.0  0.12319  0.48538  0.33896  1.0000
  N   N8        1.0  0.87035  0.51031  0.33896  1.0000
  C   C53       1.0  0.48564  0.43416  0.34303  1.0000
  C   C54       1.0  0.50974  0.40773  0.33586  1.0000
  H   H33       1.0  0.44959  0.41500  0.35610  1.0000
  C   C55       1.0  0.48383  0.58799  0.33584  1.0000
  C   C56       1.0  0.50791  0.56155  0.34309  1.0000
  H   H34       1.0  0.54397  0.58072  0.35608  1.0000
  N   N9        1.0  0.50925  0.63674  0.33902  1.0000
  N   N10       1.0  0.48431  0.35897  0.33903  1.0000
  C   C57       1.0  0.56047  0.05041  0.34315  1.0000
  C   C58       1.0  0.58691  0.10093  0.33588  1.0000
  H   H35       1.0  0.57964  0.03351  0.35610  1.0000
  C   C59       1.0  0.40665  0.89476  0.33583  1.0000
  C   C60       1.0  0.43308  0.94529  0.34301  1.0000
  H   H36       1.0  0.41393  0.96219  0.35610  1.0000
  N   N11       1.0  0.35789  0.87143  0.33903  1.0000
  N   N12       1.0  0.63567  0.12426  0.33908  1.0000
  C   C61       1.0  0.20447  0.47420  0.39855  1.0000
  C   C62       1.0  0.24840  0.47681  0.42326  1.0000
  C   C63       1.0  0.28093  0.47980  0.35541  1.0000
  H   H37       1.0  0.18285  0.47543  0.44736  1.0000
  N   N13       1.0  0.25763  0.47624  0.51141  1.0000
  H   H38       1.0  0.23432  0.47295  0.55634  1.0000
  H   H39       1.0  0.28517  0.47401  0.53206  1.0000
  C   C64       1.0  0.32989  0.49618  0.37299  1.0000
  H   H40       1.0  0.34491  0.51631  0.42900  1.0000
  C   C65       1.0  0.52044  0.72921  0.39857  1.0000
  C   C66       1.0  0.51784  0.77054  0.42326  1.0000
  C   C67       1.0  0.51484  0.80007  0.35540  1.0000
  H   H41       1.0  0.51922  0.70637  0.44739  1.0000
  N   N14       1.0  0.51842  0.78035  0.51141  1.0000
  H   H42       1.0  0.52171  0.76033  0.55634  1.0000
  H   H43       1.0  0.52064  0.81011  0.53204  1.0000
  C   C68       1.0  0.49847  0.83266  0.37296  1.0000
  H   H44       1.0  0.47835  0.82755  0.42897  1.0000
  C   C69       1.0  0.26543  0.79014  0.39860  1.0000
  C   C70       1.0  0.22410  0.74621  0.42329  1.0000
  C   C71       1.0  0.19456  0.71369  0.35544  1.0000
  H   H45       1.0  0.28827  0.81176  0.44742  1.0000
  N   N15       1.0  0.21429  0.73697  0.51145  1.0000
  H   H46       1.0  0.23431  0.76028  0.55638  1.0000
  H   H47       1.0  0.18453  0.70944  0.53208  1.0000
  C   C72       1.0  0.16197  0.66473  0.37299  1.0000
  H   H48       1.0  0.16708  0.64970  0.42900  1.0000
  C   C73       1.0  0.78908  0.52151  0.39855  1.0000
  C   C74       1.0  0.74515  0.51891  0.42326  1.0000
  C   C75       1.0  0.71262  0.51591  0.35541  1.0000
  H   H49       1.0  0.81071  0.52028  0.44736  1.0000
  N   N16       1.0  0.73593  0.51949  0.51141  1.0000
  H   H50       1.0  0.75924  0.52278  0.55634  1.0000
  H   H51       1.0  0.70840  0.52172  0.53206  1.0000
  C   C76       1.0  0.66366  0.49954  0.37299  1.0000
  H   H52       1.0  0.64865  0.47942  0.42901  1.0000
  C   C77       1.0  0.47312  0.26650  0.39858  1.0000
  C   C78       1.0  0.47573  0.22517  0.42327  1.0000
  C   C79       1.0  0.47873  0.19565  0.35541  1.0000
  H   H53       1.0  0.47435  0.28934  0.44740  1.0000
  N   N17       1.0  0.47515  0.21536  0.51142  1.0000
  H   H54       1.0  0.47185  0.23538  0.55636  1.0000
  H   H55       1.0  0.47292  0.18560  0.53206  1.0000
  C   C80       1.0  0.49510  0.16306  0.37298  1.0000
  H   H56       1.0  0.51522  0.16816  0.42900  1.0000
  C   C81       1.0  0.72813  0.20555  0.39862  1.0000
  C   C82       1.0  0.76946  0.24949  0.42330  1.0000
  C   C83       1.0  0.79899  0.28200  0.35543  1.0000
  H   H57       1.0  0.70529  0.18394  0.44744  1.0000
  N   N18       1.0  0.77927  0.25873  0.51145  1.0000
  H   H58       1.0  0.75925  0.23543  0.55639  1.0000
  H   H59       1.0  0.80903  0.28627  0.53208  1.0000
  C   C84       1.0  0.83158  0.33097  0.37298  1.0000
  H   H60       1.0  0.82648  0.34599  0.42898  1.0000
