data_image0
_chemical_formula_structural       C16H16C7H3CH3NHC7H3CH3NHC3NC3NC5NC5NC36H26C4O4C2HC3H2CH3NHC2HC3H2CH3NH
_chemical_formula_sum              "C100 H70 N8 O4"
_cell_length_a       38.4855
_cell_length_b       38.4847
_cell_length_c       15.0106
_cell_angle_alpha    90
_cell_angle_beta     90
_cell_angle_gamma    89.9333

_space_group_name_H-M_alt    "P 1"
_space_group_IT_number       1

loop_
  _space_group_symop_operation_xyz
  'x, y, z'

loop_
  _atom_site_type_symbol
  _atom_site_label
  _atom_site_symmetry_multiplicity
  _atom_site_fract_x
  _atom_site_fract_y
  _atom_site_fract_z
  _atom_site_occupancy
  C   C1        1.0  0.00307  0.81530  0.27820  1.0000
  C   C2        1.0  0.00449  0.85182  0.27634  1.0000
  C   C3        1.0  0.02035  0.73942  0.32083  1.0000
  C   C4        1.0  0.01811  0.70295  0.32383  1.0000
  C   C5        1.0  0.81964  0.00335  0.27998  1.0000
  C   C6        1.0  0.85614  0.00168  0.27808  1.0000
  C   C7        1.0  0.70717  0.98929  0.30852  1.0000
  C   C8        1.0  0.74361  0.98645  0.30826  1.0000
  C   C9        1.0  0.00535  0.14636  0.27914  1.0000
  C   C10       1.0  0.00616  0.18288  0.28114  1.0000
  C   C11       1.0  0.98952  0.29503  0.30976  1.0000
  C   C12       1.0  0.98748  0.25854  0.30956  1.0000
  C   C13       1.0  0.15056  0.00085  0.27635  1.0000
  C   C14       1.0  0.18709  0.99976  0.27818  1.0000
  C   C15       1.0  0.26238  0.01877  0.32145  1.0000
  C   C16       1.0  0.29889  0.01754  0.32478  1.0000
  H   H1        1.0  0.31242  0.03796  0.29845  1.0000
  H   H2        1.0  0.25069  0.03979  0.29223  1.0000
  H   H3        1.0  0.20037  0.00269  0.21959  1.0000
  H   H4        1.0  0.13814  0.00489  0.21692  1.0000
  H   H5        1.0  0.00442  0.13388  0.21895  1.0000
  H   H6        1.0  0.00629  0.19598  0.22182  1.0000
  H   H7        1.0  0.86862  0.00049  0.21792  1.0000
  H   H8        1.0  0.80657  0.00377  0.22062  1.0000
  H   H9        1.0  0.75486  0.96839  0.26733  1.0000
  H   H10       1.0  0.69354  0.97392  0.26539  1.0000
  H   H11       1.0  0.00833  0.86420  0.21679  1.0000
  H   H12       1.0  0.00559  0.80199  0.21952  1.0000
  H   H13       1.0  0.03809  0.68886  0.29708  1.0000
  H   H14       1.0  0.04163  0.75052  0.29150  1.0000
  H   H15       1.0  0.96969  0.24692  0.26860  1.0000
  H   H16       1.0  0.97386  0.30833  0.26659  1.0000
  C   C17       1.0  0.99979  0.59172  0.31117  1.0000
  C   C18       1.0  0.99186  0.57291  0.23286  1.0000
  C   C19       1.0  0.98959  0.53618  0.23248  1.0000
  C   C20       1.0  0.99603  0.51785  0.31317  1.0000
  C   C21       1.0  0.99342  0.48112  0.31966  1.0000
  C   C22       1.0  0.02185  0.46088  0.29055  1.0000
  C   C23       1.0  0.02097  0.42451  0.29705  1.0000
  H   H17       1.0  0.04341  0.47245  0.26376  1.0000
  H   H18       1.0  0.04152  0.41062  0.27261  1.0000
  H   H19       1.0  0.98683  0.58644  0.17558  1.0000
  C   C24       1.0  0.98012  0.51774  0.14878  1.0000
  H   H20       1.0  0.97536  0.53553  0.09342  1.0000
  H   H21       1.0  0.95655  0.50253  0.15916  1.0000
  H   H22       1.0  0.00115  0.50030  0.12919  1.0000
  N   N1        1.0  0.00148  0.62736  0.30872  1.0000
  H   H23       1.0  0.00998  0.63765  0.25354  1.0000
  C   C25       1.0  0.41061  0.00190  0.31229  1.0000
  C   C26       1.0  0.42949  0.99414  0.23396  1.0000
  C   C27       1.0  0.46624  0.99216  0.23356  1.0000
  C   C28       1.0  0.48450  0.99877  0.31425  1.0000
  C   C29       1.0  0.52120  0.99592  0.32100  1.0000
  C   C30       1.0  0.54165  0.02413  0.29175  1.0000
  C   C31       1.0  0.57802  0.02283  0.29788  1.0000
  H   H24       1.0  0.53023  0.04580  0.26499  1.0000
  H   H25       1.0  0.59205  0.04322  0.27325  1.0000
  H   H26       1.0  0.41600  0.98889  0.17675  1.0000
  C   C32       1.0  0.48476  0.98272  0.14993  1.0000
  H   H27       1.0  0.46702  0.97785  0.09455  1.0000
  H   H28       1.0  0.50013  0.95922  0.16041  1.0000
  H   H29       1.0  0.50206  0.00381  0.13029  1.0000
  N   N2        1.0  0.37495  0.00292  0.31004  1.0000
  H   H30       1.0  0.36444  0.01129  0.25497  1.0000
  C   C33       1.0  0.09175  0.93259  0.35323  1.0000
  C   C34       1.0  0.06586  0.90782  0.35368  1.0000
  C   C35       1.0  0.03379  0.92490  0.35323  1.0000
  N   N3        1.0  0.04144  0.95927  0.35284  1.0000
  C   C36       1.0  0.07612  0.96540  0.35337  1.0000
  C   C37       1.0  0.09431  0.99756  0.35403  1.0000
  C   C38       1.0  0.07843  0.03086  0.35484  1.0000
  N   N4        1.0  0.04413  0.03829  0.35478  1.0000
  C   C39       1.0  0.03820  0.07288  0.35654  1.0000
  C   C40       1.0  0.07085  0.08870  0.35763  1.0000
  C   C41       1.0  0.09565  0.06279  0.35682  1.0000
  C   C42       1.0  0.00564  0.09021  0.35732  1.0000
  C   C43       1.0  0.97271  0.07349  0.35681  1.0000
  N   N5        1.0  0.96508  0.03912  0.35614  1.0000
  C   C44       1.0  0.93041  0.03301  0.35658  1.0000
  C   C45       1.0  0.91475  0.06580  0.35715  1.0000
  C   C46       1.0  0.94064  0.09058  0.35738  1.0000
  C   C47       1.0  0.91224  0.00085  0.35648  1.0000
  C   C48       1.0  0.92810  0.96756  0.35536  1.0000
  N   N6        1.0  0.96240  0.96011  0.35483  1.0000
  C   C49       1.0  0.96830  0.92551  0.35414  1.0000
  C   C50       1.0  0.93562  0.90973  0.35378  1.0000
  C   C51       1.0  0.91083  0.93566  0.35481  1.0000
  C   C52       1.0  0.00087  0.90815  0.35377  1.0000
  C   C53       1.0  0.00030  0.87117  0.35556  1.0000
  C   C54       1.0  0.99469  0.85339  0.43656  1.0000
  C   C55       1.0  0.99285  0.81691  0.43804  1.0000
  C   C56       1.0  0.99692  0.79731  0.35892  1.0000
  C   C57       1.0  0.99446  0.76042  0.36049  1.0000
  C   C58       1.0  0.98969  0.68616  0.36549  1.0000
  C   C59       1.0  0.96383  0.70735  0.40505  1.0000
  C   C60       1.0  0.96615  0.74379  0.40262  1.0000
  C   C61       1.0  0.87530  0.00202  0.35820  1.0000
  C   C62       1.0  0.85740  0.00399  0.44010  1.0000
  C   C63       1.0  0.82091  0.00578  0.44170  1.0000
  C   C64       1.0  0.80136  0.00553  0.36173  1.0000
  C   C65       1.0  0.76434  0.00786  0.36336  1.0000
  C   C66       1.0  0.74723  0.03219  0.41878  1.0000
  C   C67       1.0  0.71079  0.03504  0.41888  1.0000
  C   C68       1.0  0.68991  0.01351  0.36420  1.0000
  C   C69       1.0  0.00613  0.12716  0.35921  1.0000
  C   C70       1.0  0.00790  0.20117  0.36294  1.0000
  C   C71       1.0  0.00862  0.18159  0.44285  1.0000
  C   C72       1.0  0.00767  0.14507  0.44116  1.0000
  C   C73       1.0  0.00935  0.23823  0.36466  1.0000
  C   C74       1.0  0.03327  0.25584  0.42014  1.0000
  C   C75       1.0  0.03532  0.29233  0.42017  1.0000
  C   C76       1.0  0.01337  0.31276  0.36536  1.0000
  C   C77       1.0  0.13128  0.99640  0.35554  1.0000
  C   C78       1.0  0.14911  0.99076  0.43645  1.0000
  C   C79       1.0  0.18562  0.98925  0.43790  1.0000
  C   C80       1.0  0.20516  0.99377  0.35887  1.0000
  C   C81       1.0  0.24211  0.99225  0.36063  1.0000
  C   C82       1.0  0.31646  0.98957  0.36646  1.0000
  C   C83       1.0  0.29600  0.96308  0.40563  1.0000
  C   C84       1.0  0.25951  0.96437  0.40280  1.0000
  H   H31       1.0  0.30745  0.94224  0.43619  1.0000
  H   H32       1.0  0.24573  0.94447  0.43102  1.0000
  H   H33       1.0  0.19783  0.98537  0.49767  1.0000
  H   H34       1.0  0.13566  0.98760  0.49472  1.0000
  H   H35       1.0  0.11773  0.92706  0.35355  1.0000
  H   H36       1.0  0.07023  0.88162  0.35440  1.0000
  H   H37       1.0  0.02419  0.97730  0.35261  1.0000
  H   H38       1.0  0.98233  0.02109  0.35615  1.0000
  H   H39       1.0  0.12187  0.06698  0.35792  1.0000
  H   H40       1.0  0.07616  0.11471  0.35925  1.0000
  H   H41       1.0  0.00819  0.13164  0.50003  1.0000
  H   H42       1.0  0.00937  0.19379  0.50341  1.0000
  H   H43       1.0  0.93629  0.11678  0.35807  1.0000
  H   H44       1.0  0.88876  0.07131  0.35755  1.0000
  H   H45       1.0  0.93025  0.88373  0.35288  1.0000
  H   H46       1.0  0.88461  0.93151  0.35488  1.0000
  H   H47       1.0  0.87081  0.00424  0.49901  1.0000
  H   H48       1.0  0.80871  0.00683  0.50221  1.0000
  H   H49       1.0  0.69969  0.05313  0.45998  1.0000
  H   H50       1.0  0.76120  0.04872  0.45834  1.0000
  H   H51       1.0  0.94665  0.75811  0.43108  1.0000
  H   H52       1.0  0.94270  0.69649  0.43562  1.0000
  H   H53       1.0  0.98879  0.80475  0.49779  1.0000
  H   H54       1.0  0.99156  0.86689  0.49478  1.0000
  H   H55       1.0  0.05012  0.24220  0.45968  1.0000
  H   H56       1.0  0.05317  0.30378  0.46123  1.0000
  C   C85       1.0  0.65295  0.01740  0.36295  1.0000
  C   C86       1.0  0.98754  0.64918  0.37095  1.0000
  C   C87       1.0  0.35348  0.98844  0.37221  1.0000
  C   C88       1.0  0.01656  0.34979  0.36388  1.0000
  O   O1        1.0  0.63958  0.04784  0.39288  1.0000
  O   O2        1.0  0.96844  0.63552  0.43826  1.0000
  O   O3        1.0  0.36762  0.96960  0.43940  1.0000
  O   O4        1.0  0.04673  0.36370  0.39382  1.0000
  C   C89       1.0  0.00537  0.53643  0.39066  1.0000
  C   C90       1.0  0.00736  0.57283  0.38950  1.0000
  H   H57       1.0  0.01468  0.58548  0.44637  1.0000
  C   C91       1.0  0.99203  0.40731  0.33459  1.0000
  C   C92       1.0  0.96331  0.42773  0.36151  1.0000
  C   C93       1.0  0.96352  0.46444  0.35537  1.0000
  H   H58       1.0  0.94198  0.41547  0.38739  1.0000
  H   H59       1.0  0.01067  0.52362  0.44893  1.0000
  C   C94       1.0  0.93255  0.48457  0.38503  1.0000
  H   H60       1.0  0.92258  0.50009  0.32979  1.0000
  H   H61       1.0  0.93968  0.50188  0.43958  1.0000
  H   H62       1.0  0.91150  0.46791  0.40843  1.0000
  N   N7        1.0  0.99016  0.37167  0.34013  1.0000
  H   H63       1.0  0.96711  0.36159  0.33321  1.0000
  C   C95       1.0  0.46583  0.00806  0.39168  1.0000
  C   C96       1.0  0.42942  0.00975  0.39053  1.0000
  H   H64       1.0  0.41668  0.01689  0.44746  1.0000
  C   C97       1.0  0.59502  0.99369  0.33516  1.0000
  C   C98       1.0  0.57438  0.96521  0.36236  1.0000
  C   C99       1.0  0.53767  0.96583  0.35656  1.0000
  H   H65       1.0  0.58649  0.94373  0.38804  1.0000
  H   H66       1.0  0.47860  0.01339  0.45000  1.0000
  C   C100      1.0  0.51733  0.93505  0.38629  1.0000
  H   H67       1.0  0.50168  0.92524  0.33115  1.0000
  H   H68       1.0  0.50013  0.94234  0.44098  1.0000
  H   H69       1.0  0.53385  0.91382  0.40956  1.0000
  N   N8        1.0  0.63065  0.99131  0.33999  1.0000
  H   H70       1.0  0.64041  0.96809  0.33327  1.0000
