data_image0
_chemical_formula_structural       C8H8C2HC2HC2H8C16H4C9H4C6HC6H3C2H2C8H8C2HC2HC2H8C16H4C9H4C6HC6H3C2H2C8H8C2HC2HC2H8C16H4C9H4C6HC6H3C2H2C8H8C2HC2HC2H8C16H4C9H4C6HC6H3C2H2
_chemical_formula_sum              "C212 H128"
_cell_length_a       34.0538
_cell_length_b       34.0538
_cell_length_c       15.0146
_cell_angle_alpha    90
_cell_angle_beta     90
_cell_angle_gamma    89.9983

_space_group_name_H-M_alt    "P 1"
_space_group_IT_number       1

loop_
  _space_group_symop_operation_xyz
  'x, y, z'

loop_
  _atom_site_type_symbol
  _atom_site_label
  _atom_site_symmetry_multiplicity
  _atom_site_fract_x
  _atom_site_fract_y
  _atom_site_fract_z
  _atom_site_occupancy
  C   C1        1.0  0.00054  0.47847  0.29064  1.0000
  C   C2        1.0  0.00077  0.01924  0.29149  1.0000
  C   C3        1.0  0.99752  0.10113  0.32793  1.0000
  C   C4        1.0  0.00101  0.08632  0.23950  1.0000
  C   C5        1.0  0.00114  0.04602  0.22087  1.0000
  C   C6        1.0  0.99840  0.45231  0.21913  1.0000
  C   C7        1.0  0.99750  0.41187  0.23607  1.0000
  C   C8        1.0  0.00172  0.39591  0.32344  1.0000
  H   H1        1.0  0.10336  0.00588  0.03531  1.0000
  H   H2        1.0  0.03589  0.00173  0.05935  1.0000
  H   H3        1.0  0.46180  0.49643  0.05735  1.0000
  H   H4        1.0  0.39392  0.49566  0.02811  1.0000
  H   H5        1.0  0.00327  0.10463  0.18590  1.0000
  H   H6        1.0  0.00135  0.03682  0.15665  1.0000
  H   H7        1.0  0.99677  0.46209  0.15551  1.0000
  H   H8        1.0  0.99322  0.39455  0.18161  1.0000
  C   C9        1.0  0.00839  0.28695  0.27123  1.0000
  C   C10       1.0  0.01220  0.32798  0.26490  1.0000
  H   H9        1.0  0.02031  0.33876  0.20435  1.0000
  C   C11       1.0  0.47768  0.16737  0.27545  1.0000
  C   C12       1.0  0.48017  0.20856  0.27931  1.0000
  H   H10       1.0  0.46569  0.15537  0.21936  1.0000
  C   C13       1.0  0.47363  0.23222  0.19699  1.0000
  C   C14       1.0  0.00732  0.26264  0.18855  1.0000
  H   H11       1.0  0.44538  0.24734  0.20211  1.0000
  H   H12       1.0  0.47304  0.21409  0.13688  1.0000
  H   H13       1.0  0.50238  0.28038  0.12887  1.0000
  H   H14       1.0  0.03547  0.24752  0.18088  1.0000
  H   H15       1.0  0.15930  0.47859  0.01670  1.0000
  H   H16       1.0  0.28670  0.49169  0.31865  1.0000
  H   H17       1.0  0.21183  0.48897  0.32179  1.0000
  H   H18       1.0  0.22690  0.48709  0.01073  1.0000
  C   C15       1.0  0.00136  0.46456  0.37790  1.0000
  C   C16       1.0  0.00070  0.03235  0.37950  1.0000
  C   C17       1.0  0.99826  0.07304  0.39824  1.0000
  C   C18       1.0  0.00299  0.42368  0.39463  1.0000
  C   C19       1.0  0.03457  0.99774  0.50356  1.0000
  C   C20       1.0  0.02023  0.99802  0.59050  1.0000
  C   C21       1.0  0.47942  0.49773  0.58920  1.0000
  C   C22       1.0  0.46635  0.49820  0.50116  1.0000
  C   C23       1.0  0.45262  0.49702  0.65979  1.0000
  C   C24       1.0  0.41233  0.49770  0.64122  1.0000
  C   C25       1.0  0.39751  0.50201  0.55301  1.0000
  C   C26       1.0  0.42556  0.50100  0.48253  1.0000
  C   C27       1.0  0.07569  0.99640  0.48805  1.0000
  C   C28       1.0  0.10316  0.99729  0.56008  1.0000
  C   C29       1.0  0.08650  0.00145  0.64685  1.0000
  C   C30       1.0  0.04601  0.00023  0.66265  1.0000
  H   H19       1.0  0.41680  0.50378  0.41778  1.0000
  H   H20       1.0  0.08497  0.99439  0.42366  1.0000
  H   H21       1.0  0.99581  0.08164  0.46317  1.0000
  H   H22       1.0  0.00562  0.41483  0.45924  1.0000
  C   C31       1.0  0.00089  0.99816  0.44064  1.0000
  C   C32       1.0  0.00366  0.35367  0.33690  1.0000
  C   C33       1.0  0.49559  0.33516  0.41978  1.0000
  C   C34       1.0  0.49518  0.29390  0.42937  1.0000
  C   C35       1.0  0.00064  0.26909  0.35493  1.0000
  C   C36       1.0  0.49457  0.22731  0.35736  1.0000
  C   C37       1.0  0.00710  0.20331  0.42884  1.0000
  C   C38       1.0  0.00752  0.16199  0.42062  1.0000
  C   C39       1.0  0.49362  0.14289  0.34278  1.0000
  H   H23       1.0  0.01976  0.21569  0.48387  1.0000
  H   H24       1.0  0.02026  0.14617  0.47071  1.0000
  H   H25       1.0  0.48829  0.35138  0.47445  1.0000
  H   H26       1.0  0.48747  0.28224  0.48967  1.0000
  C   C40       1.0  0.14572  0.99557  0.54926  1.0000
  C   C41       1.0  0.17033  0.48757  0.62366  1.0000
  C   C42       1.0  0.21112  0.49209  0.62049  1.0000
  C   C43       1.0  0.23005  0.00171  0.54007  1.0000
  C   C44       1.0  0.20749  0.00158  0.46078  1.0000
  C   C45       1.0  0.16579  0.00081  0.46670  1.0000
  H   H27       1.0  0.15022  0.00435  0.40921  1.0000
  C   C46       1.0  0.27166  0.50669  0.53680  1.0000
  C   C47       1.0  0.29216  0.02435  0.60782  1.0000
  C   C48       1.0  0.33319  0.02579  0.60754  1.0000
  C   C49       1.0  0.35572  0.50719  0.54008  1.0000
  C   C50       1.0  0.33470  0.49408  0.46374  1.0000
  C   C51       1.0  0.29299  0.49572  0.45959  1.0000
  H   H28       1.0  0.27748  0.03620  0.66088  1.0000
  H   H29       1.0  0.34630  0.03920  0.66072  1.0000
  H   H30       1.0  0.34961  0.48210  0.41128  1.0000
  C   C52       1.0  0.27040  0.48376  0.37876  1.0000
  C   C53       1.0  0.22887  0.00346  0.37404  1.0000
  H   H31       1.0  0.26709  0.45183  0.37970  1.0000
  H   H32       1.0  0.23217  0.03434  0.35565  1.0000
  C   C54       1.0  0.00054  0.97847  0.29064  1.0000
  C   C55       1.0  0.00077  0.51924  0.29149  1.0000
  C   C56       1.0  0.99752  0.60113  0.32793  1.0000
  C   C57       1.0  0.00101  0.58632  0.23950  1.0000
  C   C58       1.0  0.00114  0.54602  0.22087  1.0000
  C   C59       1.0  0.99840  0.95230  0.21913  1.0000
  C   C60       1.0  0.99750  0.91187  0.23607  1.0000
  C   C61       1.0  0.00172  0.89591  0.32344  1.0000
  H   H33       1.0  0.10336  0.50588  0.03531  1.0000
  H   H34       1.0  0.03589  0.50174  0.05935  1.0000
  H   H35       1.0  0.46180  0.99643  0.05735  1.0000
  H   H36       1.0  0.39392  0.99566  0.02811  1.0000
  H   H37       1.0  0.00327  0.60463  0.18590  1.0000
  H   H38       1.0  0.00135  0.53682  0.15665  1.0000
  H   H39       1.0  0.99677  0.96209  0.15551  1.0000
  H   H40       1.0  0.99322  0.89455  0.18161  1.0000
  C   C62       1.0  0.00839  0.78695  0.27123  1.0000
  C   C63       1.0  0.01220  0.82798  0.26490  1.0000
  H   H41       1.0  0.02031  0.83876  0.20435  1.0000
  C   C64       1.0  0.47768  0.66737  0.27545  1.0000
  C   C65       1.0  0.48017  0.70856  0.27931  1.0000
  H   H42       1.0  0.46569  0.65537  0.21936  1.0000
  C   C66       1.0  0.47363  0.73222  0.19699  1.0000
  C   C67       1.0  0.00732  0.76264  0.18855  1.0000
  H   H43       1.0  0.44538  0.74734  0.20211  1.0000
  H   H44       1.0  0.47304  0.71409  0.13688  1.0000
  H   H45       1.0  0.50238  0.78038  0.12887  1.0000
  H   H46       1.0  0.03547  0.74752  0.18088  1.0000
  H   H47       1.0  0.15930  0.97859  0.01670  1.0000
  H   H48       1.0  0.28670  0.99169  0.31865  1.0000
  H   H49       1.0  0.21183  0.98897  0.32179  1.0000
  H   H50       1.0  0.22690  0.98709  0.01073  1.0000
  C   C68       1.0  0.00136  0.96457  0.37790  1.0000
  C   C69       1.0  0.00070  0.53235  0.37950  1.0000
  C   C70       1.0  0.99826  0.57303  0.39824  1.0000
  C   C71       1.0  0.00299  0.92368  0.39463  1.0000
  C   C72       1.0  0.03457  0.49774  0.50356  1.0000
  C   C73       1.0  0.02023  0.49802  0.59050  1.0000
  C   C74       1.0  0.47942  0.99773  0.58920  1.0000
  C   C75       1.0  0.46635  0.99820  0.50116  1.0000
  C   C76       1.0  0.45262  0.99702  0.65979  1.0000
  C   C77       1.0  0.41233  0.99770  0.64122  1.0000
  C   C78       1.0  0.39751  0.00200  0.55301  1.0000
  C   C79       1.0  0.42556  0.00100  0.48253  1.0000
  C   C80       1.0  0.07569  0.49640  0.48805  1.0000
  C   C81       1.0  0.10316  0.49729  0.56008  1.0000
  C   C82       1.0  0.08650  0.50145  0.64685  1.0000
  C   C83       1.0  0.04601  0.50023  0.66265  1.0000
  H   H51       1.0  0.41680  0.00378  0.41778  1.0000
  H   H52       1.0  0.08497  0.49439  0.42366  1.0000
  H   H53       1.0  0.99581  0.58164  0.46317  1.0000
  H   H54       1.0  0.00562  0.91483  0.45924  1.0000
  C   C84       1.0  0.00089  0.49816  0.44064  1.0000
  C   C85       1.0  0.00366  0.85367  0.33690  1.0000
  C   C86       1.0  0.49559  0.83516  0.41978  1.0000
  C   C87       1.0  0.49518  0.79390  0.42937  1.0000
  C   C88       1.0  0.00064  0.76909  0.35493  1.0000
  C   C89       1.0  0.49457  0.72731  0.35736  1.0000
  C   C90       1.0  0.00710  0.70331  0.42884  1.0000
  C   C91       1.0  0.00752  0.66199  0.42062  1.0000
  C   C92       1.0  0.49362  0.64289  0.34278  1.0000
  H   H55       1.0  0.01976  0.71569  0.48387  1.0000
  H   H56       1.0  0.02026  0.64617  0.47071  1.0000
  H   H57       1.0  0.48828  0.85138  0.47445  1.0000
  H   H58       1.0  0.48747  0.78224  0.48967  1.0000
  C   C93       1.0  0.14572  0.49557  0.54926  1.0000
  C   C94       1.0  0.17033  0.98757  0.62366  1.0000
  C   C95       1.0  0.21112  0.99209  0.62049  1.0000
  C   C96       1.0  0.23005  0.50171  0.54007  1.0000
  C   C97       1.0  0.20749  0.50158  0.46078  1.0000
  C   C98       1.0  0.16579  0.50082  0.46670  1.0000
  H   H59       1.0  0.15022  0.50435  0.40921  1.0000
  C   C99       1.0  0.27166  0.00669  0.53680  1.0000
  C   C100      1.0  0.29216  0.52435  0.60782  1.0000
  C   C101      1.0  0.33319  0.52579  0.60754  1.0000
  C   C102      1.0  0.35572  0.00720  0.54008  1.0000
  C   C103      1.0  0.33470  0.99408  0.46374  1.0000
  C   C104      1.0  0.29299  0.99572  0.45959  1.0000
  H   H60       1.0  0.27748  0.53620  0.66088  1.0000
  H   H61       1.0  0.34630  0.53920  0.66072  1.0000
  H   H62       1.0  0.34961  0.98210  0.41128  1.0000
  C   C105      1.0  0.27040  0.98376  0.37876  1.0000
  C   C106      1.0  0.22887  0.50346  0.37404  1.0000
  H   H63       1.0  0.26709  0.95184  0.37970  1.0000
  H   H64       1.0  0.23217  0.53435  0.35565  1.0000
  C   C107      1.0  0.50054  0.47847  0.29064  1.0000
  C   C108      1.0  0.50077  0.01924  0.29149  1.0000
  C   C109      1.0  0.49752  0.10113  0.32793  1.0000
  C   C110      1.0  0.50101  0.08632  0.23950  1.0000
  C   C111      1.0  0.50114  0.04602  0.22087  1.0000
  C   C112      1.0  0.49840  0.45231  0.21913  1.0000
  C   C113      1.0  0.49750  0.41187  0.23607  1.0000
  C   C114      1.0  0.50172  0.39591  0.32344  1.0000
  H   H65       1.0  0.60336  0.00588  0.03531  1.0000
  H   H66       1.0  0.53589  0.00173  0.05935  1.0000
  H   H67       1.0  0.96180  0.49643  0.05735  1.0000
  H   H68       1.0  0.89392  0.49566  0.02811  1.0000
  H   H69       1.0  0.50327  0.10463  0.18590  1.0000
  H   H70       1.0  0.50135  0.03682  0.15665  1.0000
  H   H71       1.0  0.49677  0.46209  0.15551  1.0000
  H   H72       1.0  0.49322  0.39455  0.18161  1.0000
  C   C115      1.0  0.50839  0.28695  0.27123  1.0000
  C   C116      1.0  0.51219  0.32798  0.26490  1.0000
  H   H73       1.0  0.52031  0.33876  0.20435  1.0000
  C   C117      1.0  0.97768  0.16737  0.27545  1.0000
  C   C118      1.0  0.98017  0.20856  0.27931  1.0000
  H   H74       1.0  0.96569  0.15537  0.21936  1.0000
  C   C119      1.0  0.97363  0.23222  0.19699  1.0000
  C   C120      1.0  0.50733  0.26264  0.18855  1.0000
  H   H75       1.0  0.94538  0.24734  0.20211  1.0000
  H   H76       1.0  0.97304  0.21409  0.13688  1.0000
  H   H77       1.0  0.00238  0.28038  0.12887  1.0000
  H   H78       1.0  0.53547  0.24752  0.18088  1.0000
  H   H79       1.0  0.65930  0.47859  0.01670  1.0000
  H   H80       1.0  0.78670  0.49169  0.31865  1.0000
  H   H81       1.0  0.71183  0.48897  0.32179  1.0000
  H   H82       1.0  0.72690  0.48709  0.01073  1.0000
  C   C121      1.0  0.50136  0.46456  0.37790  1.0000
  C   C122      1.0  0.50070  0.03235  0.37950  1.0000
  C   C123      1.0  0.49826  0.07304  0.39824  1.0000
  C   C124      1.0  0.50299  0.42368  0.39463  1.0000
  C   C125      1.0  0.53457  0.99774  0.50356  1.0000
  C   C126      1.0  0.52023  0.99802  0.59050  1.0000
  C   C127      1.0  0.97942  0.49773  0.58920  1.0000
  C   C128      1.0  0.96635  0.49820  0.50116  1.0000
  C   C129      1.0  0.95262  0.49702  0.65979  1.0000
  C   C130      1.0  0.91233  0.49770  0.64122  1.0000
  C   C131      1.0  0.89751  0.50201  0.55301  1.0000
  C   C132      1.0  0.92556  0.50100  0.48253  1.0000
  C   C133      1.0  0.57569  0.99640  0.48805  1.0000
  C   C134      1.0  0.60316  0.99729  0.56008  1.0000
  C   C135      1.0  0.58650  0.00145  0.64685  1.0000
  C   C136      1.0  0.54601  0.00023  0.66265  1.0000
  H   H83       1.0  0.91680  0.50378  0.41778  1.0000
  H   H84       1.0  0.58497  0.99439  0.42366  1.0000
  H   H85       1.0  0.49581  0.08164  0.46317  1.0000
  H   H86       1.0  0.50562  0.41483  0.45924  1.0000
  C   C137      1.0  0.50089  0.99816  0.44064  1.0000
  C   C138      1.0  0.50366  0.35367  0.33690  1.0000
  C   C139      1.0  0.99559  0.33516  0.41978  1.0000
  C   C140      1.0  0.99518  0.29390  0.42937  1.0000
  C   C141      1.0  0.50064  0.26909  0.35493  1.0000
  C   C142      1.0  0.99457  0.22731  0.35736  1.0000
  C   C143      1.0  0.50710  0.20331  0.42884  1.0000
  C   C144      1.0  0.50752  0.16199  0.42062  1.0000
  C   C145      1.0  0.99362  0.14289  0.34278  1.0000
  H   H87       1.0  0.51977  0.21569  0.48387  1.0000
  H   H88       1.0  0.52026  0.14617  0.47071  1.0000
  H   H89       1.0  0.98829  0.35138  0.47445  1.0000
  H   H90       1.0  0.98747  0.28224  0.48967  1.0000
  C   C146      1.0  0.64572  0.99557  0.54926  1.0000
  C   C147      1.0  0.67033  0.48757  0.62366  1.0000
  C   C148      1.0  0.71112  0.49209  0.62049  1.0000
  C   C149      1.0  0.73005  0.00171  0.54007  1.0000
  C   C150      1.0  0.70749  0.00158  0.46078  1.0000
  C   C151      1.0  0.66579  0.00081  0.46670  1.0000
  H   H91       1.0  0.65022  0.00435  0.40921  1.0000
  C   C152      1.0  0.77166  0.50669  0.53680  1.0000
  C   C153      1.0  0.79216  0.02435  0.60782  1.0000
  C   C154      1.0  0.83319  0.02579  0.60754  1.0000
  C   C155      1.0  0.85572  0.50719  0.54008  1.0000
  C   C156      1.0  0.83470  0.49408  0.46374  1.0000
  C   C157      1.0  0.79299  0.49572  0.45959  1.0000
  H   H92       1.0  0.77748  0.03620  0.66088  1.0000
  H   H93       1.0  0.84630  0.03920  0.66072  1.0000
  H   H94       1.0  0.84961  0.48210  0.41128  1.0000
  C   C158      1.0  0.77040  0.48376  0.37876  1.0000
  C   C159      1.0  0.72887  0.00346  0.37404  1.0000
  H   H95       1.0  0.76709  0.45183  0.37970  1.0000
  H   H96       1.0  0.73217  0.03434  0.35565  1.0000
  C   C160      1.0  0.50054  0.97847  0.29064  1.0000
  C   C161      1.0  0.50077  0.51924  0.29149  1.0000
  C   C162      1.0  0.49752  0.60113  0.32793  1.0000
  C   C163      1.0  0.50101  0.58632  0.23950  1.0000
  C   C164      1.0  0.50114  0.54602  0.22087  1.0000
  C   C165      1.0  0.49840  0.95230  0.21913  1.0000
  C   C166      1.0  0.49750  0.91187  0.23607  1.0000
  C   C167      1.0  0.50172  0.89591  0.32344  1.0000
  H   H97       1.0  0.60336  0.50588  0.03531  1.0000
  H   H98       1.0  0.53589  0.50174  0.05935  1.0000
  H   H99       1.0  0.96180  0.99643  0.05735  1.0000
  H   H100      1.0  0.89392  0.99566  0.02811  1.0000
  H   H101      1.0  0.50327  0.60463  0.18590  1.0000
  H   H102      1.0  0.50135  0.53682  0.15665  1.0000
  H   H103      1.0  0.49677  0.96209  0.15551  1.0000
  H   H104      1.0  0.49322  0.89455  0.18161  1.0000
  C   C168      1.0  0.50839  0.78695  0.27123  1.0000
  C   C169      1.0  0.51219  0.82798  0.26490  1.0000
  H   H105      1.0  0.52031  0.83876  0.20435  1.0000
  C   C170      1.0  0.97768  0.66737  0.27545  1.0000
  C   C171      1.0  0.98017  0.70856  0.27931  1.0000
  H   H106      1.0  0.96569  0.65537  0.21936  1.0000
  C   C172      1.0  0.97363  0.73222  0.19699  1.0000
  C   C173      1.0  0.50733  0.76264  0.18855  1.0000
  H   H107      1.0  0.94538  0.74734  0.20211  1.0000
  H   H108      1.0  0.97304  0.71409  0.13688  1.0000
  H   H109      1.0  0.00238  0.78038  0.12887  1.0000
  H   H110      1.0  0.53547  0.74752  0.18088  1.0000
  H   H111      1.0  0.65930  0.97859  0.01670  1.0000
  H   H112      1.0  0.78670  0.99169  0.31865  1.0000
  H   H113      1.0  0.71183  0.98897  0.32179  1.0000
  H   H114      1.0  0.72690  0.98709  0.01073  1.0000
  C   C174      1.0  0.50136  0.96457  0.37790  1.0000
  C   C175      1.0  0.50070  0.53235  0.37950  1.0000
  C   C176      1.0  0.49826  0.57303  0.39824  1.0000
  C   C177      1.0  0.50299  0.92368  0.39463  1.0000
  C   C178      1.0  0.53457  0.49774  0.50356  1.0000
  C   C179      1.0  0.52023  0.49802  0.59050  1.0000
  C   C180      1.0  0.97942  0.99773  0.58920  1.0000
  C   C181      1.0  0.96635  0.99820  0.50116  1.0000
  C   C182      1.0  0.95262  0.99702  0.65979  1.0000
  C   C183      1.0  0.91233  0.99770  0.64122  1.0000
  C   C184      1.0  0.89751  0.00200  0.55301  1.0000
  C   C185      1.0  0.92556  0.00100  0.48253  1.0000
  C   C186      1.0  0.57569  0.49640  0.48805  1.0000
  C   C187      1.0  0.60316  0.49729  0.56008  1.0000
  C   C188      1.0  0.58650  0.50145  0.64685  1.0000
  C   C189      1.0  0.54601  0.50023  0.66265  1.0000
  H   H115      1.0  0.91680  0.00378  0.41778  1.0000
  H   H116      1.0  0.58497  0.49439  0.42366  1.0000
  H   H117      1.0  0.49581  0.58164  0.46317  1.0000
  H   H118      1.0  0.50562  0.91483  0.45924  1.0000
  C   C190      1.0  0.50089  0.49816  0.44064  1.0000
  C   C191      1.0  0.50366  0.85367  0.33690  1.0000
  C   C192      1.0  0.99559  0.83516  0.41978  1.0000
  C   C193      1.0  0.99518  0.79390  0.42937  1.0000
  C   C194      1.0  0.50064  0.76909  0.35493  1.0000
  C   C195      1.0  0.99457  0.72731  0.35736  1.0000
  C   C196      1.0  0.50710  0.70331  0.42884  1.0000
  C   C197      1.0  0.50752  0.66199  0.42062  1.0000
  C   C198      1.0  0.99362  0.64289  0.34278  1.0000
  H   H119      1.0  0.51977  0.71569  0.48387  1.0000
  H   H120      1.0  0.52026  0.64617  0.47071  1.0000
  H   H121      1.0  0.98829  0.85138  0.47445  1.0000
  H   H122      1.0  0.98747  0.78224  0.48967  1.0000
  C   C199      1.0  0.64572  0.49557  0.54926  1.0000
  C   C200      1.0  0.67033  0.98757  0.62366  1.0000
  C   C201      1.0  0.71112  0.99209  0.62049  1.0000
  C   C202      1.0  0.73005  0.50171  0.54007  1.0000
  C   C203      1.0  0.70749  0.50158  0.46078  1.0000
  C   C204      1.0  0.66579  0.50082  0.46670  1.0000
  H   H123      1.0  0.65022  0.50435  0.40921  1.0000
  C   C205      1.0  0.77166  0.00669  0.53680  1.0000
  C   C206      1.0  0.79216  0.52435  0.60782  1.0000
  C   C207      1.0  0.83319  0.52579  0.60754  1.0000
  C   C208      1.0  0.85572  0.00720  0.54008  1.0000
  C   C209      1.0  0.83470  0.99408  0.46374  1.0000
  C   C210      1.0  0.79299  0.99572  0.45959  1.0000
  H   H124      1.0  0.77748  0.53620  0.66088  1.0000
  H   H125      1.0  0.84630  0.53920  0.66072  1.0000
  H   H126      1.0  0.84961  0.98210  0.41128  1.0000
  C   C211      1.0  0.77040  0.98376  0.37876  1.0000
  C   C212      1.0  0.72887  0.50346  0.37404  1.0000
  H   H127      1.0  0.76709  0.95184  0.37970  1.0000
  H   H128      1.0  0.73217  0.53435  0.35565  1.0000
