data_image0
_chemical_formula_structural       C3H2C2NC2NC4NC4NC35H23C21H18C16H16C2H2C2H2C3H2C2H2C2H2C3H2C18H17C3NC3NC2NC5NC34H24C3NC3NC5NC5NC36H26C4HNO2C4HNO2C3HNO2C4HNO2C4HNO2C3HNO2
_chemical_formula_sum              "C240 H144 N18 O12"
_cell_length_a       58.6825
_cell_length_b       58.6826
_cell_length_c       14.9706
_cell_angle_alpha    89.7736
_cell_angle_beta     90.2264
_cell_angle_gamma    120

_space_group_name_H-M_alt    "P 1"
_space_group_IT_number       1

loop_
  _space_group_symop_operation_xyz
  'x, y, z'

loop_
  _atom_site_type_symbol
  _atom_site_label
  _atom_site_symmetry_multiplicity
  _atom_site_fract_x
  _atom_site_fract_y
  _atom_site_fract_z
  _atom_site_occupancy
  C   C1        1.0  0.01987  0.48589  0.32873  1.0000
  C   C2        1.0  0.01134  0.50425  0.33164  1.0000
  C   C3        1.0  0.01159  0.60261  0.32985  1.0000
  H   H1        1.0  0.00846  0.46585  0.32749  1.0000
  H   H2        1.0  0.00897  0.63828  0.32486  1.0000
  C   C4        1.0  0.04704  0.49942  0.32732  1.0000
  C   C5        1.0  0.05573  0.52635  0.32999  1.0000
  N   N1        1.0  0.03357  0.52813  0.33222  1.0000
  C   C6        1.0  0.98458  0.49795  0.33383  1.0000
  C   C7        1.0  0.97596  0.51666  0.33411  1.0000
  N   N2        1.0  0.99087  0.54318  0.33167  1.0000
  C   C8        1.0  0.97604  0.55489  0.33224  1.0000
  C   C9        1.0  0.94989  0.53452  0.33520  1.0000
  C   C10       1.0  0.94984  0.51098  0.33631  1.0000
  C   C11       1.0  0.98477  0.58224  0.33033  1.0000
  N   N3        1.0  0.03374  0.60082  0.33218  1.0000
  C   C12       1.0  0.05598  0.62470  0.33162  1.0000
  C   C13       1.0  0.04744  0.64307  0.32860  1.0000
  C   C14       1.0  0.02028  0.62954  0.32711  1.0000
  C   C15       1.0  0.08274  0.63101  0.33395  1.0000
  N   N4        1.0  0.07645  0.58578  0.33188  1.0000
  C   C16       1.0  0.09127  0.57407  0.33241  1.0000
  C   C17       1.0  0.11743  0.59444  0.33530  1.0000
  C   C18       1.0  0.11749  0.61798  0.33643  1.0000
  C   C19       1.0  0.08255  0.54672  0.33047  1.0000
  C   C20       1.0  0.10226  0.53931  0.32864  1.0000
  C   C21       1.0  0.11465  0.53970  0.24755  1.0000
  C   C22       1.0  0.13541  0.53422  0.24660  1.0000
  C   C23       1.0  0.14427  0.52808  0.32639  1.0000
  C   C24       1.0  0.16641  0.52415  0.32620  1.0000
  C   C25       1.0  0.21210  0.53891  0.28341  1.0000
  C   C26       1.0  0.18976  0.54187  0.28049  1.0000
  C   C27       1.0  0.10251  0.65809  0.33628  1.0000
  C   C28       1.0  0.11291  0.67236  0.25635  1.0000
  C   C29       1.0  0.13341  0.69873  0.25897  1.0000
  C   C30       1.0  0.14417  0.71150  0.34130  1.0000
  C   C31       1.0  0.16598  0.73777  0.34369  1.0000
  C   C32       1.0  0.16687  0.75781  0.28832  1.0000
  C   C33       1.0  0.18885  0.78342  0.28884  1.0000
  C   C34       1.0  0.21077  0.78996  0.34475  1.0000
  C   C35       1.0  0.96507  0.58968  0.32859  1.0000
  C   C36       1.0  0.92350  0.60158  0.32636  1.0000
  C   C37       1.0  0.93193  0.59512  0.24668  1.0000
  C   C38       1.0  0.95248  0.58932  0.24762  1.0000
  C   C39       1.0  0.90169  0.60601  0.32614  1.0000
  C   C40       1.0  0.87807  0.58854  0.28111  1.0000
  C   C41       1.0  0.85607  0.59206  0.28387  1.0000
  C   C42       1.0  0.85693  0.61323  0.33158  1.0000
  C   C43       1.0  0.96479  0.47087  0.33614  1.0000
  C   C44       1.0  0.95401  0.45682  0.25618  1.0000
  C   C45       1.0  0.93331  0.43055  0.25880  1.0000
  C   C46       1.0  0.92269  0.41766  0.34115  1.0000
  C   C47       1.0  0.90058  0.39156  0.34358  1.0000
  C   C48       1.0  0.85509  0.33982  0.34447  1.0000
  C   C49       1.0  0.87674  0.34609  0.28796  1.0000
  C   C50       1.0  0.89906  0.37147  0.28752  1.0000
  H   H3        1.0  0.87652  0.33212  0.24671  1.0000
  H   H4        1.0  0.91434  0.37510  0.24605  1.0000
  H   H5        1.0  0.92536  0.42125  0.19958  1.0000
  H   H6        1.0  0.96075  0.46581  0.19559  1.0000
  H   H7        1.0  0.05835  0.49069  0.32516  1.0000
  H   H8        1.0  0.03362  0.54449  0.33564  1.0000
  H   H9        1.0  0.03369  0.58446  0.33572  1.0000
  H   H10       1.0  0.93327  0.49285  0.33836  1.0000
  H   H11       1.0  0.93336  0.53617  0.33669  1.0000
  H   H12       1.0  0.95787  0.58439  0.18907  1.0000
  H   H13       1.0  0.92312  0.59452  0.18694  1.0000
  H   H14       1.0  0.05885  0.66311  0.32740  1.0000
  H   H15       1.0  0.13406  0.63612  0.33838  1.0000
  H   H16       1.0  0.10601  0.66349  0.19575  1.0000
  H   H17       1.0  0.14104  0.70822  0.19973  1.0000
  H   H18       1.0  0.18860  0.79735  0.24814  1.0000
  H   H19       1.0  0.15136  0.75399  0.24734  1.0000
  H   H20       1.0  0.19108  0.55774  0.24714  1.0000
  H   H21       1.0  0.22885  0.55264  0.25179  1.0000
  H   H22       1.0  0.14411  0.53489  0.18678  1.0000
  H   H23       1.0  0.10901  0.54451  0.18894  1.0000
  H   H24       1.0  0.87632  0.57248  0.24826  1.0000
  H   H25       1.0  0.83910  0.57851  0.25276  1.0000
  C   C51       1.0  0.54502  0.52001  0.33496  1.0000
  C   C52       1.0  0.56538  0.51421  0.33779  1.0000
  C   C53       1.0  0.58892  0.53769  0.33889  1.0000
  C   C54       1.0  0.56023  0.67397  0.25031  1.0000
  C   C55       1.0  0.56570  0.70021  0.24934  1.0000
  C   C56       1.0  0.56102  0.77214  0.28602  1.0000
  C   C57       1.0  0.55805  0.74685  0.28320  1.0000
  C   C58       1.0  0.42760  0.53953  0.25852  1.0000
  C   C59       1.0  0.40124  0.53365  0.26082  1.0000
  C   C60       1.0  0.34213  0.50795  0.28958  1.0000
  C   C61       1.0  0.31652  0.50432  0.28969  1.0000
  C   C62       1.0  0.30993  0.51962  0.34525  1.0000
  C   C63       1.0  0.50477  0.43584  0.24941  1.0000
  C   C64       1.0  0.51057  0.46218  0.25036  1.0000
  C   C65       1.0  0.51138  0.38850  0.28382  1.0000
  C   C66       1.0  0.50787  0.36298  0.28656  1.0000
  C   C67       1.0  0.64304  0.59622  0.25838  1.0000
  C   C68       1.0  0.66931  0.60178  0.26070  1.0000
  C   C69       1.0  0.76011  0.61413  0.34502  1.0000
  C   C70       1.0  0.75379  0.62965  0.28884  1.0000
  C   C71       1.0  0.72840  0.62658  0.28883  1.0000
  H   H26       1.0  0.76772  0.64350  0.24752  1.0000
  H   H27       1.0  0.72474  0.63833  0.24756  1.0000
  H   H28       1.0  0.67857  0.60331  0.20136  1.0000
  H   H29       1.0  0.63400  0.59412  0.19790  1.0000
  H   H30       1.0  0.60706  0.53925  0.34087  1.0000
  H   H31       1.0  0.51551  0.47263  0.19182  1.0000
  H   H32       1.0  0.50536  0.42775  0.18966  1.0000
  H   H33       1.0  0.46162  0.46956  0.32785  1.0000
  H   H34       1.0  0.43651  0.54157  0.19803  1.0000
  H   H35       1.0  0.39178  0.53185  0.20147  1.0000
  H   H36       1.0  0.30264  0.49020  0.24895  1.0000
  H   H37       1.0  0.34599  0.49632  0.24885  1.0000
  H   H38       1.0  0.54218  0.73236  0.24983  1.0000
  H   H39       1.0  0.54727  0.77522  0.25449  1.0000
  H   H40       1.0  0.56503  0.70835  0.18952  1.0000
  H   H41       1.0  0.55540  0.66363  0.19173  1.0000
  H   H42       1.0  0.52743  0.40288  0.25092  1.0000
  H   H43       1.0  0.52142  0.35963  0.25540  1.0000
  C   C72       1.0  0.42607  0.98536  0.25155  1.0000
  C   C73       1.0  0.39984  0.96460  0.25008  1.0000
  C   C74       1.0  0.32786  0.88787  0.28524  1.0000
  C   C75       1.0  0.35316  0.91021  0.28292  1.0000
  C   C76       1.0  0.56040  0.98707  0.26106  1.0000
  C   C77       1.0  0.56630  0.96660  0.26340  1.0000
  C   C78       1.0  0.59199  0.93313  0.29225  1.0000
  C   C79       1.0  0.59562  0.91115  0.29238  1.0000
  C   C80       1.0  0.66393  0.16786  0.25014  1.0000
  C   C81       1.0  0.63759  0.14732  0.25162  1.0000
  C   C82       1.0  0.71135  0.22176  0.28341  1.0000
  C   C83       1.0  0.73687  0.24376  0.28562  1.0000
  C   C84       1.0  0.50367  0.14581  0.26086  1.0000
  C   C85       1.0  0.49809  0.16650  0.26320  1.0000
  C   C86       1.0  0.47028  0.22310  0.29146  1.0000
  C   C87       1.0  0.47334  0.20077  0.29142  1.0000
  H   H44       1.0  0.45642  0.22326  0.25018  1.0000
  H   H45       1.0  0.46158  0.18544  0.25018  1.0000
  H   H46       1.0  0.49659  0.17438  0.20388  1.0000
  H   H47       1.0  0.50576  0.13900  0.20036  1.0000
  H   H48       1.0  0.62705  0.14185  0.19326  1.0000
  H   H49       1.0  0.67194  0.17659  0.19020  1.0000
  H   H50       1.0  0.55835  0.99405  0.20055  1.0000
  H   H51       1.0  0.56806  0.95902  0.20407  1.0000
  H   H52       1.0  0.60972  0.91145  0.25160  1.0000
  H   H53       1.0  0.60360  0.94869  0.25147  1.0000
  H   H54       1.0  0.36770  0.90893  0.24977  1.0000
  H   H55       1.0  0.32482  0.87115  0.25350  1.0000
  H   H56       1.0  0.39178  0.95598  0.19008  1.0000
  H   H57       1.0  0.43650  0.99107  0.19314  1.0000
  H   H58       1.0  0.69691  0.22348  0.25086  1.0000
  H   H59       1.0  0.74017  0.26070  0.25444  1.0000
  C   C88       1.0  0.24776  0.51551  0.25824  1.0000
  C   C89       1.0  0.27185  0.51580  0.26077  1.0000
  H   H60       1.0  0.23973  0.51534  0.19722  1.0000
  H   H61       1.0  0.28079  0.51642  0.20153  1.0000
  C   C90       1.0  0.58441  0.83126  0.26092  1.0000
  C   C91       1.0  0.58412  0.85505  0.26345  1.0000
  H   H62       1.0  0.58457  0.82352  0.19990  1.0000
  H   H63       1.0  0.58350  0.86349  0.20421  1.0000
  C   C92       1.0  0.23369  0.81555  0.34288  1.0000
  C   C93       1.0  0.26879  0.85223  0.25895  1.0000
  C   C94       1.0  0.24499  0.82813  0.26098  1.0000
  H   H64       1.0  0.27662  0.86033  0.19809  1.0000
  H   H65       1.0  0.23664  0.81926  0.20156  1.0000
  C   C95       1.0  0.82131  0.61654  0.25784  1.0000
  C   C96       1.0  0.79753  0.61685  0.26038  1.0000
  H   H66       1.0  0.82906  0.61639  0.19681  1.0000
  H   H67       1.0  0.78852  0.61635  0.20115  1.0000
  C   C97       1.0  0.48340  0.30380  0.26048  1.0000
  C   C98       1.0  0.48310  0.27970  0.26300  1.0000
  H   H68       1.0  0.48354  0.31181  0.19946  1.0000
  H   H69       1.0  0.48358  0.27130  0.20378  1.0000
  C   C99       1.0  0.83183  0.31449  0.34249  1.0000
  C   C100      1.0  0.79601  0.27850  0.25851  1.0000
  C   C101      1.0  0.82011  0.30230  0.26055  1.0000
  H   H70       1.0  0.78790  0.27068  0.19765  1.0000
  H   H71       1.0  0.82840  0.31124  0.20115  1.0000
  C   C102      1.0  0.09136  0.61230  0.33431  1.0000
  C   C103      1.0  0.13134  0.52719  0.40712  1.0000
  C   C104      1.0  0.11070  0.53287  0.40841  1.0000
  C   C105      1.0  0.16612  0.50312  0.37387  1.0000
  C   C106      1.0  0.18842  0.50004  0.37631  1.0000
  C   C107      1.0  0.21186  0.51806  0.33186  1.0000
  C   C108      1.0  0.13335  0.69705  0.42107  1.0000
  C   C109      1.0  0.11279  0.67073  0.41875  1.0000
  C   C110      1.0  0.20980  0.76993  0.40039  1.0000
  C   C111      1.0  0.18785  0.74437  0.39995  1.0000
  C   C112      1.0  0.95702  0.59637  0.40825  1.0000
  C   C113      1.0  0.93660  0.60237  0.40697  1.0000
  C   C114      1.0  0.88064  0.63099  0.37533  1.0000
  C   C115      1.0  0.90261  0.62737  0.37301  1.0000
  C   C116      1.0  0.95470  0.45808  0.41861  1.0000
  C   C117      1.0  0.93393  0.43186  0.42094  1.0000
  C   C118      1.0  0.87899  0.38524  0.40042  1.0000
  C   C119      1.0  0.85670  0.35989  0.40085  1.0000
  H   H72       1.0  0.84120  0.35653  0.44077  1.0000
  H   H73       1.0  0.87886  0.39932  0.44016  1.0000
  H   H74       1.0  0.92701  0.42324  0.48188  1.0000
  H   H75       1.0  0.96208  0.46793  0.47746  1.0000
  H   H76       1.0  0.96562  0.59643  0.46794  1.0000
  H   H77       1.0  0.93070  0.60632  0.46631  1.0000
  H   H78       1.0  0.13396  0.59279  0.33671  1.0000
  H   H79       1.0  0.10565  0.66074  0.47758  1.0000
  H   H80       1.0  0.14038  0.70559  0.48200  1.0000
  H   H81       1.0  0.18842  0.73034  0.43916  1.0000
  H   H82       1.0  0.22552  0.77351  0.43991  1.0000
  H   H83       1.0  0.10228  0.53285  0.46820  1.0000
  H   H84       1.0  0.13757  0.52349  0.46654  1.0000
  H   H85       1.0  0.18744  0.48455  0.41121  1.0000
  H   H86       1.0  0.14953  0.48970  0.40700  1.0000
  H   H87       1.0  0.91941  0.64063  0.40558  1.0000
  H   H88       1.0  0.88208  0.64672  0.40962  1.0000
  C   C120      1.0  0.61402  0.63283  0.33143  1.0000
  C   C121      1.0  0.60049  0.64648  0.33009  1.0000
  C   C122      1.0  0.57356  0.62824  0.33280  1.0000
  N   N5        1.0  0.57178  0.60430  0.33504  1.0000
  C   C123      1.0  0.59566  0.60594  0.33435  1.0000
  C   C124      1.0  0.60197  0.58548  0.33647  1.0000
  C   C125      1.0  0.58325  0.55814  0.33680  1.0000
  N   N6        1.0  0.55673  0.54654  0.33443  1.0000
  C   C126      1.0  0.51766  0.50138  0.33312  1.0000
  C   C127      1.0  0.49730  0.50784  0.33272  1.0000
  N   N7        1.0  0.49908  0.53177  0.33500  1.0000
  C   C128      1.0  0.47521  0.53013  0.33439  1.0000
  C   C129      1.0  0.45684  0.50324  0.33149  1.0000
  C   C130      1.0  0.47037  0.48960  0.33007  1.0000
  C   C131      1.0  0.46890  0.55059  0.33657  1.0000
  C   C132      1.0  0.48762  0.57792  0.33693  1.0000
  N   N8        1.0  0.51413  0.58952  0.33465  1.0000
  C   C133      1.0  0.52584  0.61606  0.33517  1.0000
  C   C134      1.0  0.50548  0.62185  0.33793  1.0000
  C   C135      1.0  0.48194  0.59836  0.33897  1.0000
  C   C136      1.0  0.55320  0.63469  0.33329  1.0000
  C   C137      1.0  0.56061  0.66181  0.33144  1.0000
  C   C138      1.0  0.57185  0.71507  0.32911  1.0000
  C   C139      1.0  0.57271  0.70285  0.40986  1.0000
  C   C140      1.0  0.56707  0.67655  0.41118  1.0000
  C   C141      1.0  0.57577  0.74113  0.32890  1.0000
  C   C142      1.0  0.59681  0.76178  0.37654  1.0000
  C   C143      1.0  0.59988  0.78715  0.37899  1.0000
  C   C144      1.0  0.58186  0.79266  0.33454  1.0000
  C   C145      1.0  0.44181  0.54327  0.33862  1.0000
  C   C146      1.0  0.38840  0.53151  0.34298  1.0000
  C   C147      1.0  0.40279  0.53501  0.42293  1.0000
  C   C148      1.0  0.42911  0.54077  0.42093  1.0000
  C   C149      1.0  0.36212  0.52702  0.34502  1.0000
  C   C150      1.0  0.32990  0.53859  0.40099  1.0000
  C   C151      1.0  0.35547  0.54221  0.40091  1.0000
  C   C152      1.0  0.51023  0.47425  0.33135  1.0000
  C   C153      1.0  0.50353  0.45934  0.41101  1.0000
  C   C154      1.0  0.49754  0.43293  0.40971  1.0000
  C   C155      1.0  0.49832  0.42079  0.32908  1.0000
  C   C156      1.0  0.49390  0.39454  0.32885  1.0000
  C   C157      1.0  0.48670  0.34256  0.33424  1.0000
  C   C158      1.0  0.46894  0.34841  0.37802  1.0000
  C   C159      1.0  0.47255  0.37401  0.37572  1.0000
  C   C160      1.0  0.62905  0.59277  0.33850  1.0000
  C   C161      1.0  0.64189  0.59527  0.42083  1.0000
  C   C162      1.0  0.68226  0.60387  0.34290  1.0000
  C   C163      1.0  0.66812  0.60071  0.42284  1.0000
  C   C164      1.0  0.70837  0.60787  0.34498  1.0000
  C   C165      1.0  0.71475  0.59247  0.40152  1.0000
  C   C166      1.0  0.74010  0.59553  0.40151  1.0000
  H   H89       1.0  0.74350  0.58330  0.44123  1.0000
  H   H90       1.0  0.70071  0.57816  0.44131  1.0000
  H   H91       1.0  0.67679  0.60227  0.48367  1.0000
  H   H92       1.0  0.63208  0.59264  0.47978  1.0000
  H   H93       1.0  0.63406  0.64147  0.33013  1.0000
  H   H94       1.0  0.60923  0.66652  0.32790  1.0000
  H   H95       1.0  0.55543  0.58799  0.33848  1.0000
  H   H96       1.0  0.51545  0.54808  0.33824  1.0000
  H   H97       1.0  0.56373  0.49603  0.33928  1.0000
  H   H98       1.0  0.50351  0.46777  0.47072  1.0000
  H   H99       1.0  0.49361  0.42296  0.46904  1.0000
  H   H100      1.0  0.43680  0.49460  0.33029  1.0000
  H   H101      1.0  0.50713  0.64002  0.33928  1.0000
  H   H102      1.0  0.46380  0.59679  0.34081  1.0000
  H   H103      1.0  0.43907  0.54355  0.47987  1.0000
  H   H104      1.0  0.39421  0.53341  0.48376  1.0000
  H   H105      1.0  0.36945  0.55673  0.44026  1.0000
  H   H106      1.0  0.32627  0.55065  0.44032  1.0000
  H   H107      1.0  0.56706  0.66802  0.47098  1.0000
  H   H108      1.0  0.57644  0.71267  0.46926  1.0000
  H   H109      1.0  0.61537  0.80159  0.41390  1.0000
  H   H110      1.0  0.61023  0.75855  0.40969  1.0000
  H   H111      1.0  0.45929  0.37748  0.40832  1.0000
  H   H112      1.0  0.45322  0.33406  0.41232  1.0000
  C   C167      1.0  0.46707  0.08003  0.33378  1.0000
  C   C168      1.0  0.45344  0.05286  0.33228  1.0000
  C   C169      1.0  0.47168  0.04417  0.33493  1.0000
  N   N9        1.0  0.49561  0.06633  0.33734  1.0000
  C   C170      1.0  0.49397  0.08856  0.33673  1.0000
  C   C171      1.0  0.51443  0.11533  0.33888  1.0000
  C   C172      1.0  0.54176  0.12394  0.33914  1.0000
  N   N10       1.0  0.55337  0.10903  0.33672  1.0000
  C   C173      1.0  0.57990  0.12386  0.33711  1.0000
  C   C174      1.0  0.58570  0.15002  0.33989  1.0000
  C   C175      1.0  0.56222  0.15007  0.34114  1.0000
  C   C176      1.0  0.59853  0.11514  0.33512  1.0000
  C   C177      1.0  0.59207  0.08832  0.33482  1.0000
  N   N11       1.0  0.56815  0.06616  0.33734  1.0000
  C   C178      1.0  0.56979  0.04393  0.33676  1.0000
  C   C179      1.0  0.59668  0.05246  0.33367  1.0000
  C   C180      1.0  0.61031  0.07963  0.33204  1.0000
  C   C181      1.0  0.54934  0.01716  0.33904  1.0000
  C   C182      1.0  0.52201  0.00854  0.33930  1.0000
  N   N12       1.0  0.51040  0.02346  0.33693  1.0000
  C   C183      1.0  0.48387  0.00863  0.33726  1.0000
  C   C184      1.0  0.47808  0.98247  0.34000  1.0000
  C   C185      1.0  0.50156  0.98241  0.34124  1.0000
  C   C186      1.0  0.46523  0.01736  0.33523  1.0000
  C   C187      1.0  0.43811  0.99764  0.33292  1.0000
  C   C188      1.0  0.38487  0.95564  0.32959  1.0000
  C   C189      1.0  0.39696  0.96845  0.41060  1.0000
  C   C190      1.0  0.42327  0.98910  0.41241  1.0000
  C   C191      1.0  0.35880  0.93350  0.32884  1.0000
  C   C192      1.0  0.33808  0.93374  0.37618  1.0000
  C   C193      1.0  0.31270  0.91143  0.37806  1.0000
  C   C194      1.0  0.30726  0.88804  0.33337  1.0000
  C   C195      1.0  0.55666  0.99739  0.34113  1.0000
  C   C196      1.0  0.56843  0.95574  0.34560  1.0000
  C   C197      1.0  0.56492  0.96647  0.42551  1.0000
  C   C198      1.0  0.55916  0.98703  0.42347  1.0000
  C   C199      1.0  0.57292  0.93394  0.34768  1.0000
  C   C200      1.0  0.58032  0.88915  0.34797  1.0000
  C   C201      1.0  0.56137  0.89006  0.40376  1.0000
  C   C202      1.0  0.55775  0.91201  0.40366  1.0000
  C   C203      1.0  0.62566  0.13484  0.33286  1.0000
  C   C204      1.0  0.64069  0.14298  0.41225  1.0000
  C   C205      1.0  0.66709  0.16341  0.41042  1.0000
  C   C206      1.0  0.67911  0.17639  0.32952  1.0000
  C   C207      1.0  0.70536  0.19820  0.32873  1.0000
  C   C208      1.0  0.75736  0.24296  0.33304  1.0000
  C   C209      1.0  0.75157  0.21931  0.37705  1.0000
  C   C210      1.0  0.72597  0.19734  0.37529  1.0000
  C   C211      1.0  0.50713  0.13511  0.34095  1.0000
  C   C212      1.0  0.50465  0.14529  0.42330  1.0000
  C   C213      1.0  0.49604  0.17721  0.34542  1.0000
  C   C214      1.0  0.49921  0.16607  0.42535  1.0000
  C   C215      1.0  0.49206  0.19933  0.34753  1.0000
  C   C216      1.0  0.50746  0.22099  0.40408  1.0000
  C   C217      1.0  0.50443  0.24330  0.40403  1.0000
  C   C218      1.0  0.48582  0.24483  0.34760  1.0000
  H   H113      1.0  0.51665  0.25884  0.44380  1.0000
  H   H114      1.0  0.52178  0.22117  0.44384  1.0000
  H   H115      1.0  0.49767  0.17306  0.48619  1.0000
  H   H116      1.0  0.50728  0.13799  0.48223  1.0000
  H   H117      1.0  0.45844  0.09144  0.33251  1.0000
  H   H118      1.0  0.43339  0.04155  0.33001  1.0000
  H   H119      1.0  0.51193  0.06628  0.34057  1.0000
  H   H120      1.0  0.55184  0.06621  0.34088  1.0000
  H   H121      1.0  0.56065  0.16664  0.34310  1.0000
  H   H122      1.0  0.60388  0.16654  0.34127  1.0000
  H   H123      1.0  0.63235  0.13447  0.47213  1.0000
  H   H124      1.0  0.67716  0.16939  0.46956  1.0000
  H   H125      1.0  0.63036  0.09093  0.32960  1.0000
  H   H126      1.0  0.60532  0.04106  0.33233  1.0000
  H   H127      1.0  0.45990  0.96594  0.34121  1.0000
  H   H128      1.0  0.50313  0.96584  0.34308  1.0000
  H   H129      1.0  0.55639  0.99411  0.48240  1.0000
  H   H130      1.0  0.56653  0.95938  0.48635  1.0000
  H   H131      1.0  0.54320  0.91137  0.44290  1.0000
  H   H132      1.0  0.54928  0.87428  0.44299  1.0000
  H   H133      1.0  0.43170  0.99745  0.47239  1.0000
  H   H134      1.0  0.38705  0.96217  0.46981  1.0000
  H   H135      1.0  0.29820  0.91237  0.41274  1.0000
  H   H136      1.0  0.34126  0.95028  0.40946  1.0000
  H   H137      1.0  0.72254  0.18058  0.40805  1.0000
  H   H138      1.0  0.76597  0.21791  0.41115  1.0000
  C   C219      1.0  0.28434  0.51694  0.34292  1.0000
  C   C220      1.0  0.27136  0.51694  0.42239  1.0000
  C   C221      1.0  0.24704  0.51659  0.42106  1.0000
  C   C222      1.0  0.23511  0.51610  0.33773  1.0000
  H   H139      1.0  0.27986  0.51762  0.48290  1.0000
  N   N13       1.0  0.23530  0.51811  0.50169  1.0000
  O   O1        1.0  0.22988  0.49887  0.55200  1.0000
  O   O2        1.0  0.24995  0.53900  0.54341  1.0000
  C   C223      1.0  0.58298  0.86623  0.34560  1.0000
  C   C224      1.0  0.58299  0.85310  0.42507  1.0000
  C   C225      1.0  0.58332  0.82912  0.42374  1.0000
  C   C226      1.0  0.58382  0.81785  0.34041  1.0000
  H   H140      1.0  0.58230  0.86079  0.48559  1.0000
  N   N14       1.0  0.58180  0.81570  0.50436  1.0000
  O   O3        1.0  0.60105  0.82941  0.55468  1.0000
  O   O4        1.0  0.56092  0.80938  0.54608  1.0000
  C   C227      1.0  0.24669  0.82844  0.42263  1.0000
  C   C228      1.0  0.27066  0.85277  0.42181  1.0000
  C   C229      1.0  0.28207  0.86479  0.33872  1.0000
  H   H141      1.0  0.23890  0.81987  0.48297  1.0000
  N   N15       1.0  0.28395  0.86442  0.50271  1.0000
  O   O5        1.0  0.27014  0.86978  0.55282  1.0000
  O   O6        1.0  0.29021  0.84973  0.54445  1.0000
  C   C230      1.0  0.78544  0.61619  0.34256  1.0000
  C   C231      1.0  0.79849  0.61603  0.42203  1.0000
  C   C232      1.0  0.82250  0.61575  0.42069  1.0000
  C   C233      1.0  0.83404  0.61578  0.33735  1.0000
  H   H142      1.0  0.79027  0.61567  0.48257  1.0000
  N   N16       1.0  0.83429  0.61408  0.50138  1.0000
  O   O7        1.0  0.84029  0.63352  0.55095  1.0000
  O   O8        1.0  0.81943  0.59339  0.54390  1.0000
  C   C234      1.0  0.48376  0.26810  0.34518  1.0000
  C   C235      1.0  0.48393  0.28115  0.42466  1.0000
  C   C236      1.0  0.48420  0.30544  0.42334  1.0000
  C   C237      1.0  0.48417  0.31711  0.34000  1.0000
  H   H143      1.0  0.48428  0.27315  0.48518  1.0000
  N   N17       1.0  0.48587  0.31874  0.50403  1.0000
  O   O9        1.0  0.46643  0.30518  0.55359  1.0000
  O   O10       1.0  0.50656  0.32448  0.54655  1.0000
  C   C238      1.0  0.81891  0.30152  0.42223  1.0000
  C   C239      1.0  0.79462  0.27750  0.42141  1.0000
  C   C240      1.0  0.78282  0.26587  0.33830  1.0000
  H   H144      1.0  0.82699  0.30982  0.48261  1.0000
  N   N18       1.0  0.78144  0.26580  0.50236  1.0000
  O   O11       1.0  0.79508  0.25987  0.55176  1.0000
  O   O12       1.0  0.77576  0.28070  0.54488  1.0000
