data_image0
_chemical_formula_structural       C4H2C2NC2NC4NC3NC35H23C21H18C16H16C2H2C2H2C4H2C2H2C2H2C4H2C18H17C3NC3NC2NC5NC34H24C3NC3NC5NC5NC36H26C4NC2NH2C4NC2NH2C2NC2NH2C4NC2NH2C4NC2NH2C2NC2NH2
_chemical_formula_sum              "C252 H150 N24"
_cell_length_a       58.6786
_cell_length_b       58.6786
_cell_length_c       14.9701
_cell_angle_alpha    89.7736
_cell_angle_beta     90.2264
_cell_angle_gamma    120

_space_group_name_H-M_alt    "P 1"
_space_group_IT_number       1

loop_
  _space_group_symop_operation_xyz
  'x, y, z'

loop_
  _atom_site_type_symbol
  _atom_site_label
  _atom_site_symmetry_multiplicity
  _atom_site_fract_x
  _atom_site_fract_y
  _atom_site_fract_z
  _atom_site_occupancy
  C   C1        1.0  0.02002  0.48594  0.32843  1.0000
  C   C2        1.0  0.01145  0.50428  0.33069  1.0000
  C   C3        1.0  0.01153  0.60257  0.32881  1.0000
  C   C4        1.0  0.02019  0.62950  0.32665  1.0000
  H   H1        1.0  0.00864  0.46589  0.32763  1.0000
  H   H2        1.0  0.00887  0.63823  0.32471  1.0000
  C   C5        1.0  0.04719  0.49951  0.32687  1.0000
  C   C6        1.0  0.05585  0.52644  0.32895  1.0000
  N   N1        1.0  0.03367  0.52818  0.33088  1.0000
  C   C7        1.0  0.98467  0.49794  0.33271  1.0000
  C   C8        1.0  0.97602  0.51663  0.33270  1.0000
  N   N2        1.0  0.99090  0.54316  0.33041  1.0000
  C   C9        1.0  0.97604  0.55483  0.33070  1.0000
  C   C10       1.0  0.94989  0.53443  0.33335  1.0000
  C   C11       1.0  0.94988  0.51091  0.33445  1.0000
  C   C12       1.0  0.98472  0.58218  0.32898  1.0000
  N   N3        1.0  0.03371  0.60082  0.33081  1.0000
  C   C13       1.0  0.05593  0.62472  0.33063  1.0000
  C   C14       1.0  0.04736  0.64306  0.32826  1.0000
  C   C15       1.0  0.08271  0.63107  0.33277  1.0000
  N   N4        1.0  0.07648  0.58586  0.33058  1.0000
  C   C16       1.0  0.09135  0.57418  0.33085  1.0000
  C   C17       1.0  0.11750  0.59458  0.33345  1.0000
  C   C18       1.0  0.11751  0.61810  0.33457  1.0000
  C   C19       1.0  0.08266  0.54683  0.32911  1.0000
  C   C20       1.0  0.10242  0.53947  0.32725  1.0000
  C   C21       1.0  0.11521  0.54042  0.24646  1.0000
  C   C22       1.0  0.13601  0.53498  0.24562  1.0000
  C   C23       1.0  0.14445  0.52826  0.32516  1.0000
  C   C24       1.0  0.16658  0.52435  0.32517  1.0000
  C   C25       1.0  0.21261  0.53962  0.28578  1.0000
  C   C26       1.0  0.19030  0.54264  0.28260  1.0000
  C   C27       1.0  0.10246  0.65817  0.33544  1.0000
  C   C28       1.0  0.11226  0.67279  0.25576  1.0000
  C   C29       1.0  0.13275  0.69916  0.25858  1.0000
  C   C30       1.0  0.14412  0.71157  0.34085  1.0000
  C   C31       1.0  0.16593  0.73784  0.34335  1.0000
  C   C32       1.0  0.16629  0.75819  0.29111  1.0000
  C   C33       1.0  0.18817  0.78387  0.29225  1.0000
  C   C34       1.0  0.21043  0.79007  0.34588  1.0000
  C   C35       1.0  0.96498  0.58958  0.32723  1.0000
  C   C36       1.0  0.92339  0.60144  0.32516  1.0000
  C   C37       1.0  0.93144  0.59447  0.24572  1.0000
  C   C38       1.0  0.95202  0.58872  0.24656  1.0000
  C   C39       1.0  0.90158  0.60586  0.32512  1.0000
  C   C40       1.0  0.87762  0.58787  0.28304  1.0000
  C   C41       1.0  0.85565  0.59143  0.28606  1.0000
  C   C42       1.0  0.85687  0.61320  0.33091  1.0000
  C   C43       1.0  0.96491  0.47084  0.33541  1.0000
  C   C44       1.0  0.95476  0.45642  0.25570  1.0000
  C   C45       1.0  0.93406  0.43014  0.25853  1.0000
  C   C46       1.0  0.92280  0.41764  0.34084  1.0000
  C   C47       1.0  0.90067  0.39156  0.34335  1.0000
  C   C48       1.0  0.85547  0.33978  0.34566  1.0000
  C   C49       1.0  0.87747  0.34566  0.29166  1.0000
  C   C50       1.0  0.89970  0.37111  0.29061  1.0000
  H   H3        1.0  0.87753  0.33137  0.25282  1.0000
  H   H4        1.0  0.91533  0.37452  0.25131  1.0000
  H   H5        1.0  0.92659  0.42054  0.19938  1.0000
  H   H6        1.0  0.96196  0.46514  0.19505  1.0000
  H   H7        1.0  0.05852  0.49079  0.32502  1.0000
  H   H8        1.0  0.03370  0.54453  0.33358  1.0000
  H   H9        1.0  0.03369  0.58447  0.33363  1.0000
  H   H10       1.0  0.93332  0.49276  0.33624  1.0000
  H   H11       1.0  0.93334  0.53604  0.33464  1.0000
  H   H12       1.0  0.95716  0.58343  0.18821  1.0000
  H   H13       1.0  0.92233  0.59347  0.18625  1.0000
  H   H14       1.0  0.05874  0.66311  0.32750  1.0000
  H   H15       1.0  0.13407  0.63626  0.33629  1.0000
  H   H16       1.0  0.10492  0.66416  0.19513  1.0000
  H   H17       1.0  0.13994  0.70892  0.19944  1.0000
  H   H18       1.0  0.18767  0.79807  0.25379  1.0000
  H   H19       1.0  0.15046  0.75456  0.25212  1.0000
  H   H20       1.0  0.19188  0.55893  0.25147  1.0000
  H   H21       1.0  0.22962  0.55378  0.25663  1.0000
  H   H22       1.0  0.14503  0.53610  0.18609  1.0000
  H   H23       1.0  0.10985  0.54562  0.18807  1.0000
  H   H24       1.0  0.87562  0.57142  0.25226  1.0000
  H   H25       1.0  0.83844  0.57748  0.25729  1.0000
  C   C51       1.0  0.54513  0.52007  0.33346  1.0000
  C   C52       1.0  0.56553  0.51432  0.33600  1.0000
  C   C53       1.0  0.58905  0.53782  0.33709  1.0000
  C   C54       1.0  0.55958  0.67383  0.24920  1.0000
  C   C55       1.0  0.56500  0.70005  0.24832  1.0000
  C   C56       1.0  0.56034  0.77193  0.28831  1.0000
  C   C57       1.0  0.55733  0.74661  0.28523  1.0000
  C   C58       1.0  0.42723  0.53847  0.25799  1.0000
  C   C59       1.0  0.40085  0.53257  0.26051  1.0000
  C   C60       1.0  0.34180  0.50699  0.29248  1.0000
  C   C61       1.0  0.31612  0.50319  0.29324  1.0000
  C   C62       1.0  0.30986  0.51916  0.34651  1.0000
  C   C63       1.0  0.50548  0.43601  0.24847  1.0000
  C   C64       1.0  0.51123  0.46233  0.24932  1.0000
  C   C65       1.0  0.51210  0.38872  0.28578  1.0000
  C   C66       1.0  0.50854  0.36319  0.28878  1.0000
  C   C67       1.0  0.64350  0.59737  0.25796  1.0000
  C   C68       1.0  0.66977  0.60294  0.26050  1.0000
  C   C69       1.0  0.76022  0.61457  0.34637  1.0000
  C   C70       1.0  0.75428  0.63081  0.29266  1.0000
  C   C71       1.0  0.72882  0.62758  0.29200  1.0000
  H   H26       1.0  0.76852  0.64524  0.25371  1.0000
  H   H27       1.0  0.72537  0.63989  0.25286  1.0000
  H   H28       1.0  0.67933  0.60522  0.20125  1.0000
  H   H29       1.0  0.63474  0.59600  0.19741  1.0000
  H   H30       1.0  0.60720  0.53941  0.33883  1.0000
  H   H31       1.0  0.51653  0.47288  0.19098  1.0000
  H   H32       1.0  0.50648  0.42801  0.18899  1.0000
  H   H33       1.0  0.46173  0.46951  0.32765  1.0000
  H   H34       1.0  0.43589  0.53983  0.19747  1.0000
  H   H35       1.0  0.39112  0.53006  0.20127  1.0000
  H   H36       1.0  0.30195  0.48855  0.25474  1.0000
  H   H37       1.0  0.34547  0.49486  0.25375  1.0000
  H   H38       1.0  0.54104  0.73196  0.25409  1.0000
  H   H39       1.0  0.54616  0.77482  0.25924  1.0000
  H   H40       1.0  0.56388  0.70807  0.18878  1.0000
  H   H41       1.0  0.55434  0.66336  0.19085  1.0000
  H   H42       1.0  0.52854  0.40324  0.25497  1.0000
  H   H43       1.0  0.52249  0.35999  0.25995  1.0000
  C   C72       1.0  0.42627  0.98486  0.25045  1.0000
  C   C73       1.0  0.40005  0.96406  0.24906  1.0000
  C   C74       1.0  0.32811  0.88741  0.28756  1.0000
  C   C75       1.0  0.35343  0.90972  0.28500  1.0000
  C   C76       1.0  0.56151  0.98778  0.26056  1.0000
  C   C77       1.0  0.56744  0.96731  0.26314  1.0000
  C   C78       1.0  0.59299  0.93375  0.29520  1.0000
  C   C79       1.0  0.59677  0.91186  0.29595  1.0000
  C   C80       1.0  0.66381  0.16840  0.24912  1.0000
  C   C81       1.0  0.63748  0.14783  0.25053  1.0000
  C   C82       1.0  0.71117  0.22227  0.28522  1.0000
  C   C83       1.0  0.73671  0.24424  0.28769  1.0000
  C   C84       1.0  0.50257  0.14513  0.26041  1.0000
  C   C85       1.0  0.49697  0.16581  0.26299  1.0000
  C   C86       1.0  0.46915  0.22241  0.29524  1.0000
  C   C87       1.0  0.47237  0.20018  0.29457  1.0000
  H   H44       1.0  0.45471  0.22231  0.25633  1.0000
  H   H45       1.0  0.46006  0.18451  0.25545  1.0000
  H   H46       1.0  0.49472  0.17324  0.20375  1.0000
  H   H47       1.0  0.50393  0.13786  0.19984  1.0000
  H   H48       1.0  0.62685  0.14261  0.19236  1.0000
  H   H49       1.0  0.67171  0.17743  0.18944  1.0000
  H   H50       1.0  0.56014  0.99518  0.20002  1.0000
  H   H51       1.0  0.56990  0.96017  0.20391  1.0000
  H   H52       1.0  0.61141  0.91240  0.25743  1.0000
  H   H53       1.0  0.60512  0.94963  0.25642  1.0000
  H   H54       1.0  0.36813  0.90817  0.25409  1.0000
  H   H55       1.0  0.32525  0.87044  0.25831  1.0000
  H   H56       1.0  0.39212  0.95511  0.18935  1.0000
  H   H57       1.0  0.43682  0.99027  0.19226  1.0000
  H   H58       1.0  0.69660  0.22423  0.25475  1.0000
  H   H59       1.0  0.73985  0.26142  0.25881  1.0000
  C   C88       1.0  0.24930  0.51776  0.25858  1.0000
  C   C89       1.0  0.27326  0.51780  0.26226  1.0000
  H   H60       1.0  0.28322  0.52009  0.20385  1.0000
  H   H61       1.0  0.24242  0.51945  0.19738  1.0000
  C   C90       1.0  0.58216  0.83053  0.26122  1.0000
  C   C91       1.0  0.58210  0.85443  0.26494  1.0000
  H   H62       1.0  0.57986  0.86225  0.20652  1.0000
  H   H63       1.0  0.58050  0.82210  0.20000  1.0000
  C   C92       1.0  0.23320  0.81570  0.34463  1.0000
  C   C93       1.0  0.28195  0.86478  0.33800  1.0000
  C   C94       1.0  0.26955  0.85075  0.25918  1.0000
  C   C95       1.0  0.24563  0.82678  0.26234  1.0000
  H   H64       1.0  0.23795  0.81689  0.20375  1.0000
  H   H65       1.0  0.27809  0.85771  0.19815  1.0000
  C   C96       1.0  0.81982  0.61439  0.25832  1.0000
  C   C97       1.0  0.79616  0.61492  0.26205  1.0000
  H   H66       1.0  0.78615  0.61284  0.20369  1.0000
  H   H67       1.0  0.82643  0.61246  0.19716  1.0000
  C   C98       1.0  0.48559  0.30446  0.26095  1.0000
  C   C99       1.0  0.48504  0.28025  0.26463  1.0000
  H   H68       1.0  0.48714  0.27245  0.20627  1.0000
  H   H69       1.0  0.48752  0.31312  0.19980  1.0000
  C   C100      1.0  0.83235  0.31440  0.34431  1.0000
  C   C101      1.0  0.78297  0.26596  0.33761  1.0000
  C   C102      1.0  0.79539  0.28005  0.25885  1.0000
  C   C103      1.0  0.81959  0.30372  0.26206  1.0000
  H   H70       1.0  0.82732  0.31366  0.20352  1.0000
  H   H71       1.0  0.78665  0.27336  0.19785  1.0000
  C   C104      1.0  0.09136  0.61238  0.33286  1.0000
  C   C105      1.0  0.13112  0.52679  0.40552  1.0000
  C   C106      1.0  0.11048  0.53248  0.40675  1.0000
  C   C107      1.0  0.16587  0.50270  0.36987  1.0000
  C   C108      1.0  0.18814  0.49956  0.37236  1.0000
  C   C109      1.0  0.21199  0.51813  0.33117  1.0000
  C   C110      1.0  0.13390  0.69680  0.42041  1.0000
  C   C111      1.0  0.11333  0.67048  0.41789  1.0000
  C   C112      1.0  0.21017  0.76972  0.39758  1.0000
  C   C113      1.0  0.18828  0.74412  0.39665  1.0000
  C   C114      1.0  0.95727  0.59675  0.40665  1.0000
  C   C115      1.0  0.93685  0.60275  0.40542  1.0000
  C   C116      1.0  0.88096  0.63147  0.37158  1.0000
  C   C117      1.0  0.90289  0.62778  0.36920  1.0000
  C   C118      1.0  0.95419  0.45843  0.41791  1.0000
  C   C119      1.0  0.93340  0.43221  0.42043  1.0000
  C   C120      1.0  0.87856  0.38561  0.39701  1.0000
  C   C121      1.0  0.85633  0.36023  0.39789  1.0000
  H   H72       1.0  0.84045  0.35701  0.43542  1.0000
  H   H73       1.0  0.87804  0.39997  0.43404  1.0000
  H   H74       1.0  0.92599  0.42386  0.48135  1.0000
  H   H75       1.0  0.96110  0.46854  0.47655  1.0000
  H   H76       1.0  0.96614  0.59719  0.46613  1.0000
  H   H77       1.0  0.93122  0.60710  0.46459  1.0000
  H   H78       1.0  0.13405  0.59297  0.33472  1.0000
  H   H79       1.0  0.10664  0.66024  0.47653  1.0000
  H   H80       1.0  0.14139  0.70508  0.48131  1.0000
  H   H81       1.0  0.18923  0.72986  0.43331  1.0000
  H   H82       1.0  0.22625  0.77320  0.43486  1.0000
  H   H83       1.0  0.10176  0.53203  0.46633  1.0000
  H   H84       1.0  0.13705  0.52265  0.46477  1.0000
  H   H85       1.0  0.18679  0.48354  0.40477  1.0000
  H   H86       1.0  0.14901  0.48887  0.40062  1.0000
  H   H87       1.0  0.91996  0.64143  0.39952  1.0000
  H   H88       1.0  0.88274  0.64768  0.40353  1.0000
  C   C122      1.0  0.61402  0.63294  0.33111  1.0000
  C   C123      1.0  0.60046  0.64655  0.32961  1.0000
  C   C124      1.0  0.57353  0.62828  0.33175  1.0000
  N   N5        1.0  0.57179  0.60436  0.33370  1.0000
  C   C125      1.0  0.59569  0.60603  0.33339  1.0000
  C   C126      1.0  0.60203  0.58560  0.33537  1.0000
  C   C127      1.0  0.58333  0.55825  0.33542  1.0000
  N   N6        1.0  0.55680  0.54661  0.33319  1.0000
  C   C128      1.0  0.51778  0.50140  0.33178  1.0000
  C   C129      1.0  0.49739  0.50783  0.33166  1.0000
  N   N7        1.0  0.49914  0.53175  0.33364  1.0000
  C   C130      1.0  0.47524  0.53007  0.33339  1.0000
  C   C131      1.0  0.45690  0.50317  0.33111  1.0000
  C   C132      1.0  0.47045  0.48956  0.32956  1.0000
  C   C133      1.0  0.46889  0.55050  0.33541  1.0000
  C   C134      1.0  0.48759  0.57785  0.33552  1.0000
  N   N8        1.0  0.51411  0.58949  0.33337  1.0000
  C   C135      1.0  0.52579  0.61603  0.33363  1.0000
  C   C136      1.0  0.50539  0.62178  0.33613  1.0000
  C   C137      1.0  0.48187  0.59827  0.33716  1.0000
  C   C138      1.0  0.55314  0.63470  0.33192  1.0000
  C   C139      1.0  0.56051  0.66183  0.33002  1.0000
  C   C140      1.0  0.57172  0.71507  0.32783  1.0000
  C   C141      1.0  0.57317  0.70304  0.40822  1.0000
  C   C142      1.0  0.56751  0.67673  0.40949  1.0000
  C   C143      1.0  0.57563  0.74111  0.32780  1.0000
  C   C144      1.0  0.59727  0.76196  0.37249  1.0000
  C   C145      1.0  0.60040  0.78737  0.37497  1.0000
  C   C146      1.0  0.58182  0.79271  0.33377  1.0000
  C   C147      1.0  0.44179  0.54316  0.33782  1.0000
  C   C148      1.0  0.38838  0.53139  0.34262  1.0000
  C   C149      1.0  0.40310  0.53583  0.42234  1.0000
  C   C150      1.0  0.42942  0.54158  0.42013  1.0000
  C   C151      1.0  0.36210  0.52690  0.34480  1.0000
  C   C152      1.0  0.33016  0.53917  0.39831  1.0000
  C   C153      1.0  0.35577  0.54290  0.39773  1.0000
  C   C154      1.0  0.51038  0.47427  0.33001  1.0000
  C   C155      1.0  0.50320  0.45922  0.40942  1.0000
  C   C156      1.0  0.49721  0.43281  0.40818  1.0000
  C   C157      1.0  0.49851  0.42082  0.32789  1.0000
  C   C158      1.0  0.49409  0.39459  0.32785  1.0000
  C   C159      1.0  0.48678  0.34254  0.33359  1.0000
  C   C160      1.0  0.46850  0.34826  0.37428  1.0000
  C   C161      1.0  0.47218  0.37389  0.37193  1.0000
  C   C162      1.0  0.62913  0.59292  0.33781  1.0000
  C   C163      1.0  0.64161  0.59443  0.42017  1.0000
  C   C164      1.0  0.68233  0.60400  0.34266  1.0000
  C   C165      1.0  0.66782  0.59985  0.42240  1.0000
  C   C166      1.0  0.70843  0.60798  0.34486  1.0000
  C   C167      1.0  0.71444  0.59170  0.39826  1.0000
  C   C168      1.0  0.73983  0.59487  0.39874  1.0000
  H   H89       1.0  0.74308  0.58212  0.43609  1.0000
  H   H90       1.0  0.70011  0.57674  0.43536  1.0000
  H   H91       1.0  0.67621  0.60065  0.48322  1.0000
  H   H92       1.0  0.63152  0.59107  0.47890  1.0000
  H   H93       1.0  0.63407  0.64161  0.33024  1.0000
  H   H94       1.0  0.60918  0.66660  0.32772  1.0000
  H   H95       1.0  0.55544  0.58802  0.33644  1.0000
  H   H96       1.0  0.51550  0.54808  0.33622  1.0000
  H   H97       1.0  0.56392  0.49615  0.33731  1.0000
  H   H98       1.0  0.50279  0.46755  0.46892  1.0000
  H   H99       1.0  0.49286  0.42270  0.46735  1.0000
  H   H100      1.0  0.43685  0.49450  0.33035  1.0000
  H   H101      1.0  0.50700  0.63994  0.33734  1.0000
  H   H102      1.0  0.46371  0.59668  0.33879  1.0000
  H   H103      1.0  0.43962  0.54504  0.47886  1.0000
  H   H104      1.0  0.39477  0.53493  0.48313  1.0000
  H   H105      1.0  0.37000  0.55803  0.43453  1.0000
  H   H106      1.0  0.32665  0.55171  0.43540  1.0000
  H   H107      1.0  0.56793  0.66834  0.46910  1.0000
  H   H108      1.0  0.57733  0.71301  0.46745  1.0000
  H   H109      1.0  0.61640  0.80197  0.40740  1.0000
  H   H110      1.0  0.61110  0.75887  0.40326  1.0000
  H   H111      1.0  0.45854  0.37725  0.40227  1.0000
  H   H112      1.0  0.45230  0.33378  0.40623  1.0000
  C   C169      1.0  0.46701  0.07993  0.33341  1.0000
  C   C170      1.0  0.45341  0.05276  0.33176  1.0000
  C   C171      1.0  0.47168  0.04411  0.33386  1.0000
  N   N9        1.0  0.49560  0.06629  0.33598  1.0000
  C   C172      1.0  0.49392  0.08851  0.33574  1.0000
  C   C173      1.0  0.51436  0.11529  0.33776  1.0000
  C   C174      1.0  0.54170  0.12394  0.33774  1.0000
  N   N10       1.0  0.55335  0.10906  0.33546  1.0000
  C   C175      1.0  0.57988  0.12392  0.33556  1.0000
  C   C176      1.0  0.58564  0.15007  0.33805  1.0000
  C   C177      1.0  0.56213  0.15008  0.33930  1.0000
  C   C178      1.0  0.59856  0.11525  0.33375  1.0000
  C   C179      1.0  0.59214  0.08843  0.33377  1.0000
  N   N11       1.0  0.56822  0.06625  0.33598  1.0000
  C   C180      1.0  0.56990  0.04403  0.33578  1.0000
  C   C181      1.0  0.59681  0.05261  0.33333  1.0000
  C   C182      1.0  0.61041  0.07978  0.33157  1.0000
  C   C183      1.0  0.54947  0.01725  0.33790  1.0000
  C   C184      1.0  0.52213  0.00860  0.33790  1.0000
  N   N12       1.0  0.51048  0.02348  0.33565  1.0000
  C   C185      1.0  0.48395  0.00862  0.33572  1.0000
  C   C186      1.0  0.47820  0.98246  0.33822  1.0000
  C   C187      1.0  0.50171  0.98245  0.33944  1.0000
  C   C188      1.0  0.46527  0.01729  0.33386  1.0000
  C   C189      1.0  0.43815  0.99754  0.33150  1.0000
  C   C190      1.0  0.38492  0.95551  0.32831  1.0000
  C   C191      1.0  0.39682  0.96873  0.40896  1.0000
  C   C192      1.0  0.42313  0.98938  0.41072  1.0000
  C   C193      1.0  0.35887  0.93339  0.32775  1.0000
  C   C194      1.0  0.33795  0.93404  0.37210  1.0000
  C   C195      1.0  0.31253  0.91178  0.37400  1.0000
  C   C196      1.0  0.30724  0.88798  0.33260  1.0000
  C   C197      1.0  0.55683  0.99750  0.34036  1.0000
  C   C198      1.0  0.56860  0.95585  0.34527  1.0000
  C   C199      1.0  0.56416  0.96599  0.42495  1.0000
  C   C200      1.0  0.55841  0.98655  0.42269  1.0000
  C   C201      1.0  0.57308  0.93405  0.34749  1.0000
  C   C202      1.0  0.58080  0.88954  0.34922  1.0000
  C   C203      1.0  0.56081  0.88975  0.40109  1.0000
  C   C204      1.0  0.55709  0.91164  0.40050  1.0000
  C   C205      1.0  0.62568  0.13499  0.33148  1.0000
  C   C206      1.0  0.64086  0.14280  0.41061  1.0000
  C   C207      1.0  0.66727  0.16322  0.40882  1.0000
  C   C208      1.0  0.67912  0.17656  0.32825  1.0000
  C   C209      1.0  0.70536  0.19837  0.32762  1.0000
  C   C210      1.0  0.75743  0.24309  0.33224  1.0000
  C   C211      1.0  0.75176  0.21905  0.37320  1.0000
  C   C212      1.0  0.72613  0.19712  0.37140  1.0000
  C   C213      1.0  0.50703  0.13505  0.34025  1.0000
  C   C214      1.0  0.50553  0.14585  0.42261  1.0000
  C   C215      1.0  0.49595  0.17716  0.34516  1.0000
  C   C216      1.0  0.50011  0.16664  0.42488  1.0000
  C   C217      1.0  0.49198  0.19928  0.34738  1.0000
  C   C218      1.0  0.50826  0.22145  0.40080  1.0000
  C   C219      1.0  0.50512  0.24369  0.40124  1.0000
  C   C220      1.0  0.48541  0.24449  0.34891  1.0000
  H   H113      1.0  0.51786  0.25962  0.43864  1.0000
  H   H114      1.0  0.52323  0.22201  0.43787  1.0000
  H   H115      1.0  0.49933  0.17412  0.48570  1.0000
  H   H116      1.0  0.50890  0.13901  0.48134  1.0000
  H   H117      1.0  0.45834  0.09132  0.33258  1.0000
  H   H118      1.0  0.43336  0.04144  0.32977  1.0000
  H   H119      1.0  0.51194  0.06627  0.33857  1.0000
  H   H120      1.0  0.55189  0.06627  0.33881  1.0000
  H   H121      1.0  0.56054  0.16664  0.34101  1.0000
  H   H122      1.0  0.60380  0.16662  0.33924  1.0000
  H   H123      1.0  0.63263  0.13402  0.47030  1.0000
  H   H124      1.0  0.67747  0.16893  0.46779  1.0000
  H   H125      1.0  0.63045  0.09110  0.32944  1.0000
  H   H126      1.0  0.60548  0.04123  0.33244  1.0000
  H   H127      1.0  0.46004  0.96591  0.33928  1.0000
  H   H128      1.0  0.50331  0.96589  0.34107  1.0000
  H   H129      1.0  0.55495  0.99319  0.48140  1.0000
  H   H130      1.0  0.56506  0.95844  0.48576  1.0000
  H   H131      1.0  0.54194  0.91065  0.43719  1.0000
  H   H132      1.0  0.54824  0.87361  0.43808  1.0000
  H   H133      1.0  0.43143  0.99802  0.47049  1.0000
  H   H134      1.0  0.38676  0.96275  0.46800  1.0000
  H   H135      1.0  0.29788  0.91309  0.40616  1.0000
  H   H136      1.0  0.34099  0.95088  0.40297  1.0000
  H   H137      1.0  0.72281  0.18009  0.40195  1.0000
  H   H138      1.0  0.76629  0.21732  0.40498  1.0000
  C   C221      1.0  0.28423  0.51630  0.34480  1.0000
  C   C222      1.0  0.26995  0.51386  0.42394  1.0000
  C   C223      1.0  0.24564  0.51376  0.42021  1.0000
  C   C224      1.0  0.23518  0.51602  0.33712  1.0000
  N   N13       1.0  0.23339  0.51227  0.49899  1.0000
  C   C225      1.0  0.24271  0.51026  0.57988  1.0000
  C   C226      1.0  0.26635  0.50975  0.58330  1.0000
  N   N14       1.0  0.27901  0.51167  0.50568  1.0000
  H   H139      1.0  0.23264  0.50909  0.63679  1.0000
  H   H140      1.0  0.27408  0.50826  0.64280  1.0000
  C   C227      1.0  0.58363  0.86676  0.34748  1.0000
  C   C228      1.0  0.58608  0.85475  0.42661  1.0000
  C   C229      1.0  0.58617  0.83054  0.42284  1.0000
  C   C230      1.0  0.58391  0.81799  0.33974  1.0000
  N   N15       1.0  0.58766  0.81961  0.50162  1.0000
  C   C231      1.0  0.58968  0.83078  0.58251  1.0000
  C   C232      1.0  0.59019  0.85492  0.58596  1.0000
  N   N16       1.0  0.58827  0.86583  0.50836  1.0000
  H   H141      1.0  0.59084  0.82176  0.63941  1.0000
  H   H142      1.0  0.59168  0.86402  0.64547  1.0000
  C   C233      1.0  0.24505  0.82990  0.42404  1.0000
  C   C234      1.0  0.26926  0.85423  0.42082  1.0000
  N   N17       1.0  0.28004  0.86639  0.49985  1.0000
  C   C235      1.0  0.26873  0.85698  0.58050  1.0000
  C   C236      1.0  0.24461  0.83333  0.58341  1.0000
  N   N18       1.0  0.23384  0.82075  0.50555  1.0000
  H   H143      1.0  0.27765  0.86699  0.63760  1.0000
  H   H144      1.0  0.23540  0.82554  0.64271  1.0000
  C   C237      1.0  0.78559  0.61683  0.34454  1.0000
  C   C238      1.0  0.79996  0.61901  0.42361  1.0000
  C   C239      1.0  0.82396  0.61849  0.41985  1.0000
  C   C240      1.0  0.83402  0.61588  0.33681  1.0000
  N   N19       1.0  0.83629  0.61977  0.49858  1.0000
  C   C241      1.0  0.82735  0.62212  0.57942  1.0000
  C   C242      1.0  0.80403  0.62322  0.58286  1.0000
  N   N20       1.0  0.79128  0.62153  0.50530  1.0000
  H   H145      1.0  0.83747  0.62310  0.63629  1.0000
  H   H146      1.0  0.79659  0.62499  0.64232  1.0000
  C   C243      1.0  0.48315  0.26761  0.34713  1.0000
  C   C244      1.0  0.48097  0.27962  0.42620  1.0000
  C   C245      1.0  0.48148  0.30415  0.42248  1.0000
  C   C246      1.0  0.48411  0.31700  0.33946  1.0000
  N   N21       1.0  0.48021  0.31504  0.50123  1.0000
  C   C247      1.0  0.47786  0.30358  0.58206  1.0000
  C   C248      1.0  0.47676  0.27915  0.58546  1.0000
  N   N22       1.0  0.47845  0.26826  0.50789  1.0000
  H   H147      1.0  0.47688  0.31260  0.63894  1.0000
  H   H148      1.0  0.47499  0.26982  0.64492  1.0000
  C   C249      1.0  0.82046  0.30012  0.42365  1.0000
  C   C250      1.0  0.79594  0.27611  0.42040  1.0000
  N   N23       1.0  0.78517  0.26388  0.49938  1.0000
  C   C251      1.0  0.79674  0.27292  0.57999  1.0000
  C   C252      1.0  0.82117  0.29625  0.58291  1.0000
  N   N24       1.0  0.83194  0.30891  0.50512  1.0000
  H   H149      1.0  0.78780  0.26288  0.63706  1.0000
  H   H150      1.0  0.83058  0.30377  0.64220  1.0000
