data_image0
_chemical_formula_structural       C2HC3H2C2O2C4HC5H3NHC4HC5H3NHC4H2C3HC2O2CNC2HNHNHCNC2HNHNHC2HC3H2C2O2C4HC5H3NHC4HC5H3NHC4H2C3HC2O2CNC2HNHNHCNC2HNHNHC2HC3H2C2O2C4HC5H3NHC4HC5H3NHC4H2C3HC2O2CNC2HNHNHCNC2HNHNHC2HC3H2C2O2C4HC5H3NHC4HC5H3NHC4H2C3HC2O2CNC2HNHNHCNC2HNHNH
_chemical_formula_sum              "C160 H88 O16 N32"
_cell_length_a       38.6102
_cell_length_b       38.6102
_cell_length_c       15.0066
_cell_angle_alpha    90
_cell_angle_beta     90
_cell_angle_gamma    90

_space_group_name_H-M_alt    "P 1"
_space_group_IT_number       1

loop_
  _space_group_symop_operation_xyz
  'x, y, z'

loop_
  _atom_site_type_symbol
  _atom_site_label
  _atom_site_symmetry_multiplicity
  _atom_site_fract_x
  _atom_site_fract_y
  _atom_site_fract_z
  _atom_site_occupancy
  C   C1        1.0  0.06721  0.47679  0.23860  1.0000
  C   C2        1.0  0.04436  0.49894  0.28540  1.0000
  H   H1        1.0  0.05211  0.02399  0.29135  1.0000
  C   C3        1.0  0.45136  0.00450  0.37040  1.0000
  C   C4        1.0  0.42783  0.02617  0.41685  1.0000
  C   C5        1.0  0.44139  0.05681  0.45493  1.0000
  H   H2        1.0  0.44155  0.48232  0.34404  1.0000
  H   H3        1.0  0.42465  0.07369  0.48494  1.0000
  C   C6        1.0  0.39147  0.01986  0.42081  1.0000
  C   C7        1.0  0.10218  0.48580  0.21907  1.0000
  O   O1        1.0  0.11898  0.46570  0.15875  1.0000
  O   O2        1.0  0.37319  0.03916  0.48000  1.0000
  C   C8        1.0  0.00355  0.15824  0.37900  1.0000
  C   C9        1.0  0.99951  0.23072  0.34976  1.0000
  C   C10       1.0  0.00594  0.20837  0.27655  1.0000
  C   C11       1.0  0.00877  0.17248  0.29281  1.0000
  H   H4        1.0  0.01227  0.15622  0.23964  1.0000
  C   C12       1.0  0.99650  0.26678  0.33599  1.0000
  C   C13       1.0  0.99831  0.31688  0.23800  1.0000
  C   C14       1.0  0.99983  0.28063  0.24883  1.0000
  C   C15       1.0  0.00553  0.25816  0.17607  1.0000
  C   C16       1.0  0.00871  0.22231  0.18988  1.0000
  H   H5        1.0  0.00809  0.26776  0.11283  1.0000
  H   H6        1.0  0.01316  0.20652  0.13629  1.0000
  H   H7        1.0  0.99965  0.32668  0.17490  1.0000
  N   N1        1.0  0.00217  0.12288  0.38790  1.0000
  H   H8        1.0  0.01019  0.10984  0.33625  1.0000
  C   C17       1.0  0.33820  0.00026  0.34578  1.0000
  C   C18       1.0  0.26575  0.00307  0.31544  1.0000
  C   C19       1.0  0.28827  0.99655  0.24266  1.0000
  C   C20       1.0  0.32423  0.99461  0.25941  1.0000
  H   H9        1.0  0.34069  0.99125  0.20657  1.0000
  C   C21       1.0  0.22974  0.00605  0.30143  1.0000
  C   C22       1.0  0.17946  0.00350  0.20412  1.0000
  C   C23       1.0  0.21578  0.00186  0.21466  1.0000
  C   C24       1.0  0.23832  0.99548  0.14237  1.0000
  C   C25       1.0  0.27427  0.99293  0.15622  1.0000
  H   H10       1.0  0.22873  0.99239  0.07929  1.0000
  H   H11       1.0  0.29010  0.98829  0.10282  1.0000
  H   H12       1.0  0.16949  0.00126  0.14137  1.0000
  N   N2        1.0  0.37350  0.00234  0.35610  1.0000
  H   H13       1.0  0.38706  0.99510  0.30471  1.0000
  C   C26       1.0  0.01082  0.48874  0.31540  1.0000
  C   C27       1.0  0.00283  0.45302  0.30250  1.0000
  C   C28       1.0  0.02427  0.42966  0.25488  1.0000
  C   C29       1.0  0.05499  0.44331  0.21744  1.0000
  H   H14       1.0  0.48059  0.44323  0.32852  1.0000
  H   H15       1.0  0.07156  0.42674  0.18580  1.0000
  C   C30       1.0  0.48718  0.01229  0.35857  1.0000
  C   C31       1.0  0.47494  0.06888  0.43390  1.0000
  C   C32       1.0  0.49730  0.04582  0.38850  1.0000
  H   H16       1.0  0.02233  0.05367  0.38255  1.0000
  C   C33       1.0  0.48364  0.10422  0.44936  1.0000
  C   C34       1.0  0.01737  0.39349  0.24743  1.0000
  O   O3        1.0  0.46385  0.12161  0.50923  1.0000
  O   O4        1.0  0.03719  0.37552  0.18871  1.0000
  C   C35       1.0  0.99852  0.18238  0.44899  1.0000
  N   N3        1.0  0.99672  0.21686  0.43258  1.0000
  C   C36       1.0  0.98872  0.32362  0.39546  1.0000
  C   C37       1.0  0.99474  0.33958  0.31178  1.0000
  H   H17       1.0  0.99696  0.17465  0.51377  1.0000
  N   N4        1.0  0.99057  0.28874  0.40500  1.0000
  H   H18       1.0  0.98568  0.33819  0.45179  1.0000
  N   N5        1.0  0.99799  0.37496  0.30743  1.0000
  H   H19       1.0  0.99063  0.38756  0.36030  1.0000
  C   C38       1.0  0.31373  0.00450  0.41542  1.0000
  N   N6        1.0  0.27933  0.00600  0.39843  1.0000
  C   C39       1.0  0.17320  0.01557  0.36066  1.0000
  C   C40       1.0  0.15696  0.00880  0.27769  1.0000
  H   H20       1.0  0.32111  0.00586  0.48047  1.0000
  N   N7        1.0  0.20801  0.01315  0.37011  1.0000
  H   H21       1.0  0.15884  0.01961  0.41693  1.0000
  N   N8        1.0  0.12149  0.00621  0.27509  1.0000
  H   H22       1.0  0.10946  0.01457  0.32798  1.0000
  C   C41       1.0  0.06721  0.97679  0.23860  1.0000
  C   C42       1.0  0.04436  0.99894  0.28540  1.0000
  H   H23       1.0  0.05211  0.52399  0.29135  1.0000
  C   C43       1.0  0.45136  0.50450  0.37040  1.0000
  C   C44       1.0  0.42783  0.52617  0.41685  1.0000
  C   C45       1.0  0.44139  0.55681  0.45493  1.0000
  H   H24       1.0  0.44155  0.98232  0.34404  1.0000
  H   H25       1.0  0.42465  0.57369  0.48494  1.0000
  C   C46       1.0  0.39147  0.51986  0.42081  1.0000
  C   C47       1.0  0.10218  0.98580  0.21907  1.0000
  O   O5        1.0  0.11898  0.96570  0.15875  1.0000
  O   O6        1.0  0.37319  0.53916  0.48000  1.0000
  C   C48       1.0  0.00355  0.65824  0.37900  1.0000
  C   C49       1.0  0.99951  0.73072  0.34976  1.0000
  C   C50       1.0  0.00594  0.70837  0.27655  1.0000
  C   C51       1.0  0.00877  0.67248  0.29281  1.0000
  H   H26       1.0  0.01227  0.65622  0.23964  1.0000
  C   C52       1.0  0.99650  0.76678  0.33599  1.0000
  C   C53       1.0  0.99831  0.81689  0.23800  1.0000
  C   C54       1.0  0.99983  0.78063  0.24883  1.0000
  C   C55       1.0  0.00553  0.75816  0.17607  1.0000
  C   C56       1.0  0.00871  0.72231  0.18988  1.0000
  H   H27       1.0  0.00809  0.76777  0.11283  1.0000
  H   H28       1.0  0.01316  0.70652  0.13629  1.0000
  H   H29       1.0  0.99965  0.82669  0.17490  1.0000
  N   N9        1.0  0.00217  0.62288  0.38790  1.0000
  H   H30       1.0  0.01019  0.60984  0.33625  1.0000
  C   C57       1.0  0.33820  0.50027  0.34578  1.0000
  C   C58       1.0  0.26575  0.50307  0.31544  1.0000
  C   C59       1.0  0.28827  0.49655  0.24266  1.0000
  C   C60       1.0  0.32423  0.49461  0.25941  1.0000
  H   H31       1.0  0.34069  0.49125  0.20657  1.0000
  C   C61       1.0  0.22974  0.50605  0.30143  1.0000
  C   C62       1.0  0.17946  0.50350  0.20412  1.0000
  C   C63       1.0  0.21578  0.50186  0.21466  1.0000
  C   C64       1.0  0.23832  0.49548  0.14237  1.0000
  C   C65       1.0  0.27427  0.49293  0.15622  1.0000
  H   H32       1.0  0.22873  0.49239  0.07929  1.0000
  H   H33       1.0  0.29010  0.48829  0.10282  1.0000
  H   H34       1.0  0.16949  0.50126  0.14137  1.0000
  N   N10       1.0  0.37350  0.50234  0.35610  1.0000
  H   H35       1.0  0.38706  0.49509  0.30471  1.0000
  C   C66       1.0  0.01082  0.98874  0.31540  1.0000
  C   C67       1.0  0.00283  0.95301  0.30250  1.0000
  C   C68       1.0  0.02427  0.92966  0.25488  1.0000
  C   C69       1.0  0.05499  0.94332  0.21744  1.0000
  H   H36       1.0  0.48059  0.94323  0.32852  1.0000
  H   H37       1.0  0.07156  0.92674  0.18580  1.0000
  C   C70       1.0  0.48718  0.51229  0.35857  1.0000
  C   C71       1.0  0.47494  0.56888  0.43390  1.0000
  C   C72       1.0  0.49730  0.54582  0.38850  1.0000
  H   H38       1.0  0.02233  0.55367  0.38255  1.0000
  C   C73       1.0  0.48364  0.60422  0.44936  1.0000
  C   C74       1.0  0.01737  0.89349  0.24743  1.0000
  O   O7        1.0  0.46385  0.62161  0.50923  1.0000
  O   O8        1.0  0.03719  0.87552  0.18871  1.0000
  C   C75       1.0  0.99852  0.68238  0.44899  1.0000
  N   N11       1.0  0.99672  0.71686  0.43258  1.0000
  C   C76       1.0  0.98872  0.82362  0.39546  1.0000
  C   C77       1.0  0.99474  0.83958  0.31178  1.0000
  H   H39       1.0  0.99696  0.67465  0.51377  1.0000
  N   N12       1.0  0.99057  0.78874  0.40500  1.0000
  H   H40       1.0  0.98568  0.83818  0.45179  1.0000
  N   N13       1.0  0.99799  0.87496  0.30743  1.0000
  H   H41       1.0  0.99063  0.88756  0.36030  1.0000
  C   C78       1.0  0.31373  0.50450  0.41542  1.0000
  N   N14       1.0  0.27933  0.50600  0.39843  1.0000
  C   C79       1.0  0.17320  0.51557  0.36066  1.0000
  C   C80       1.0  0.15696  0.50880  0.27769  1.0000
  H   H42       1.0  0.32111  0.50586  0.48047  1.0000
  N   N15       1.0  0.20801  0.51315  0.37011  1.0000
  H   H43       1.0  0.15884  0.51961  0.41693  1.0000
  N   N16       1.0  0.12149  0.50621  0.27509  1.0000
  H   H44       1.0  0.10946  0.51457  0.32798  1.0000
  C   C81       1.0  0.56721  0.47679  0.23860  1.0000
  C   C82       1.0  0.54436  0.49894  0.28540  1.0000
  H   H45       1.0  0.55211  0.02399  0.29135  1.0000
  C   C83       1.0  0.95136  0.00450  0.37040  1.0000
  C   C84       1.0  0.92783  0.02617  0.41685  1.0000
  C   C85       1.0  0.94139  0.05681  0.45493  1.0000
  H   H46       1.0  0.94156  0.48232  0.34404  1.0000
  H   H47       1.0  0.92465  0.07369  0.48494  1.0000
  C   C86       1.0  0.89147  0.01986  0.42081  1.0000
  C   C87       1.0  0.60218  0.48580  0.21907  1.0000
  O   O9        1.0  0.61898  0.46570  0.15875  1.0000
  O   O10       1.0  0.87319  0.03916  0.48000  1.0000
  C   C88       1.0  0.50355  0.15824  0.37900  1.0000
  C   C89       1.0  0.49950  0.23072  0.34976  1.0000
  C   C90       1.0  0.50594  0.20837  0.27655  1.0000
  C   C91       1.0  0.50877  0.17248  0.29281  1.0000
  H   H48       1.0  0.51227  0.15622  0.23964  1.0000
  C   C92       1.0  0.49650  0.26678  0.33599  1.0000
  C   C93       1.0  0.49831  0.31688  0.23800  1.0000
  C   C94       1.0  0.49983  0.28063  0.24883  1.0000
  C   C95       1.0  0.50553  0.25816  0.17607  1.0000
  C   C96       1.0  0.50872  0.22231  0.18988  1.0000
  H   H49       1.0  0.50809  0.26776  0.11283  1.0000
  H   H50       1.0  0.51316  0.20652  0.13629  1.0000
  H   H51       1.0  0.49964  0.32668  0.17490  1.0000
  N   N17       1.0  0.50217  0.12288  0.38790  1.0000
  H   H52       1.0  0.51019  0.10984  0.33625  1.0000
  C   C97       1.0  0.83820  0.00026  0.34578  1.0000
  C   C98       1.0  0.76575  0.00307  0.31544  1.0000
  C   C99       1.0  0.78827  0.99655  0.24266  1.0000
  C   C100      1.0  0.82424  0.99461  0.25941  1.0000
  H   H53       1.0  0.84069  0.99125  0.20657  1.0000
  C   C101      1.0  0.72974  0.00605  0.30143  1.0000
  C   C102      1.0  0.67946  0.00350  0.20412  1.0000
  C   C103      1.0  0.71578  0.00186  0.21466  1.0000
  C   C104      1.0  0.73832  0.99548  0.14237  1.0000
  C   C105      1.0  0.77427  0.99293  0.15622  1.0000
  H   H54       1.0  0.72874  0.99239  0.07929  1.0000
  H   H55       1.0  0.79010  0.98829  0.10282  1.0000
  H   H56       1.0  0.66949  0.00126  0.14137  1.0000
  N   N18       1.0  0.87350  0.00234  0.35610  1.0000
  H   H57       1.0  0.88706  0.99510  0.30471  1.0000
  C   C106      1.0  0.51083  0.48874  0.31540  1.0000
  C   C107      1.0  0.50284  0.45302  0.30250  1.0000
  C   C108      1.0  0.52427  0.42966  0.25488  1.0000
  C   C109      1.0  0.55499  0.44331  0.21744  1.0000
  H   H58       1.0  0.98059  0.44323  0.32852  1.0000
  H   H59       1.0  0.57156  0.42674  0.18580  1.0000
  C   C110      1.0  0.98719  0.01229  0.35857  1.0000
  C   C111      1.0  0.97494  0.06888  0.43390  1.0000
  C   C112      1.0  0.99730  0.04582  0.38850  1.0000
  H   H60       1.0  0.52233  0.05367  0.38255  1.0000
  C   C113      1.0  0.98364  0.10422  0.44936  1.0000
  C   C114      1.0  0.51737  0.39349  0.24743  1.0000
  O   O11       1.0  0.96385  0.12161  0.50923  1.0000
  O   O12       1.0  0.53719  0.37552  0.18871  1.0000
  C   C115      1.0  0.49853  0.18238  0.44899  1.0000
  N   N19       1.0  0.49672  0.21686  0.43258  1.0000
  C   C116      1.0  0.48872  0.32362  0.39546  1.0000
  C   C117      1.0  0.49474  0.33958  0.31178  1.0000
  H   H61       1.0  0.49696  0.17465  0.51377  1.0000
  N   N20       1.0  0.49057  0.28874  0.40500  1.0000
  H   H62       1.0  0.48568  0.33819  0.45179  1.0000
  N   N21       1.0  0.49800  0.37496  0.30743  1.0000
  H   H63       1.0  0.49063  0.38756  0.36030  1.0000
  C   C118      1.0  0.81373  0.00450  0.41542  1.0000
  N   N22       1.0  0.77933  0.00600  0.39843  1.0000
  C   C119      1.0  0.67320  0.01557  0.36066  1.0000
  C   C120      1.0  0.65696  0.00880  0.27769  1.0000
  H   H64       1.0  0.82111  0.00586  0.48047  1.0000
  N   N23       1.0  0.70801  0.01315  0.37011  1.0000
  H   H65       1.0  0.65884  0.01961  0.41693  1.0000
  N   N24       1.0  0.62149  0.00621  0.27509  1.0000
  H   H66       1.0  0.60946  0.01457  0.32798  1.0000
  C   C121      1.0  0.56721  0.97679  0.23860  1.0000
  C   C122      1.0  0.54436  0.99894  0.28540  1.0000
  H   H67       1.0  0.55211  0.52399  0.29135  1.0000
  C   C123      1.0  0.95136  0.50450  0.37040  1.0000
  C   C124      1.0  0.92783  0.52617  0.41685  1.0000
  C   C125      1.0  0.94139  0.55681  0.45493  1.0000
  H   H68       1.0  0.94156  0.98232  0.34404  1.0000
  H   H69       1.0  0.92465  0.57369  0.48494  1.0000
  C   C126      1.0  0.89147  0.51986  0.42081  1.0000
  C   C127      1.0  0.60218  0.98580  0.21907  1.0000
  O   O13       1.0  0.61898  0.96570  0.15875  1.0000
  O   O14       1.0  0.87319  0.53916  0.48000  1.0000
  C   C128      1.0  0.50355  0.65824  0.37900  1.0000
  C   C129      1.0  0.49950  0.73072  0.34976  1.0000
  C   C130      1.0  0.50594  0.70837  0.27655  1.0000
  C   C131      1.0  0.50877  0.67248  0.29281  1.0000
  H   H70       1.0  0.51227  0.65622  0.23964  1.0000
  C   C132      1.0  0.49650  0.76678  0.33599  1.0000
  C   C133      1.0  0.49831  0.81689  0.23800  1.0000
  C   C134      1.0  0.49983  0.78063  0.24883  1.0000
  C   C135      1.0  0.50553  0.75816  0.17607  1.0000
  C   C136      1.0  0.50872  0.72231  0.18988  1.0000
  H   H71       1.0  0.50809  0.76777  0.11283  1.0000
  H   H72       1.0  0.51316  0.70652  0.13629  1.0000
  H   H73       1.0  0.49964  0.82669  0.17490  1.0000
  N   N25       1.0  0.50217  0.62288  0.38790  1.0000
  H   H74       1.0  0.51019  0.60984  0.33625  1.0000
  C   C137      1.0  0.83820  0.50027  0.34578  1.0000
  C   C138      1.0  0.76575  0.50307  0.31544  1.0000
  C   C139      1.0  0.78827  0.49655  0.24266  1.0000
  C   C140      1.0  0.82424  0.49461  0.25941  1.0000
  H   H75       1.0  0.84069  0.49125  0.20657  1.0000
  C   C141      1.0  0.72974  0.50605  0.30143  1.0000
  C   C142      1.0  0.67946  0.50350  0.20412  1.0000
  C   C143      1.0  0.71578  0.50186  0.21466  1.0000
  C   C144      1.0  0.73832  0.49548  0.14237  1.0000
  C   C145      1.0  0.77427  0.49293  0.15622  1.0000
  H   H76       1.0  0.72874  0.49239  0.07929  1.0000
  H   H77       1.0  0.79010  0.48829  0.10282  1.0000
  H   H78       1.0  0.66949  0.50126  0.14137  1.0000
  N   N26       1.0  0.87350  0.50234  0.35610  1.0000
  H   H79       1.0  0.88706  0.49509  0.30471  1.0000
  C   C146      1.0  0.51083  0.98874  0.31540  1.0000
  C   C147      1.0  0.50284  0.95301  0.30250  1.0000
  C   C148      1.0  0.52427  0.92966  0.25488  1.0000
  C   C149      1.0  0.55499  0.94332  0.21744  1.0000
  H   H80       1.0  0.98059  0.94323  0.32852  1.0000
  H   H81       1.0  0.57156  0.92674  0.18580  1.0000
  C   C150      1.0  0.98719  0.51229  0.35857  1.0000
  C   C151      1.0  0.97494  0.56888  0.43390  1.0000
  C   C152      1.0  0.99730  0.54582  0.38850  1.0000
  H   H82       1.0  0.52233  0.55367  0.38255  1.0000
  C   C153      1.0  0.98364  0.60422  0.44936  1.0000
  C   C154      1.0  0.51737  0.89349  0.24743  1.0000
  O   O15       1.0  0.96385  0.62161  0.50923  1.0000
  O   O16       1.0  0.53719  0.87552  0.18871  1.0000
  C   C155      1.0  0.49853  0.68238  0.44899  1.0000
  N   N27       1.0  0.49672  0.71686  0.43258  1.0000
  C   C156      1.0  0.48872  0.82362  0.39546  1.0000
  C   C157      1.0  0.49474  0.83958  0.31178  1.0000
  H   H83       1.0  0.49696  0.67465  0.51377  1.0000
  N   N28       1.0  0.49057  0.78874  0.40500  1.0000
  H   H84       1.0  0.48568  0.83818  0.45179  1.0000
  N   N29       1.0  0.49800  0.87496  0.30743  1.0000
  H   H85       1.0  0.49063  0.88756  0.36030  1.0000
  C   C158      1.0  0.81373  0.50450  0.41542  1.0000
  N   N30       1.0  0.77933  0.50600  0.39843  1.0000
  C   C159      1.0  0.67320  0.51557  0.36066  1.0000
  C   C160      1.0  0.65696  0.50880  0.27769  1.0000
  H   H86       1.0  0.82111  0.50586  0.48047  1.0000
  N   N31       1.0  0.70801  0.51315  0.37011  1.0000
  H   H87       1.0  0.65884  0.51961  0.41693  1.0000
  N   N32       1.0  0.62149  0.50621  0.27509  1.0000
  H   H88       1.0  0.60946  0.51457  0.32798  1.0000
