data_image0
_chemical_formula_structural       C4HCH3C4HCH3C2H2C2H2C2H2C2H2C4HCH3C4HCH3C4HCH3C4HCH3C2H2C2H2C2H2C2H2C4HCH3C4HCH3C4HCH3C4HCH3C6H3C6H3C6H3C6H3C6H3C6H3C6H3C6H3C6H3C6H3C6H3C6H3C2H2C2H2C4HCH3C4HCH3C4HCH3C4HCH3C2H2C2H2C2H2C2H2C4HCH3C4HCH3C4HCH3C4HCH3C2H2C2H2C2H2C2H2
_chemical_formula_sum              "C198 H144"
_cell_length_a       34.3115
_cell_length_b       34.1538
_cell_length_c       14.838
_cell_angle_alpha    90
_cell_angle_beta     90
_cell_angle_gamma    90.2681

_space_group_name_H-M_alt    "P 1"
_space_group_IT_number       1

loop_
  _space_group_symop_operation_xyz
  'x, y, z'

loop_
  _atom_site_type_symbol
  _atom_site_label
  _atom_site_symmetry_multiplicity
  _atom_site_fract_x
  _atom_site_fract_y
  _atom_site_fract_z
  _atom_site_occupancy
  C   C1        1.0  0.97357  0.53337  0.34290  1.0000
  C   C2        1.0  0.98871  0.51958  0.26033  1.0000
  C   C3        1.0  0.01813  0.49055  0.25743  1.0000
  C   C4        1.0  0.03276  0.47508  0.33987  1.0000
  H   H1        1.0  0.97802  0.53089  0.20142  1.0000
  C   C5        1.0  0.03297  0.47677  0.16873  1.0000
  H   H2        1.0  0.01883  0.49129  0.11199  1.0000
  H   H3        1.0  0.02783  0.44534  0.16198  1.0000
  H   H4        1.0  0.06421  0.48251  0.16388  1.0000
  C   C6        1.0  0.47345  0.97269  0.34277  1.0000
  C   C7        1.0  0.48790  0.98737  0.26022  1.0000
  C   C8        1.0  0.51736  0.01662  0.25744  1.0000
  C   C9        1.0  0.53268  0.03143  0.33999  1.0000
  H   H5        1.0  0.47668  0.97653  0.20126  1.0000
  C   C10       1.0  0.53166  0.03116  0.16879  1.0000
  H   H6        1.0  0.51719  0.01688  0.11199  1.0000
  H   H7        1.0  0.56287  0.02576  0.16276  1.0000
  H   H8        1.0  0.52647  0.06257  0.16332  1.0000
  C   C11       1.0  0.05643  0.27476  0.26658  1.0000
  C   C12       1.0  0.06475  0.31510  0.26561  1.0000
  H   H9        1.0  0.05341  0.26039  0.20636  1.0000
  H   H10       1.0  0.06781  0.32911  0.20499  1.0000
  C   C13       1.0  0.94771  0.73370  0.26605  1.0000
  C   C14       1.0  0.93903  0.69342  0.26493  1.0000
  H   H11       1.0  0.94963  0.74834  0.20596  1.0000
  H   H12       1.0  0.93472  0.67973  0.20433  1.0000
  C   C15       1.0  0.73246  0.05814  0.26626  1.0000
  C   C16       1.0  0.69236  0.06647  0.26518  1.0000
  H   H13       1.0  0.74699  0.05622  0.20612  1.0000
  H   H14       1.0  0.67869  0.07056  0.20459  1.0000
  C   C17       1.0  0.27432  0.95091  0.26598  1.0000
  C   C18       1.0  0.31424  0.94170  0.26493  1.0000
  H   H15       1.0  0.26021  0.95469  0.20580  1.0000
  H   H16       1.0  0.32820  0.93895  0.20429  1.0000
  C   C19       1.0  0.43490  0.83377  0.34294  1.0000
  C   C20       1.0  0.43862  0.81351  0.26043  1.0000
  C   C21       1.0  0.44769  0.77306  0.25774  1.0000
  C   C22       1.0  0.45310  0.75256  0.34038  1.0000
  H   H17       1.0  0.43442  0.82851  0.20146  1.0000
  C   C23       1.0  0.45121  0.75290  0.16920  1.0000
  H   H18       1.0  0.44641  0.77258  0.11233  1.0000
  H   H19       1.0  0.42977  0.72928  0.16479  1.0000
  H   H20       1.0  0.48035  0.74057  0.16227  1.0000
  C   C24       1.0  0.57051  0.17069  0.34265  1.0000
  C   C25       1.0  0.56504  0.19054  0.26014  1.0000
  C   C26       1.0  0.55640  0.23108  0.25745  1.0000
  C   C27       1.0  0.55314  0.25206  0.34007  1.0000
  H   H21       1.0  0.56781  0.17521  0.20117  1.0000
  C   C28       1.0  0.55136  0.25090  0.16890  1.0000
  H   H22       1.0  0.55493  0.23094  0.11204  1.0000
  H   H23       1.0  0.57288  0.27432  0.16183  1.0000
  H   H24       1.0  0.52223  0.26344  0.16460  1.0000
  C   C29       1.0  0.83492  0.57043  0.34271  1.0000
  C   C30       1.0  0.81479  0.56627  0.26021  1.0000
  C   C31       1.0  0.77432  0.55773  0.25758  1.0000
  C   C32       1.0  0.75362  0.55341  0.34024  1.0000
  H   H25       1.0  0.82988  0.56987  0.20120  1.0000
  C   C33       1.0  0.75430  0.55380  0.16902  1.0000
  H   H26       1.0  0.77407  0.55795  0.11212  1.0000
  H   H27       1.0  0.73127  0.57561  0.16360  1.0000
  H   H28       1.0  0.74138  0.52465  0.16312  1.0000
  C   C34       1.0  0.17122  0.43666  0.34326  1.0000
  C   C35       1.0  0.19106  0.44215  0.26080  1.0000
  C   C36       1.0  0.23171  0.44974  0.25804  1.0000
  C   C37       1.0  0.25286  0.45178  0.34055  1.0000
  H   H29       1.0  0.17564  0.44011  0.20185  1.0000
  C   C38       1.0  0.25149  0.45481  0.16948  1.0000
  H   H30       1.0  0.23143  0.45201  0.11268  1.0000
  H   H31       1.0  0.27407  0.43266  0.16163  1.0000
  H   H32       1.0  0.26494  0.48378  0.16591  1.0000
  C   C39       1.0  0.13320  0.06580  0.26365  1.0000
  C   C40       1.0  0.11013  0.09970  0.26238  1.0000
  H   H33       1.0  0.13931  0.05229  0.20369  1.0000
  H   H34       1.0  0.10003  0.10987  0.20185  1.0000
  C   C41       1.0  0.87253  0.94177  0.26501  1.0000
  C   C42       1.0  0.89544  0.90777  0.26359  1.0000
  H   H35       1.0  0.86572  0.95488  0.20497  1.0000
  H   H36       1.0  0.90477  0.89708  0.20286  1.0000
  C   C43       1.0  0.94201  0.13268  0.26307  1.0000
  C   C44       1.0  0.90756  0.11027  0.26151  1.0000
  H   H37       1.0  0.95606  0.13803  0.20338  1.0000
  H   H38       1.0  0.89756  0.09984  0.20104  1.0000
  C   C45       1.0  0.06421  0.87542  0.26315  1.0000
  C   C46       1.0  0.09857  0.89796  0.26138  1.0000
  H   H39       1.0  0.05018  0.86991  0.20351  1.0000
  H   H40       1.0  0.10848  0.90841  0.20085  1.0000
  C   C47       1.0  0.40854  0.61505  0.34561  1.0000
  C   C48       1.0  0.39590  0.59877  0.26308  1.0000
  C   C49       1.0  0.37329  0.56396  0.26029  1.0000
  C   C50       1.0  0.36282  0.54544  0.34288  1.0000
  H   H41       1.0  0.40554  0.61103  0.20408  1.0000
  C   C51       1.0  0.36286  0.54642  0.17159  1.0000
  H   H42       1.0  0.37253  0.56433  0.11482  1.0000
  H   H43       1.0  0.33127  0.54316  0.16673  1.0000
  H   H44       1.0  0.37625  0.51764  0.16487  1.0000
  C   C52       1.0  0.59810  0.38952  0.34461  1.0000
  C   C53       1.0  0.61029  0.40608  0.26202  1.0000
  C   C54       1.0  0.63305  0.44081  0.25919  1.0000
  C   C55       1.0  0.64404  0.45902  0.34179  1.0000
  H   H45       1.0  0.60036  0.39399  0.20309  1.0000
  C   C56       1.0  0.64311  0.45856  0.17049  1.0000
  H   H46       1.0  0.63316  0.44080  0.11370  1.0000
  H   H47       1.0  0.67467  0.46180  0.16494  1.0000
  H   H48       1.0  0.62972  0.48737  0.16446  1.0000
  C   C57       1.0  0.61706  0.59863  0.34470  1.0000
  C   C58       1.0  0.60023  0.61023  0.26208  1.0000
  C   C59       1.0  0.56548  0.63248  0.25926  1.0000
  C   C60       1.0  0.54751  0.64364  0.34187  1.0000
  H   H49       1.0  0.61203  0.60003  0.20321  1.0000
  C   C61       1.0  0.54745  0.64181  0.17059  1.0000
  H   H50       1.0  0.56505  0.63188  0.11378  1.0000
  H   H51       1.0  0.54390  0.67343  0.16425  1.0000
  H   H52       1.0  0.51890  0.62778  0.16537  1.0000
  C   C62       1.0  0.38927  0.40574  0.34611  1.0000
  C   C63       1.0  0.40547  0.39337  0.26342  1.0000
  C   C64       1.0  0.44028  0.37121  0.26030  1.0000
  C   C65       1.0  0.45899  0.36102  0.34268  1.0000
  H   H53       1.0  0.39311  0.40286  0.20453  1.0000
  C   C66       1.0  0.45766  0.36104  0.17143  1.0000
  H   H54       1.0  0.43964  0.37044  0.11483  1.0000
  H   H55       1.0  0.46117  0.32937  0.16653  1.0000
  H   H56       1.0  0.48617  0.37502  0.16442  1.0000
  C   C67       1.0  0.07997  0.37602  0.34605  1.0000
  C   C68       1.0  0.11974  0.38687  0.34625  1.0000
  C   C69       1.0  0.13106  0.42667  0.34430  1.0000
  C   C70       1.0  0.10198  0.45587  0.34224  1.0000
  C   C71       1.0  0.06196  0.44561  0.34250  1.0000
  C   C72       1.0  0.05127  0.40557  0.34441  1.0000
  H   H57       1.0  0.10999  0.48479  0.34050  1.0000
  H   H58       1.0  0.02237  0.39785  0.34410  1.0000
  H   H59       1.0  0.14068  0.36554  0.34721  1.0000
  C   C73       1.0  0.92564  0.63201  0.34528  1.0000
  C   C74       1.0  0.88595  0.62083  0.34462  1.0000
  C   C75       1.0  0.87497  0.58091  0.34390  1.0000
  C   C76       1.0  0.90432  0.55196  0.34359  1.0000
  C   C77       1.0  0.94423  0.56256  0.34429  1.0000
  C   C78       1.0  0.95459  0.60269  0.34519  1.0000
  H   H60       1.0  0.89655  0.52295  0.34263  1.0000
  H   H61       1.0  0.98343  0.61064  0.34546  1.0000
  H   H62       1.0  0.86483  0.64197  0.34468  1.0000
  C   C79       1.0  0.63134  0.07981  0.34559  1.0000
  C   C80       1.0  0.62045  0.11965  0.34533  1.0000
  C   C81       1.0  0.58078  0.13054  0.34379  1.0000
  C   C82       1.0  0.55180  0.10100  0.34233  1.0000
  C   C83       1.0  0.56209  0.06094  0.34272  1.0000
  C   C84       1.0  0.60197  0.05064  0.34456  1.0000
  H   H63       1.0  0.52298  0.10872  0.34069  1.0000
  H   H64       1.0  0.60968  0.02169  0.34438  1.0000
  H   H65       1.0  0.64161  0.14094  0.34592  1.0000
  C   C85       1.0  0.37454  0.92509  0.34522  1.0000
  C   C86       1.0  0.38516  0.88515  0.34503  1.0000
  C   C87       1.0  0.42476  0.87398  0.34420  1.0000
  C   C88       1.0  0.45395  0.90333  0.34371  1.0000
  C   C89       1.0  0.44394  0.94344  0.34405  1.0000
  C   C90       1.0  0.40413  0.95403  0.34466  1.0000
  H   H66       1.0  0.48273  0.89542  0.34282  1.0000
  H   H67       1.0  0.39663  0.98304  0.34474  1.0000
  H   H68       1.0  0.36385  0.86401  0.34526  1.0000
  C   C91       1.0  0.06799  0.14550  0.34268  1.0000
  C   C92       1.0  0.02893  0.13234  0.34219  1.0000
  C   C93       1.0  0.99769  0.15910  0.34366  1.0000
  C   C94       1.0  0.00583  0.19965  0.34520  1.0000
  C   C95       1.0  0.04479  0.21341  0.34563  1.0000
  C   C96       1.0  0.07573  0.18614  0.34449  1.0000
  H   H69       1.0  0.98328  0.21920  0.34693  1.0000
  H   H70       1.0  0.10401  0.19589  0.34559  1.0000
  H   H71       1.0  0.02313  0.10284  0.34195  1.0000
  C   C97       1.0  0.93842  0.86253  0.34321  1.0000
  C   C98       1.0  0.97750  0.87562  0.34288  1.0000
  C   C99       1.0  0.00868  0.84881  0.34396  1.0000
  C   C100      1.0  0.00045  0.80826  0.34514  1.0000
  C   C101      1.0  0.96146  0.79458  0.34536  1.0000
  C   C102      1.0  0.93058  0.82191  0.34436  1.0000
  H   H72       1.0  0.02296  0.78866  0.34662  1.0000
  H   H73       1.0  0.90228  0.81223  0.34546  1.0000
  H   H74       1.0  0.98335  0.90511  0.34291  1.0000
  C   C103      1.0  0.86080  0.06902  0.34191  1.0000
  C   C104      1.0  0.87384  0.02990  0.34207  1.0000
  C   C105      1.0  0.84722  0.99830  0.34437  1.0000
  C   C106      1.0  0.80685  0.00614  0.34579  1.0000
  C   C107      1.0  0.79317  0.04517  0.34544  1.0000
  C   C108      1.0  0.82036  0.07648  0.34371  1.0000
  H   H75       1.0  0.78739  0.98331  0.34805  1.0000
  H   H76       1.0  0.81071  0.10482  0.34441  1.0000
  H   H77       1.0  0.90321  0.02433  0.34189  1.0000
  C   C109      1.0  0.14548  0.93923  0.34156  1.0000
  C   C110      1.0  0.13270  0.97843  0.34131  1.0000
  C   C111      1.0  0.15954  0.00987  0.34331  1.0000
  C   C112      1.0  0.19987  0.00173  0.34493  1.0000
  C   C113      1.0  0.21328  0.96259  0.34500  1.0000
  C   C114      1.0  0.18586  0.93149  0.34356  1.0000
  H   H78       1.0  0.21949  0.02441  0.34705  1.0000
  H   H79       1.0  0.19529  0.90307  0.34447  1.0000
  H   H80       1.0  0.10337  0.98419  0.34104  1.0000
  C   C115      1.0  0.43857  0.64362  0.34628  1.0000
  C   C116      1.0  0.47767  0.63100  0.34635  1.0000
  C   C117      1.0  0.50880  0.65815  0.34454  1.0000
  C   C118      1.0  0.50046  0.69861  0.34327  1.0000
  C   C119      1.0  0.46143  0.71185  0.34333  1.0000
  C   C120      1.0  0.43063  0.68414  0.34465  1.0000
  H   H81       1.0  0.52292  0.71847  0.34134  1.0000
  H   H82       1.0  0.40229  0.69347  0.34389  1.0000
  H   H83       1.0  0.48358  0.60157  0.34652  1.0000
  C   C121      1.0  0.56800  0.36099  0.34567  1.0000
  C   C122      1.0  0.52891  0.37368  0.34605  1.0000
  C   C123      1.0  0.49773  0.34657  0.34466  1.0000
  C   C124      1.0  0.50600  0.30610  0.34325  1.0000
  C   C125      1.0  0.54500  0.29280  0.34296  1.0000
  C   C126      1.0  0.57586  0.32045  0.34410  1.0000
  H   H84       1.0  0.48350  0.28628  0.34164  1.0000
  H   H85       1.0  0.60417  0.31106  0.34308  1.0000
  H   H86       1.0  0.52304  0.40311  0.34624  1.0000
  C   C127      1.0  0.64528  0.56847  0.34577  1.0000
  C   C128      1.0  0.63228  0.52921  0.34589  1.0000
  C   C129      1.0  0.65894  0.49787  0.34433  1.0000
  C   C130      1.0  0.69930  0.50614  0.34317  1.0000
  C   C131      1.0  0.71296  0.54531  0.34319  1.0000
  C   C132      1.0  0.68573  0.57634  0.34441  1.0000
  H   H87       1.0  0.71880  0.48351  0.34134  1.0000
  H   H88       1.0  0.69536  0.60477  0.34354  1.0000
  H   H89       1.0  0.60292  0.52333  0.34587  1.0000
  C   C133      1.0  0.36114  0.43599  0.34685  1.0000
  C   C134      1.0  0.37433  0.47519  0.34711  1.0000
  C   C135      1.0  0.34782  0.50664  0.34523  1.0000
  C   C136      1.0  0.30744  0.49859  0.34357  1.0000
  C   C137      1.0  0.29359  0.45950  0.34346  1.0000
  C   C138      1.0  0.32065  0.42832  0.34495  1.0000
  H   H90       1.0  0.28807  0.52132  0.34170  1.0000
  H   H91       1.0  0.31087  0.39994  0.34406  1.0000
  H   H92       1.0  0.40372  0.48094  0.34739  1.0000
  C   C139      1.0  0.01751  0.48897  0.42239  1.0000
  C   C140      1.0  0.98831  0.51777  0.42395  1.0000
  H   H93       1.0  0.02757  0.47817  0.48240  1.0000
  H   H94       1.0  0.97789  0.52726  0.48476  1.0000
  C   C141      1.0  0.51818  0.01661  0.42249  1.0000
  C   C142      1.0  0.48893  0.98760  0.42392  1.0000
  H   H95       1.0  0.52879  0.02691  0.48255  1.0000
  H   H96       1.0  0.47899  0.97747  0.48470  1.0000
  C   C143      1.0  0.06942  0.33586  0.34706  1.0000
  C   C144      1.0  0.06571  0.31548  0.42943  1.0000
  C   C145      1.0  0.05728  0.27482  0.43176  1.0000
  C   C146      1.0  0.05272  0.25423  0.34891  1.0000
  H   H97       1.0  0.06954  0.33052  0.48853  1.0000
  C   C147      1.0  0.05364  0.25451  0.52015  1.0000
  H   H98       1.0  0.05786  0.27428  0.57720  1.0000
  H   H99       1.0  0.07543  0.23143  0.52503  1.0000
  H   H100      1.0  0.02468  0.24145  0.52630  1.0000
  C   C148      1.0  0.93598  0.67225  0.34621  1.0000
  C   C149      1.0  0.94158  0.69219  0.42861  1.0000
  C   C150      1.0  0.95025  0.73281  0.43111  1.0000
  C   C151      1.0  0.95335  0.75377  0.34840  1.0000
  H   H101      1.0  0.93888  0.67687  0.48766  1.0000
  C   C152      1.0  0.95545  0.75271  0.51957  1.0000
  H   H102      1.0  0.95196  0.73275  0.57651  1.0000
  H   H103      1.0  0.93395  0.77596  0.52678  1.0000
  H   H104      1.0  0.98460  0.76551  0.52358  1.0000
  C   C153      1.0  0.67134  0.06958  0.34651  1.0000
  C   C154      1.0  0.69127  0.06437  0.42889  1.0000
  C   C155      1.0  0.73170  0.05602  0.43132  1.0000
  C   C156      1.0  0.75252  0.05290  0.34859  1.0000
  H   H105      1.0  0.67608  0.06711  0.48796  1.0000
  C   C157      1.0  0.75158  0.05117  0.51976  1.0000
  H   H106      1.0  0.73174  0.05463  0.57674  1.0000
  H   H107      1.0  0.77472  0.07300  0.52662  1.0000
  H   H108      1.0  0.76432  0.02202  0.52407  1.0000
  C   C158      1.0  0.33463  0.93576  0.34626  1.0000
  C   C159      1.0  0.31431  0.93931  0.42860  1.0000
  C   C160      1.0  0.27408  0.94862  0.43101  1.0000
  C   C161      1.0  0.25385  0.95440  0.34827  1.0000
  H   H109      1.0  0.32907  0.93477  0.48765  1.0000
  C   C162      1.0  0.25386  0.95199  0.51940  1.0000
  H   H110      1.0  0.27334  0.94698  0.57640  1.0000
  H   H111      1.0  0.23028  0.93050  0.52333  1.0000
  H   H112      1.0  0.24165  0.98128  0.52659  1.0000
  C   C163      1.0  0.44940  0.77296  0.42284  1.0000
  C   C164      1.0  0.44039  0.81309  0.42416  1.0000
  H   H113      1.0  0.45297  0.75866  0.48293  1.0000
  H   H114      1.0  0.43758  0.82702  0.48489  1.0000
  C   C165      1.0  0.55864  0.23208  0.42252  1.0000
  C   C166      1.0  0.56733  0.19189  0.42384  1.0000
  H   H115      1.0  0.55662  0.24673  0.48256  1.0000
  H   H116      1.0  0.57153  0.17826  0.48451  1.0000
  C   C167      1.0  0.77388  0.55761  0.42269  1.0000
  C   C168      1.0  0.81403  0.56612  0.42397  1.0000
  H   H117      1.0  0.75946  0.55480  0.48280  1.0000
  H   H118      1.0  0.82782  0.56946  0.48468  1.0000
  C   C169      1.0  0.23291  0.44618  0.42295  1.0000
  C   C170      1.0  0.19260  0.43851  0.42432  1.0000
  H   H119      1.0  0.24764  0.44742  0.48292  1.0000
  H   H120      1.0  0.17902  0.43409  0.48494  1.0000
  C   C171      1.0  0.09820  0.11735  0.34367  1.0000
  C   C172      1.0  0.11044  0.10087  0.42617  1.0000
  C   C173      1.0  0.13342  0.06650  0.42880  1.0000
  C   C174      1.0  0.14472  0.04863  0.34613  1.0000
  H   H121      1.0  0.10030  0.11265  0.48513  1.0000
  C   C175      1.0  0.14340  0.04870  0.51741  1.0000
  H   H122      1.0  0.13327  0.06620  0.57429  1.0000
  H   H123      1.0  0.17497  0.04590  0.52323  1.0000
  H   H124      1.0  0.13014  0.01970  0.52301  1.0000
  C   C176      1.0  0.90831  0.89074  0.34478  1.0000
  C   C177      1.0  0.89717  0.90788  0.42742  1.0000
  C   C178      1.0  0.87438  0.94236  0.43018  1.0000
  C   C179      1.0  0.86221  0.95965  0.34752  1.0000
  H   H125      1.0  0.90799  0.89652  0.48618  1.0000
  C   C180      1.0  0.86543  0.96078  0.51872  1.0000
  H   H126      1.0  0.87605  0.94357  0.57560  1.0000
  H   H127      1.0  0.83395  0.96380  0.52620  1.0000
  H   H128      1.0  0.87892  0.98973  0.52263  1.0000
  C   C181      1.0  0.88902  0.09941  0.34261  1.0000
  C   C182      1.0  0.90531  0.11188  0.42525  1.0000
  C   C183      1.0  0.94024  0.13414  0.42824  1.0000
  C   C184      1.0  0.95897  0.14429  0.34575  1.0000
  H   H129      1.0  0.89290  0.10237  0.48418  1.0000
  C   C185      1.0  0.95771  0.14445  0.51704  1.0000
  H   H130      1.0  0.93966  0.13501  0.57370  1.0000
  H   H131      1.0  0.96136  0.17614  0.52182  1.0000
  H   H132      1.0  0.98615  0.13061  0.52405  1.0000
  C   C186      1.0  0.11712  0.90897  0.34235  1.0000
  C   C187      1.0  0.10097  0.89641  0.42506  1.0000
  C   C188      1.0  0.06614  0.87397  0.42823  1.0000
  C   C189      1.0  0.04740  0.86364  0.34588  1.0000
  H   H133      1.0  0.11337  0.90600  0.48392  1.0000
  C   C190      1.0  0.04880  0.86363  0.51714  1.0000
  H   H134      1.0  0.06686  0.87317  0.57370  1.0000
  H   H135      1.0  0.04528  0.83193  0.52201  1.0000
  H   H136      1.0  0.02030  0.87735  0.52425  1.0000
  C   C191      1.0  0.37468  0.56238  0.42544  1.0000
  C   C192      1.0  0.39738  0.59673  0.42683  1.0000
  H   H137      1.0  0.36909  0.54844  0.48522  1.0000
  H   H138      1.0  0.40786  0.60673  0.48726  1.0000
  C   C193      1.0  0.63260  0.44181  0.42438  1.0000
  C   C194      1.0  0.60980  0.40751  0.42581  1.0000
  H   H139      1.0  0.63858  0.45551  0.48425  1.0000
  H   H140      1.0  0.59969  0.39729  0.48639  1.0000
  C   C195      1.0  0.56502  0.63286  0.42443  1.0000
  C   C196      1.0  0.59928  0.61046  0.42587  1.0000
  H   H141      1.0  0.55153  0.63893  0.48437  1.0000
  H   H142      1.0  0.60970  0.60072  0.48650  1.0000
  C   C197      1.0  0.44215  0.37264  0.42539  1.0000
  C   C198      1.0  0.40779  0.39488  0.42711  1.0000
  H   H143      1.0  0.45619  0.36729  0.48503  1.0000
  H   H144      1.0  0.39792  0.40529  0.48763  1.0000
