data_image0
_chemical_formula_structural       C13H9C13H9C13H9C13H9C4HNO2C4HNO2C4HNO2C2H2C2H2C2H2C17H12C17H12C17H12C17H12C2H2C2H2C2H2C4HNO2C4HNO2C4HNO2
_chemical_formula_sum              "C156 H102 N6 O12"
_cell_length_a       57.1264
_cell_length_b       57.1096
_cell_length_c       14.9818
_cell_angle_alpha    90
_cell_angle_beta     90
_cell_angle_gamma    120.005

_space_group_name_H-M_alt    "P 1"
_space_group_IT_number       1

loop_
  _space_group_symop_operation_xyz
  'x, y, z'

loop_
  _atom_site_type_symbol
  _atom_site_label
  _atom_site_symmetry_multiplicity
  _atom_site_fract_x
  _atom_site_fract_y
  _atom_site_fract_z
  _atom_site_occupancy
  C   C1        1.0  0.90940  0.83737  0.33009  1.0000
  C   C2        1.0  0.93534  0.89489  0.32881  1.0000
  C   C3        1.0  0.90690  0.87896  0.33548  1.0000
  C   C4        1.0  0.89411  0.85056  0.33692  1.0000
  C   C5        1.0  0.94751  0.92285  0.32530  1.0000
  C   C6        1.0  0.06588  0.02459  0.32786  1.0000
  C   C7        1.0  0.10984  0.02818  0.34079  1.0000
  C   C8        1.0  0.15135  0.07231  0.33187  1.0000
  C   C9        1.0  0.13823  0.04391  0.34183  1.0000
  C   C10       1.0  0.96407  0.04163  0.32608  1.0000
  C   C11       1.0  0.91975  0.03829  0.31933  1.0000
  C   C12       1.0  0.91628  0.07933  0.32958  1.0000
  C   C13       1.0  0.90403  0.05097  0.31975  1.0000
  H   H1        1.0  0.87347  0.83955  0.34133  1.0000
  H   H2        1.0  0.89523  0.88791  0.33959  1.0000
  H   H3        1.0  0.91028  0.01776  0.31106  1.0000
  H   H4        1.0  0.10098  0.00762  0.34706  1.0000
  H   H5        1.0  0.14929  0.03437  0.34801  1.0000
  H   H6        1.0  0.88350  0.03928  0.31310  1.0000
  H   H7        1.0  0.05820  0.00966  0.28334  1.0000
  H   H8        1.0  0.94069  0.93063  0.27959  1.0000
  H   H9        1.0  0.97909  0.04891  0.28186  1.0000
  C   C14       1.0  0.52574  0.36544  0.31917  1.0000
  C   C15       1.0  0.48448  0.30988  0.31910  1.0000
  C   C16       1.0  0.51056  0.31793  0.28563  1.0000
  C   C17       1.0  0.53088  0.34527  0.28588  1.0000
  C   C18       1.0  0.46531  0.28252  0.31965  1.0000
  C   C19       1.0  0.35256  0.18105  0.33830  1.0000
  C   C20       1.0  0.30901  0.17743  0.31121  1.0000
  C   C21       1.0  0.26668  0.13476  0.33708  1.0000
  C   C22       1.0  0.28058  0.16218  0.30993  1.0000
  C   C23       1.0  0.45641  0.17113  0.34133  1.0000
  C   C24       1.0  0.49923  0.18115  0.27886  1.0000
  C   C25       1.0  0.52126  0.15537  0.32328  1.0000
  C   C26       1.0  0.52113  0.17649  0.27402  1.0000
  H   H10       1.0  0.54971  0.35026  0.26303  1.0000
  H   H11       1.0  0.51521  0.30389  0.26223  1.0000
  H   H12       1.0  0.50021  0.19703  0.24388  1.0000
  H   H13       1.0  0.31830  0.19723  0.29134  1.0000
  H   H14       1.0  0.27010  0.17147  0.29002  1.0000
  H   H15       1.0  0.53748  0.18943  0.23633  1.0000
  H   H16       1.0  0.36110  0.19241  0.28447  1.0000
  H   H17       1.0  0.46390  0.27198  0.26488  1.0000
  H   H18       1.0  0.44419  0.16711  0.28916  1.0000
  C   C27       1.0  0.62325  0.16075  0.31929  1.0000
  C   C28       1.0  0.67882  0.17513  0.31942  1.0000
  C   C29       1.0  0.67073  0.19311  0.28570  1.0000
  C   C30       1.0  0.64339  0.18606  0.28589  1.0000
  C   C31       1.0  0.70618  0.18338  0.32009  1.0000
  C   C32       1.0  0.80732  0.17158  0.33830  1.0000
  C   C33       1.0  0.81088  0.13157  0.31196  1.0000
  C   C34       1.0  0.85368  0.13206  0.33626  1.0000
  C   C35       1.0  0.82615  0.11842  0.31039  1.0000
  C   C36       1.0  0.81777  0.28573  0.34149  1.0000
  C   C37       1.0  0.80775  0.31850  0.27858  1.0000
  C   C38       1.0  0.83334  0.36630  0.32332  1.0000
  C   C39       1.0  0.81234  0.34504  0.27375  1.0000
  H   H19       1.0  0.63839  0.19988  0.26292  1.0000
  H   H20       1.0  0.68476  0.21182  0.26228  1.0000
  H   H21       1.0  0.79192  0.30358  0.24345  1.0000
  H   H22       1.0  0.79100  0.12097  0.29299  1.0000
  H   H23       1.0  0.81681  0.09857  0.29114  1.0000
  H   H24       1.0  0.79942  0.34843  0.23581  1.0000
  H   H25       1.0  0.79576  0.16858  0.28490  1.0000
  H   H26       1.0  0.71674  0.19252  0.26534  1.0000
  H   H27       1.0  0.82162  0.27749  0.28905  1.0000
  C   C40       1.0  0.82778  0.46284  0.31885  1.0000
  C   C41       1.0  0.81326  0.50395  0.31904  1.0000
  C   C42       1.0  0.79534  0.47786  0.28528  1.0000
  C   C43       1.0  0.80246  0.45762  0.28540  1.0000
  C   C44       1.0  0.80490  0.52299  0.31993  1.0000
  C   C45       1.0  0.81626  0.63611  0.33804  1.0000
  C   C46       1.0  0.85596  0.67957  0.30749  1.0000
  C   C47       1.0  0.85617  0.72206  0.33623  1.0000
  C   C48       1.0  0.86923  0.70800  0.30602  1.0000
  C   C49       1.0  0.70297  0.53239  0.34126  1.0000
  C   C50       1.0  0.67017  0.48958  0.27864  1.0000
  C   C51       1.0  0.62237  0.46748  0.32318  1.0000
  C   C52       1.0  0.64362  0.46765  0.27385  1.0000
  H   H28       1.0  0.78868  0.43877  0.26246  1.0000
  H   H29       1.0  0.77662  0.47313  0.26190  1.0000
  H   H30       1.0  0.68508  0.48862  0.24367  1.0000
  H   H31       1.0  0.86616  0.67018  0.28532  1.0000
  H   H32       1.0  0.88877  0.71839  0.28368  1.0000
  H   H33       1.0  0.64023  0.45130  0.23614  1.0000
  H   H34       1.0  0.81849  0.62749  0.28336  1.0000
  H   H35       1.0  0.79556  0.52423  0.26545  1.0000
  H   H36       1.0  0.71125  0.54447  0.28879  1.0000
  C   C53       1.0  0.23784  0.11925  0.33524  1.0000
  C   C54       1.0  0.22313  0.11973  0.25997  1.0000
  C   C55       1.0  0.19453  0.10437  0.25674  1.0000
  C   C56       1.0  0.18008  0.08812  0.33114  1.0000
  H   H37       1.0  0.23330  0.13093  0.20521  1.0000
  N   N1        1.0  0.18027  0.10429  0.17926  1.0000
  O   O1        1.0  0.18671  0.09536  0.11266  1.0000
  O   O2        1.0  0.18447  0.12759  0.16138  1.0000
  C   C57       1.0  0.86921  0.11876  0.33405  1.0000
  C   C58       1.0  0.86855  0.10346  0.25887  1.0000
  C   C59       1.0  0.88396  0.09026  0.25525  1.0000
  C   C60       1.0  0.90043  0.09222  0.32916  1.0000
  H   H38       1.0  0.85717  0.10229  0.20447  1.0000
  N   N2        1.0  0.88384  0.07596  0.17781  1.0000
  O   O3        1.0  0.89257  0.09124  0.11092  1.0000
  O   O4        1.0  0.86052  0.05681  0.16065  1.0000
  C   C61       1.0  0.86960  0.75092  0.33416  1.0000
  C   C62       1.0  0.88422  0.76553  0.25788  1.0000
  C   C63       1.0  0.89755  0.79414  0.25449  1.0000
  C   C64       1.0  0.89638  0.80866  0.32965  1.0000
  H   H39       1.0  0.88476  0.75529  0.20257  1.0000
  N   N3        1.0  0.91127  0.80838  0.17638  1.0000
  O   O5        1.0  0.89545  0.80197  0.11099  1.0000
  O   O6        1.0  0.93016  0.80407  0.15650  1.0000
  C   C65       1.0  0.58356  0.15582  0.24085  1.0000
  C   C66       1.0  0.55838  0.15455  0.24108  1.0000
  H   H40       1.0  0.59342  0.15875  0.18120  1.0000
  H   H41       1.0  0.55067  0.15636  0.18148  1.0000
  C   C67       1.0  0.83283  0.42812  0.24058  1.0000
  C   C68       1.0  0.83416  0.40423  0.24094  1.0000
  H   H42       1.0  0.82999  0.43507  0.18086  1.0000
  H   H43       1.0  0.83244  0.39473  0.18135  1.0000
  C   C69       1.0  0.56053  0.40512  0.24076  1.0000
  C   C70       1.0  0.58445  0.43031  0.24100  1.0000
  H   H44       1.0  0.55361  0.39526  0.18112  1.0000
  H   H45       1.0  0.59397  0.43802  0.18140  1.0000
  C   C71       1.0  0.93782  0.85329  0.32282  1.0000
  C   C72       1.0  0.95065  0.88170  0.32217  1.0000
  C   C73       1.0  0.96713  0.93956  0.38163  1.0000
  C   C74       1.0  0.97935  0.96759  0.37855  1.0000
  C   C75       1.0  0.96394  0.98075  0.37869  1.0000
  C   C76       1.0  0.97651  0.00927  0.37805  1.0000
  C   C77       1.0  0.00508  0.02468  0.37922  1.0000
  C   C78       1.0  0.02103  0.01210  0.37905  1.0000
  C   C79       1.0  0.00786  0.98352  0.37979  1.0000
  C   C80       1.0  0.04905  0.02793  0.38238  1.0000
  C   C81       1.0  0.09381  0.04050  0.33139  1.0000
  C   C82       1.0  0.10689  0.06892  0.32178  1.0000
  C   C83       1.0  0.13529  0.08461  0.32222  1.0000
  C   C84       1.0  0.96067  0.02147  0.38075  1.0000
  C   C85       1.0  0.94815  0.05365  0.32920  1.0000
  C   C86       1.0  0.96043  0.08200  0.33874  1.0000
  C   C87       1.0  0.94467  0.09464  0.33968  1.0000
  H   H46       1.0  0.94942  0.84430  0.31810  1.0000
  H   H47       1.0  0.97124  0.89267  0.31590  1.0000
  H   H48       1.0  0.01920  0.97418  0.38183  1.0000
  H   H49       1.0  0.94325  0.96938  0.37992  1.0000
  H   H50       1.0  0.01442  0.04537  0.38086  1.0000
  H   H51       1.0  0.14416  0.10515  0.31559  1.0000
  H   H52       1.0  0.09586  0.07842  0.31354  1.0000
  H   H53       1.0  0.95419  0.11522  0.34610  1.0000
  H   H54       1.0  0.98097  0.09371  0.34528  1.0000
  H   H55       1.0  0.05686  0.04295  0.42666  1.0000
  H   H56       1.0  0.97388  0.93168  0.42724  1.0000
  H   H57       1.0  0.94558  0.01425  0.42474  1.0000
  C   C88       1.0  0.49959  0.35746  0.35199  1.0000
  C   C89       1.0  0.47917  0.33002  0.35174  1.0000
  C   C90       1.0  0.45218  0.26899  0.39366  1.0000
  C   C91       1.0  0.43856  0.24101  0.39713  1.0000
  C   C92       1.0  0.45353  0.22748  0.40165  1.0000
  C   C93       1.0  0.44047  0.19898  0.40560  1.0000
  C   C94       1.0  0.41192  0.18396  0.40652  1.0000
  C   C95       1.0  0.39654  0.19713  0.40248  1.0000
  C   C96       1.0  0.41005  0.22571  0.39841  1.0000
  C   C97       1.0  0.36858  0.18194  0.40558  1.0000
  C   C98       1.0  0.32448  0.16577  0.33992  1.0000
  C   C99       1.0  0.31067  0.13827  0.36599  1.0000
  C   C100      1.0  0.28224  0.12309  0.36518  1.0000
  C   C101      1.0  0.45613  0.18670  0.40814  1.0000
  C   C102      1.0  0.47681  0.16490  0.33380  1.0000
  C   C103      1.0  0.47652  0.14362  0.38273  1.0000
  C   C104      1.0  0.49852  0.13899  0.37753  1.0000
  H   H58       1.0  0.49522  0.37160  0.37617  1.0000
  H   H59       1.0  0.46044  0.32485  0.37599  1.0000
  H   H60       1.0  0.39907  0.23544  0.39645  1.0000
  H   H61       1.0  0.47427  0.23855  0.40108  1.0000
  H   H62       1.0  0.40230  0.16326  0.40998  1.0000
  H   H63       1.0  0.27302  0.10316  0.38332  1.0000
  H   H64       1.0  0.32119  0.12892  0.38497  1.0000
  H   H65       1.0  0.49782  0.12354  0.41423  1.0000
  H   H66       1.0  0.46058  0.13169  0.42359  1.0000
  H   H67       1.0  0.36034  0.17075  0.45984  1.0000
  H   H68       1.0  0.45494  0.27884  0.45095  1.0000
  H   H69       1.0  0.47018  0.19275  0.45568  1.0000
  C   C105      1.0  0.63126  0.14263  0.35233  1.0000
  C   C106      1.0  0.65871  0.14968  0.35220  1.0000
  C   C107      1.0  0.71972  0.18366  0.39392  1.0000
  C   C108      1.0  0.74769  0.19798  0.39735  1.0000
  C   C109      1.0  0.76126  0.22650  0.40184  1.0000
  C   C110      1.0  0.78976  0.24190  0.40558  1.0000
  C   C111      1.0  0.80474  0.22833  0.40633  1.0000
  C   C112      1.0  0.79154  0.19977  0.40235  1.0000
  C   C113      1.0  0.76295  0.18473  0.39847  1.0000
  C   C114      1.0  0.80670  0.18697  0.40525  1.0000
  C   C115      1.0  0.82263  0.15881  0.33968  1.0000
  C   C116      1.0  0.85023  0.17261  0.36453  1.0000
  C   C117      1.0  0.86542  0.15939  0.36339  1.0000
  C   C118      1.0  0.80206  0.26985  0.40801  1.0000
  C   C119      1.0  0.82392  0.31235  0.33398  1.0000
  C   C120      1.0  0.84508  0.33335  0.38322  1.0000
  C   C121      1.0  0.84967  0.35997  0.37793  1.0000
  H   H70       1.0  0.61715  0.12412  0.37662  1.0000
  H   H71       1.0  0.66390  0.13616  0.37660  1.0000
  H   H72       1.0  0.75319  0.16402  0.39651  1.0000
  H   H73       1.0  0.75022  0.23620  0.40135  1.0000
  H   H74       1.0  0.82543  0.23938  0.40963  1.0000
  H   H75       1.0  0.88542  0.17017  0.38065  1.0000
  H   H76       1.0  0.85963  0.19255  0.38275  1.0000
  H   H77       1.0  0.86505  0.37472  0.41483  1.0000
  H   H78       1.0  0.85698  0.32934  0.42431  1.0000
  H   H79       1.0  0.81812  0.19011  0.45906  1.0000
  H   H80       1.0  0.70988  0.17650  0.45118  1.0000
  H   H81       1.0  0.79613  0.27791  0.45572  1.0000
  C   C122      1.0  0.84585  0.48900  0.35191  1.0000
  C   C123      1.0  0.83872  0.50934  0.35179  1.0000
  C   C124      1.0  0.80479  0.53638  0.39364  1.0000
  C   C125      1.0  0.79054  0.55010  0.39735  1.0000
  C   C126      1.0  0.76203  0.53521  0.40187  1.0000
  C   C127      1.0  0.74669  0.54837  0.40604  1.0000
  C   C128      1.0  0.76031  0.57693  0.40717  1.0000
  C   C129      1.0  0.78886  0.59221  0.40319  1.0000
  C   C130      1.0  0.80385  0.57862  0.39890  1.0000
  C   C131      1.0  0.80176  0.62018  0.40639  1.0000
  C   C132      1.0  0.82918  0.66421  0.33952  1.0000
  C   C133      1.0  0.81593  0.67816  0.36871  1.0000
  C   C134      1.0  0.82928  0.70660  0.36764  1.0000
  C   C135      1.0  0.71875  0.53278  0.40844  1.0000
  C   C136      1.0  0.67634  0.51198  0.33371  1.0000
  C   C137      1.0  0.65535  0.51222  0.38278  1.0000
  C   C138      1.0  0.62872  0.49021  0.37754  1.0000
  H   H82       1.0  0.86435  0.49343  0.37625  1.0000
  H   H83       1.0  0.85220  0.52807  0.37627  1.0000
  H   H84       1.0  0.82456  0.58954  0.39688  1.0000
  H   H85       1.0  0.75228  0.51446  0.40112  1.0000
  H   H86       1.0  0.74931  0.58661  0.41074  1.0000
  H   H87       1.0  0.81886  0.71591  0.38804  1.0000
  H   H88       1.0  0.79629  0.66773  0.39016  1.0000
  H   H89       1.0  0.61398  0.49088  0.41430  1.0000
  H   H90       1.0  0.65936  0.52816  0.42368  1.0000
  H   H91       1.0  0.79937  0.62846  0.46156  1.0000
  H   H92       1.0  0.81232  0.53400  0.45058  1.0000
  H   H93       1.0  0.71069  0.51887  0.45640  1.0000
  C   C139      1.0  0.19473  0.08749  0.40628  1.0000
  C   C140      1.0  0.22311  0.10279  0.40828  1.0000
  H   H94       1.0  0.18480  0.07610  0.46104  1.0000
  H   H95       1.0  0.23292  0.10212  0.46456  1.0000
  C   C141      1.0  0.90124  0.10763  0.40420  1.0000
  C   C142      1.0  0.88590  0.12067  0.40658  1.0000
  H   H96       1.0  0.91277  0.10921  0.45865  1.0000
  H   H97       1.0  0.88670  0.13123  0.46279  1.0000
  C   C143      1.0  0.88167  0.79416  0.40579  1.0000
  C   C144      1.0  0.86853  0.76577  0.40801  1.0000
  H   H98       1.0  0.88067  0.80420  0.46101  1.0000
  H   H99       1.0  0.85850  0.75605  0.46500  1.0000
  C   C145      1.0  0.54459  0.15226  0.32187  1.0000
  C   C146      1.0  0.55623  0.14963  0.40195  1.0000
  C   C147      1.0  0.58167  0.15091  0.40293  1.0000
  C   C148      1.0  0.59584  0.15468  0.32143  1.0000
  H   H100      1.0  0.54706  0.14859  0.46168  1.0000
  N   N4        1.0  0.59384  0.15017  0.48447  1.0000
  O   O7        1.0  0.59777  0.16933  0.53517  1.0000
  O   O8        1.0  0.57957  0.12823  0.52488  1.0000
  C   C149      1.0  0.83639  0.39273  0.32180  1.0000
  C   C150      1.0  0.83897  0.40700  0.40185  1.0000
  C   C151      1.0  0.83761  0.43113  0.40270  1.0000
  C   C152      1.0  0.83389  0.44153  0.32109  1.0000
  H   H101      1.0  0.83990  0.39884  0.46164  1.0000
  N   N5        1.0  0.83825  0.44402  0.48419  1.0000
  O   O9        1.0  0.81906  0.42875  0.53472  1.0000
  O   O10       1.0  0.86015  0.45172  0.52484  1.0000
  C   C153      1.0  0.59594  0.44411  0.32179  1.0000
  C   C154      1.0  0.58166  0.43248  0.40185  1.0000
  C   C155      1.0  0.55749  0.40703  0.40282  1.0000
  C   C156      1.0  0.54709  0.39285  0.32131  1.0000
  H   H102      1.0  0.58978  0.44166  0.46159  1.0000
  N   N6        1.0  0.54455  0.39487  0.48434  1.0000
  O   O11       1.0  0.55976  0.39094  0.53511  1.0000
  O   O12       1.0  0.53689  0.40915  0.52467  1.0000
