data_image0
_chemical_formula_structural       C15H12C2NCNCNH3C2NCNCNH3C2NC2NC5NC3NC17H14NCHCH2CH2NCHCH2CH2C15H12C2NCNCNH3C2NCNCNH3C2NC2NC5NC3NC17H14NCHCH2CH2NCHCH2CH2C15H12C2NCNCNH3C2NCNCNH3C2NC2NC5NC3NC17H14NCHCH2CH2NCHCH2CH2C15H12C2NCNCNH3C2NCNCNH3C2NC2NC5NC3NC17H14NCHCH2CH2NCHCH2CH2
_chemical_formula_sum              "C232 H168 N48"
_cell_length_a       42.69
_cell_length_b       42.69
_cell_length_c       14.9436
_cell_angle_alpha    90
_cell_angle_beta     90
_cell_angle_gamma    90

_space_group_name_H-M_alt    "P 1"
_space_group_IT_number       1

loop_
  _space_group_symop_operation_xyz
  'x, y, z'

loop_
  _atom_site_type_symbol
  _atom_site_label
  _atom_site_symmetry_multiplicity
  _atom_site_fract_x
  _atom_site_fract_y
  _atom_site_fract_z
  _atom_site_occupancy
  C   C1        1.0  0.43354  0.47970  0.34431  1.0000
  C   C2        1.0  0.02985  0.44132  0.34470  1.0000
  C   C3        1.0  0.49948  0.09082  0.35101  1.0000
  C   C4        1.0  0.46981  0.07578  0.34893  1.0000
  C   C5        1.0  0.41782  0.06781  0.34817  1.0000
  C   C6        1.0  0.44068  0.09066  0.34788  1.0000
  C   C7        1.0  0.33382  0.50980  0.27013  1.0000
  C   C8        1.0  0.36680  0.50978  0.26805  1.0000
  C   C9        1.0  0.49983  0.12427  0.35167  1.0000
  C   C10       1.0  0.50405  0.17411  0.27166  1.0000
  C   C11       1.0  0.50382  0.14114  0.27131  1.0000
  C   C12       1.0  0.13227  0.02101  0.27316  1.0000
  C   C13       1.0  0.16524  0.02152  0.27143  1.0000
  C   C14       1.0  0.01123  0.37597  0.26476  1.0000
  C   C15       1.0  0.01171  0.34299  0.26360  1.0000
  H   H1        1.0  0.02192  0.33227  0.20987  1.0000
  H   H2        1.0  0.02013  0.38792  0.21105  1.0000
  H   H3        1.0  0.43706  0.40440  0.32615  1.0000
  H   H4        1.0  0.12020  0.03022  0.22005  1.0000
  H   H5        1.0  0.17592  0.03199  0.21801  1.0000
  H   H6        1.0  0.06209  0.11286  0.37110  1.0000
  H   H7        1.0  0.39426  0.07211  0.34719  1.0000
  H   H8        1.0  0.43637  0.11423  0.34767  1.0000
  H   H9        1.0  0.50654  0.12951  0.21186  1.0000
  H   H10       1.0  0.50720  0.18526  0.21167  1.0000
  H   H11       1.0  0.37806  0.51062  0.20757  1.0000
  H   H12       1.0  0.32231  0.51082  0.21011  1.0000
  C   C16       1.0  0.99942  0.29149  0.33566  1.0000
  C   C17       1.0  0.00040  0.22521  0.35014  1.0000
  N   N1        1.0  0.49542  0.24044  0.27141  1.0000
  C   C18       1.0  0.49482  0.27207  0.25966  1.0000
  N   N2        1.0  0.48910  0.28388  0.17939  1.0000
  C   C19       1.0  0.99218  0.27159  0.10161  1.0000
  N   N3        1.0  0.98607  0.29019  0.02794  1.0000
  H   H13       1.0  0.00044  0.24992  0.09384  1.0000
  H   H14       1.0  0.43943  0.27355  0.00926  1.0000
  H   H15       1.0  0.03216  0.30961  0.02420  1.0000
  C   C20       1.0  0.21678  0.00824  0.34100  1.0000
  C   C21       1.0  0.28314  0.00890  0.35206  1.0000
  N   N4        1.0  0.26736  0.50347  0.27439  1.0000
  C   C22       1.0  0.23566  0.50296  0.26432  1.0000
  N   N5        1.0  0.22315  0.49655  0.18542  1.0000
  C   C23       1.0  0.23455  0.99910  0.10641  1.0000
  N   N6        1.0  0.21499  0.99240  0.03524  1.0000
  H   H16       1.0  0.25596  0.00767  0.09601  1.0000
  H   H17       1.0  0.23279  0.44623  0.01521  1.0000
  H   H18       1.0  0.19492  0.03827  0.03350  1.0000
  C   C24       1.0  0.44163  0.42775  0.33378  1.0000
  C   C25       1.0  0.41881  0.45063  0.33597  1.0000
  N   N7        1.0  0.46467  0.47328  0.34783  1.0000
  C   C26       1.0  0.47090  0.44215  0.34213  1.0000
  C   C27       1.0  0.50019  0.42608  0.34276  1.0000
  N   N8        1.0  0.03598  0.47244  0.34640  1.0000
  C   C28       1.0  0.06710  0.47857  0.34608  1.0000
  C   C29       1.0  0.08187  0.44940  0.34318  1.0000
  C   C30       1.0  0.05905  0.42656  0.34459  1.0000
  C   C31       1.0  0.08233  0.50822  0.34874  1.0000
  C   C32       1.0  0.06624  0.03747  0.35239  1.0000
  N   N9        1.0  0.03511  0.04375  0.34738  1.0000
  C   C33       1.0  0.02874  0.07484  0.35326  1.0000
  C   C34       1.0  0.05781  0.08945  0.36317  1.0000
  C   C35       1.0  0.08067  0.06661  0.36345  1.0000
  N   N10       1.0  0.46379  0.04469  0.34899  1.0000
  C   C36       1.0  0.43269  0.03867  0.34844  1.0000
  C   C37       1.0  0.41764  0.50900  0.34706  1.0000
  C   C38       1.0  0.38419  0.50875  0.34824  1.0000
  C   C39       1.0  0.36784  0.00763  0.43020  1.0000
  C   C40       1.0  0.33485  0.00765  0.43182  1.0000
  C   C41       1.0  0.31687  0.50889  0.35195  1.0000
  C   C42       1.0  0.99610  0.14115  0.43215  1.0000
  C   C43       1.0  0.99635  0.17415  0.43208  1.0000
  C   C44       1.0  0.50044  0.19154  0.35195  1.0000
  C   C45       1.0  0.11594  0.50866  0.34748  1.0000
  C   C46       1.0  0.18320  0.50856  0.34210  1.0000
  C   C47       1.0  0.16661  0.49632  0.41635  1.0000
  C   C48       1.0  0.13365  0.49678  0.41983  1.0000
  C   C49       1.0  0.49983  0.39247  0.34001  1.0000
  C   C50       1.0  0.48828  0.37490  0.41305  1.0000
  C   C51       1.0  0.48772  0.34194  0.41014  1.0000
  C   C52       1.0  0.49945  0.32513  0.33553  1.0000
  H   H19       1.0  0.47818  0.33028  0.46329  1.0000
  H   H20       1.0  0.47976  0.38605  0.46866  1.0000
  H   H21       1.0  0.39532  0.44636  0.33032  1.0000
  H   H22       1.0  0.48051  0.48903  0.35602  1.0000
  H   H23       1.0  0.01942  0.02806  0.33624  1.0000
  H   H24       1.0  0.06359  0.40306  0.34399  1.0000
  H   H25       1.0  0.10537  0.44488  0.34164  1.0000
  H   H26       1.0  0.12261  0.48766  0.47482  1.0000
  H   H27       1.0  0.17844  0.48624  0.46835  1.0000
  H   H28       1.0  0.10404  0.07104  0.37150  1.0000
  H   H29       1.0  0.99295  0.12949  0.49138  1.0000
  H   H30       1.0  0.99281  0.18521  0.49187  1.0000
  H   H31       1.0  0.32430  0.00622  0.49301  1.0000
  H   H32       1.0  0.37987  0.00671  0.48945  1.0000
  N   N11       1.0  0.00452  0.27641  0.41470  1.0000
  C   C53       1.0  0.00524  0.24483  0.42510  1.0000
  H   H33       1.0  0.01000  0.23606  0.48707  1.0000
  C   C54       1.0  0.46080  0.27716  0.63700  1.0000
  H   H34       1.0  0.96771  0.25486  0.60709  1.0000
  H   H35       1.0  0.45519  0.29358  0.58335  1.0000
  C   C55       1.0  0.01524  0.29869  0.64570  1.0000
  H   H36       1.0  0.01002  0.31571  0.59343  1.0000
  H   H37       1.0  0.02615  0.27818  0.61497  1.0000
  N   N12       1.0  0.23231  0.01368  0.41907  1.0000
  C   C56       1.0  0.26395  0.01427  0.42778  1.0000
  H   H38       1.0  0.27300  0.01924  0.48926  1.0000
  C   C57       1.0  0.22759  0.46728  0.64300  1.0000
  H   H39       1.0  0.24893  0.97482  0.60882  1.0000
  H   H40       1.0  0.21020  0.46086  0.59270  1.0000
  C   C58       1.0  0.20490  0.02120  0.65370  1.0000
  H   H41       1.0  0.18667  0.01544  0.60544  1.0000
  H   H42       1.0  0.22446  0.03215  0.61829  1.0000
  C   C59       1.0  0.43354  0.97970  0.34431  1.0000
  C   C60       1.0  0.02985  0.94132  0.34470  1.0000
  C   C61       1.0  0.49948  0.59081  0.35101  1.0000
  C   C62       1.0  0.46981  0.57578  0.34893  1.0000
  C   C63       1.0  0.41782  0.56781  0.34817  1.0000
  C   C64       1.0  0.44068  0.59067  0.34788  1.0000
  C   C65       1.0  0.33382  0.00980  0.27013  1.0000
  C   C66       1.0  0.36680  0.00978  0.26805  1.0000
  C   C67       1.0  0.49983  0.62428  0.35167  1.0000
  C   C68       1.0  0.50405  0.67412  0.27166  1.0000
  C   C69       1.0  0.50382  0.64114  0.27131  1.0000
  C   C70       1.0  0.13227  0.52101  0.27316  1.0000
  C   C71       1.0  0.16524  0.52152  0.27143  1.0000
  C   C72       1.0  0.01123  0.87597  0.26476  1.0000
  C   C73       1.0  0.01171  0.84299  0.26360  1.0000
  H   H43       1.0  0.02192  0.83228  0.20987  1.0000
  H   H44       1.0  0.02013  0.88792  0.21105  1.0000
  H   H45       1.0  0.43706  0.90440  0.32615  1.0000
  H   H46       1.0  0.12020  0.53022  0.22005  1.0000
  H   H47       1.0  0.17592  0.53199  0.21801  1.0000
  H   H48       1.0  0.06209  0.61286  0.37110  1.0000
  H   H49       1.0  0.39426  0.57211  0.34719  1.0000
  H   H50       1.0  0.43637  0.61423  0.34767  1.0000
  H   H51       1.0  0.50654  0.62951  0.21186  1.0000
  H   H52       1.0  0.50720  0.68526  0.21167  1.0000
  H   H53       1.0  0.37806  0.01062  0.20757  1.0000
  H   H54       1.0  0.32231  0.01082  0.21011  1.0000
  C   C74       1.0  0.99942  0.79150  0.33566  1.0000
  C   C75       1.0  0.00040  0.72521  0.35014  1.0000
  N   N13       1.0  0.49542  0.74045  0.27141  1.0000
  C   C76       1.0  0.49482  0.77207  0.25966  1.0000
  N   N14       1.0  0.48910  0.78388  0.17939  1.0000
  C   C77       1.0  0.99218  0.77159  0.10161  1.0000
  N   N15       1.0  0.98607  0.79020  0.02794  1.0000
  H   H55       1.0  0.00044  0.74992  0.09384  1.0000
  H   H56       1.0  0.43943  0.77355  0.00926  1.0000
  H   H57       1.0  0.03216  0.80961  0.02420  1.0000
  C   C78       1.0  0.21678  0.50824  0.34100  1.0000
  C   C79       1.0  0.28314  0.50891  0.35206  1.0000
  N   N16       1.0  0.26736  0.00347  0.27439  1.0000
  C   C80       1.0  0.23566  0.00296  0.26432  1.0000
  N   N17       1.0  0.22315  0.99655  0.18542  1.0000
  C   C81       1.0  0.23455  0.49911  0.10641  1.0000
  N   N18       1.0  0.21499  0.49240  0.03524  1.0000
  H   H58       1.0  0.25596  0.50767  0.09601  1.0000
  H   H59       1.0  0.23279  0.94624  0.01521  1.0000
  H   H60       1.0  0.19492  0.53827  0.03350  1.0000
  C   C82       1.0  0.44163  0.92775  0.33378  1.0000
  C   C83       1.0  0.41881  0.95063  0.33597  1.0000
  N   N19       1.0  0.46467  0.97328  0.34783  1.0000
  C   C84       1.0  0.47090  0.94215  0.34213  1.0000
  C   C85       1.0  0.50019  0.92608  0.34276  1.0000
  N   N20       1.0  0.03598  0.97244  0.34640  1.0000
  C   C86       1.0  0.06710  0.97857  0.34608  1.0000
  C   C87       1.0  0.08187  0.94940  0.34318  1.0000
  C   C88       1.0  0.05905  0.92656  0.34459  1.0000
  C   C89       1.0  0.08233  0.00822  0.34874  1.0000
  C   C90       1.0  0.06624  0.53747  0.35239  1.0000
  N   N21       1.0  0.03511  0.54375  0.34738  1.0000
  C   C91       1.0  0.02874  0.57484  0.35326  1.0000
  C   C92       1.0  0.05781  0.58945  0.36317  1.0000
  C   C93       1.0  0.08067  0.56661  0.36345  1.0000
  N   N22       1.0  0.46379  0.54469  0.34899  1.0000
  C   C94       1.0  0.43269  0.53867  0.34844  1.0000
  C   C95       1.0  0.41764  0.00900  0.34706  1.0000
  C   C96       1.0  0.38419  0.00875  0.34824  1.0000
  C   C97       1.0  0.36784  0.50763  0.43020  1.0000
  C   C98       1.0  0.33485  0.50765  0.43182  1.0000
  C   C99       1.0  0.31687  0.00889  0.35195  1.0000
  C   C100      1.0  0.99610  0.64115  0.43215  1.0000
  C   C101      1.0  0.99635  0.67415  0.43208  1.0000
  C   C102      1.0  0.50044  0.69155  0.35195  1.0000
  C   C103      1.0  0.11594  0.00866  0.34748  1.0000
  C   C104      1.0  0.18320  0.00856  0.34210  1.0000
  C   C105      1.0  0.16661  0.99632  0.41635  1.0000
  C   C106      1.0  0.13365  0.99678  0.41983  1.0000
  C   C107      1.0  0.49983  0.89247  0.34001  1.0000
  C   C108      1.0  0.48828  0.87490  0.41305  1.0000
  C   C109      1.0  0.48772  0.84194  0.41014  1.0000
  C   C110      1.0  0.49945  0.82513  0.33553  1.0000
  H   H61       1.0  0.47818  0.83028  0.46329  1.0000
  H   H62       1.0  0.47976  0.88605  0.46866  1.0000
  H   H63       1.0  0.39532  0.94636  0.33032  1.0000
  H   H64       1.0  0.48051  0.98903  0.35602  1.0000
  H   H65       1.0  0.01942  0.52806  0.33624  1.0000
  H   H66       1.0  0.06359  0.90306  0.34399  1.0000
  H   H67       1.0  0.10537  0.94488  0.34164  1.0000
  H   H68       1.0  0.12261  0.98766  0.47482  1.0000
  H   H69       1.0  0.17844  0.98624  0.46835  1.0000
  H   H70       1.0  0.10404  0.57104  0.37150  1.0000
  H   H71       1.0  0.99295  0.62949  0.49138  1.0000
  H   H72       1.0  0.99281  0.68521  0.49187  1.0000
  H   H73       1.0  0.32430  0.50622  0.49301  1.0000
  H   H74       1.0  0.37987  0.50671  0.48945  1.0000
  N   N23       1.0  0.00452  0.77641  0.41470  1.0000
  C   C111      1.0  0.00524  0.74483  0.42510  1.0000
  H   H75       1.0  0.01000  0.73606  0.48707  1.0000
  C   C112      1.0  0.46080  0.77716  0.63700  1.0000
  H   H76       1.0  0.96771  0.75486  0.60709  1.0000
  H   H77       1.0  0.45519  0.79358  0.58335  1.0000
  C   C113      1.0  0.01524  0.79869  0.64570  1.0000
  H   H78       1.0  0.01002  0.81571  0.59343  1.0000
  H   H79       1.0  0.02615  0.77818  0.61497  1.0000
  N   N24       1.0  0.23231  0.51368  0.41907  1.0000
  C   C114      1.0  0.26395  0.51426  0.42778  1.0000
  H   H80       1.0  0.27300  0.51924  0.48926  1.0000
  C   C115      1.0  0.22759  0.96728  0.64300  1.0000
  H   H81       1.0  0.24893  0.47482  0.60882  1.0000
  H   H82       1.0  0.21020  0.96086  0.59270  1.0000
  C   C116      1.0  0.20490  0.52120  0.65370  1.0000
  H   H83       1.0  0.18667  0.51544  0.60544  1.0000
  H   H84       1.0  0.22446  0.53215  0.61829  1.0000
  C   C117      1.0  0.93354  0.47970  0.34431  1.0000
  C   C118      1.0  0.52985  0.44132  0.34470  1.0000
  C   C119      1.0  0.99948  0.09082  0.35101  1.0000
  C   C120      1.0  0.96981  0.07578  0.34893  1.0000
  C   C121      1.0  0.91782  0.06781  0.34817  1.0000
  C   C122      1.0  0.94068  0.09066  0.34788  1.0000
  C   C123      1.0  0.83382  0.50980  0.27013  1.0000
  C   C124      1.0  0.86680  0.50978  0.26805  1.0000
  C   C125      1.0  0.99983  0.12427  0.35167  1.0000
  C   C126      1.0  0.00405  0.17411  0.27166  1.0000
  C   C127      1.0  0.00382  0.14114  0.27131  1.0000
  C   C128      1.0  0.63227  0.02101  0.27316  1.0000
  C   C129      1.0  0.66524  0.02152  0.27143  1.0000
  C   C130      1.0  0.51123  0.37597  0.26476  1.0000
  C   C131      1.0  0.51171  0.34299  0.26360  1.0000
  H   H85       1.0  0.52192  0.33227  0.20987  1.0000
  H   H86       1.0  0.52013  0.38792  0.21105  1.0000
  H   H87       1.0  0.93706  0.40440  0.32615  1.0000
  H   H88       1.0  0.62021  0.03022  0.22005  1.0000
  H   H89       1.0  0.67592  0.03199  0.21801  1.0000
  H   H90       1.0  0.56209  0.11286  0.37110  1.0000
  H   H91       1.0  0.89426  0.07211  0.34719  1.0000
  H   H92       1.0  0.93638  0.11423  0.34767  1.0000
  H   H93       1.0  0.00654  0.12951  0.21186  1.0000
  H   H94       1.0  0.00720  0.18526  0.21167  1.0000
  H   H95       1.0  0.87807  0.51062  0.20757  1.0000
  H   H96       1.0  0.82231  0.51082  0.21011  1.0000
  C   C132      1.0  0.49942  0.29149  0.33566  1.0000
  C   C133      1.0  0.50040  0.22521  0.35014  1.0000
  N   N25       1.0  0.99542  0.24044  0.27141  1.0000
  C   C134      1.0  0.99482  0.27207  0.25966  1.0000
  N   N26       1.0  0.98910  0.28388  0.17939  1.0000
  C   C135      1.0  0.49218  0.27159  0.10161  1.0000
  N   N27       1.0  0.48607  0.29019  0.02794  1.0000
  H   H97       1.0  0.50043  0.24992  0.09384  1.0000
  H   H98       1.0  0.93943  0.27355  0.00926  1.0000
  H   H99       1.0  0.53216  0.30961  0.02420  1.0000
  C   C136      1.0  0.71678  0.00824  0.34100  1.0000
  C   C137      1.0  0.78314  0.00890  0.35206  1.0000
  N   N28       1.0  0.76736  0.50347  0.27439  1.0000
  C   C138      1.0  0.73566  0.50296  0.26432  1.0000
  N   N29       1.0  0.72315  0.49655  0.18542  1.0000
  C   C139      1.0  0.73455  0.99910  0.10641  1.0000
  N   N30       1.0  0.71499  0.99240  0.03524  1.0000
  H   H100      1.0  0.75596  0.00767  0.09601  1.0000
  H   H101      1.0  0.73279  0.44623  0.01521  1.0000
  H   H102      1.0  0.69492  0.03827  0.03350  1.0000
  C   C140      1.0  0.94163  0.42775  0.33378  1.0000
  C   C141      1.0  0.91881  0.45063  0.33597  1.0000
  N   N31       1.0  0.96467  0.47328  0.34783  1.0000
  C   C142      1.0  0.97090  0.44215  0.34213  1.0000
  C   C143      1.0  0.00020  0.42608  0.34276  1.0000
  N   N32       1.0  0.53598  0.47244  0.34640  1.0000
  C   C144      1.0  0.56710  0.47857  0.34608  1.0000
  C   C145      1.0  0.58187  0.44940  0.34318  1.0000
  C   C146      1.0  0.55905  0.42656  0.34459  1.0000
  C   C147      1.0  0.58233  0.50822  0.34874  1.0000
  C   C148      1.0  0.56624  0.03747  0.35239  1.0000
  N   N33       1.0  0.53511  0.04375  0.34738  1.0000
  C   C149      1.0  0.52874  0.07484  0.35326  1.0000
  C   C150      1.0  0.55781  0.08945  0.36317  1.0000
  C   C151      1.0  0.58067  0.06661  0.36345  1.0000
  N   N34       1.0  0.96379  0.04469  0.34899  1.0000
  C   C152      1.0  0.93270  0.03867  0.34844  1.0000
  C   C153      1.0  0.91764  0.50900  0.34706  1.0000
  C   C154      1.0  0.88418  0.50875  0.34824  1.0000
  C   C155      1.0  0.86784  0.00763  0.43020  1.0000
  C   C156      1.0  0.83485  0.00765  0.43182  1.0000
  C   C157      1.0  0.81687  0.50889  0.35195  1.0000
  C   C158      1.0  0.49610  0.14115  0.43215  1.0000
  C   C159      1.0  0.49635  0.17415  0.43208  1.0000
  C   C160      1.0  0.00044  0.19154  0.35195  1.0000
  C   C161      1.0  0.61594  0.50866  0.34748  1.0000
  C   C162      1.0  0.68320  0.50856  0.34210  1.0000
  C   C163      1.0  0.66661  0.49632  0.41635  1.0000
  C   C164      1.0  0.63365  0.49678  0.41983  1.0000
  C   C165      1.0  0.99983  0.39247  0.34001  1.0000
  C   C166      1.0  0.98828  0.37490  0.41305  1.0000
  C   C167      1.0  0.98772  0.34194  0.41014  1.0000
  C   C168      1.0  0.99945  0.32513  0.33553  1.0000
  H   H103      1.0  0.97818  0.33028  0.46329  1.0000
  H   H104      1.0  0.97976  0.38605  0.46866  1.0000
  H   H105      1.0  0.89533  0.44636  0.33032  1.0000
  H   H106      1.0  0.98051  0.48903  0.35602  1.0000
  H   H107      1.0  0.51941  0.02806  0.33624  1.0000
  H   H108      1.0  0.56359  0.40306  0.34399  1.0000
  H   H109      1.0  0.60537  0.44488  0.34164  1.0000
  H   H110      1.0  0.62261  0.48766  0.47482  1.0000
  H   H111      1.0  0.67844  0.48624  0.46835  1.0000
  H   H112      1.0  0.60404  0.07104  0.37150  1.0000
  H   H113      1.0  0.49295  0.12949  0.49138  1.0000
  H   H114      1.0  0.49281  0.18521  0.49187  1.0000
  H   H115      1.0  0.82430  0.00622  0.49301  1.0000
  H   H116      1.0  0.87987  0.00671  0.48945  1.0000
  N   N35       1.0  0.50452  0.27641  0.41470  1.0000
  C   C169      1.0  0.50524  0.24483  0.42510  1.0000
  H   H117      1.0  0.51000  0.23606  0.48707  1.0000
  C   C170      1.0  0.96080  0.27716  0.63700  1.0000
  H   H118      1.0  0.46771  0.25486  0.60709  1.0000
  H   H119      1.0  0.95519  0.29358  0.58335  1.0000
  C   C171      1.0  0.51524  0.29869  0.64570  1.0000
  H   H120      1.0  0.51002  0.31571  0.59343  1.0000
  H   H121      1.0  0.52615  0.27818  0.61497  1.0000
  N   N36       1.0  0.73231  0.01368  0.41907  1.0000
  C   C172      1.0  0.76395  0.01427  0.42778  1.0000
  H   H122      1.0  0.77300  0.01924  0.48926  1.0000
  C   C173      1.0  0.72759  0.46728  0.64300  1.0000
  H   H123      1.0  0.74893  0.97482  0.60882  1.0000
  H   H124      1.0  0.71020  0.46086  0.59270  1.0000
  C   C174      1.0  0.70490  0.02120  0.65370  1.0000
  H   H125      1.0  0.68667  0.01544  0.60544  1.0000
  H   H126      1.0  0.72445  0.03215  0.61829  1.0000
  C   C175      1.0  0.93354  0.97970  0.34431  1.0000
  C   C176      1.0  0.52985  0.94132  0.34470  1.0000
  C   C177      1.0  0.99948  0.59081  0.35101  1.0000
  C   C178      1.0  0.96981  0.57578  0.34893  1.0000
  C   C179      1.0  0.91782  0.56781  0.34817  1.0000
  C   C180      1.0  0.94068  0.59067  0.34788  1.0000
  C   C181      1.0  0.83382  0.00980  0.27013  1.0000
  C   C182      1.0  0.86680  0.00978  0.26805  1.0000
  C   C183      1.0  0.99983  0.62428  0.35167  1.0000
  C   C184      1.0  0.00405  0.67412  0.27166  1.0000
  C   C185      1.0  0.00382  0.64114  0.27131  1.0000
  C   C186      1.0  0.63227  0.52101  0.27316  1.0000
  C   C187      1.0  0.66524  0.52152  0.27143  1.0000
  C   C188      1.0  0.51123  0.87597  0.26476  1.0000
  C   C189      1.0  0.51171  0.84299  0.26360  1.0000
  H   H127      1.0  0.52192  0.83228  0.20987  1.0000
  H   H128      1.0  0.52013  0.88792  0.21105  1.0000
  H   H129      1.0  0.93706  0.90440  0.32615  1.0000
  H   H130      1.0  0.62021  0.53022  0.22005  1.0000
  H   H131      1.0  0.67592  0.53199  0.21801  1.0000
  H   H132      1.0  0.56209  0.61286  0.37110  1.0000
  H   H133      1.0  0.89426  0.57211  0.34719  1.0000
  H   H134      1.0  0.93638  0.61423  0.34767  1.0000
  H   H135      1.0  0.00654  0.62951  0.21186  1.0000
  H   H136      1.0  0.00720  0.68526  0.21167  1.0000
  H   H137      1.0  0.87807  0.01062  0.20757  1.0000
  H   H138      1.0  0.82231  0.01082  0.21011  1.0000
  C   C190      1.0  0.49942  0.79150  0.33566  1.0000
  C   C191      1.0  0.50040  0.72521  0.35014  1.0000
  N   N37       1.0  0.99542  0.74045  0.27141  1.0000
  C   C192      1.0  0.99482  0.77207  0.25966  1.0000
  N   N38       1.0  0.98910  0.78388  0.17939  1.0000
  C   C193      1.0  0.49218  0.77159  0.10161  1.0000
  N   N39       1.0  0.48607  0.79020  0.02794  1.0000
  H   H139      1.0  0.50043  0.74992  0.09384  1.0000
  H   H140      1.0  0.93943  0.77355  0.00926  1.0000
  H   H141      1.0  0.53216  0.80961  0.02420  1.0000
  C   C194      1.0  0.71678  0.50824  0.34100  1.0000
  C   C195      1.0  0.78314  0.50891  0.35206  1.0000
  N   N40       1.0  0.76736  0.00347  0.27439  1.0000
  C   C196      1.0  0.73566  0.00296  0.26432  1.0000
  N   N41       1.0  0.72315  0.99655  0.18542  1.0000
  C   C197      1.0  0.73455  0.49911  0.10641  1.0000
  N   N42       1.0  0.71499  0.49240  0.03524  1.0000
  H   H142      1.0  0.75596  0.50767  0.09601  1.0000
  H   H143      1.0  0.73279  0.94624  0.01521  1.0000
  H   H144      1.0  0.69492  0.53827  0.03350  1.0000
  C   C198      1.0  0.94163  0.92775  0.33378  1.0000
  C   C199      1.0  0.91881  0.95063  0.33597  1.0000
  N   N43       1.0  0.96467  0.97328  0.34783  1.0000
  C   C200      1.0  0.97090  0.94215  0.34213  1.0000
  C   C201      1.0  0.00020  0.92608  0.34276  1.0000
  N   N44       1.0  0.53598  0.97244  0.34640  1.0000
  C   C202      1.0  0.56710  0.97857  0.34608  1.0000
  C   C203      1.0  0.58187  0.94940  0.34318  1.0000
  C   C204      1.0  0.55905  0.92656  0.34459  1.0000
  C   C205      1.0  0.58233  0.00822  0.34874  1.0000
  C   C206      1.0  0.56624  0.53747  0.35239  1.0000
  N   N45       1.0  0.53511  0.54375  0.34738  1.0000
  C   C207      1.0  0.52874  0.57484  0.35326  1.0000
  C   C208      1.0  0.55781  0.58945  0.36317  1.0000
  C   C209      1.0  0.58067  0.56661  0.36345  1.0000
  N   N46       1.0  0.96379  0.54469  0.34899  1.0000
  C   C210      1.0  0.93270  0.53867  0.34844  1.0000
  C   C211      1.0  0.91764  0.00900  0.34706  1.0000
  C   C212      1.0  0.88418  0.00875  0.34824  1.0000
  C   C213      1.0  0.86784  0.50763  0.43020  1.0000
  C   C214      1.0  0.83485  0.50765  0.43182  1.0000
  C   C215      1.0  0.81687  0.00889  0.35195  1.0000
  C   C216      1.0  0.49610  0.64115  0.43215  1.0000
  C   C217      1.0  0.49635  0.67415  0.43208  1.0000
  C   C218      1.0  0.00044  0.69155  0.35195  1.0000
  C   C219      1.0  0.61594  0.00866  0.34748  1.0000
  C   C220      1.0  0.68320  0.00856  0.34210  1.0000
  C   C221      1.0  0.66661  0.99632  0.41635  1.0000
  C   C222      1.0  0.63365  0.99678  0.41983  1.0000
  C   C223      1.0  0.99983  0.89247  0.34001  1.0000
  C   C224      1.0  0.98828  0.87490  0.41305  1.0000
  C   C225      1.0  0.98772  0.84194  0.41014  1.0000
  C   C226      1.0  0.99945  0.82513  0.33553  1.0000
  H   H145      1.0  0.97818  0.83028  0.46329  1.0000
  H   H146      1.0  0.97976  0.88605  0.46866  1.0000
  H   H147      1.0  0.89533  0.94636  0.33032  1.0000
  H   H148      1.0  0.98051  0.98903  0.35602  1.0000
  H   H149      1.0  0.51941  0.52806  0.33624  1.0000
  H   H150      1.0  0.56359  0.90306  0.34399  1.0000
  H   H151      1.0  0.60537  0.94488  0.34164  1.0000
  H   H152      1.0  0.62261  0.98766  0.47482  1.0000
  H   H153      1.0  0.67844  0.98624  0.46835  1.0000
  H   H154      1.0  0.60404  0.57104  0.37150  1.0000
  H   H155      1.0  0.49295  0.62949  0.49138  1.0000
  H   H156      1.0  0.49281  0.68521  0.49187  1.0000
  H   H157      1.0  0.82430  0.50622  0.49301  1.0000
  H   H158      1.0  0.87987  0.50671  0.48945  1.0000
  N   N47       1.0  0.50452  0.77641  0.41470  1.0000
  C   C227      1.0  0.50524  0.74483  0.42510  1.0000
  H   H159      1.0  0.51000  0.73606  0.48707  1.0000
  C   C228      1.0  0.96080  0.77716  0.63700  1.0000
  H   H160      1.0  0.46771  0.75486  0.60709  1.0000
  H   H161      1.0  0.95519  0.79358  0.58335  1.0000
  C   C229      1.0  0.51524  0.79869  0.64570  1.0000
  H   H162      1.0  0.51002  0.81571  0.59343  1.0000
  H   H163      1.0  0.52615  0.77818  0.61497  1.0000
  N   N48       1.0  0.73231  0.51368  0.41907  1.0000
  C   C230      1.0  0.76395  0.51426  0.42778  1.0000
  H   H164      1.0  0.77300  0.51924  0.48926  1.0000
  C   C231      1.0  0.72759  0.96728  0.64300  1.0000
  H   H165      1.0  0.74893  0.47482  0.60882  1.0000
  H   H166      1.0  0.71020  0.96086  0.59270  1.0000
  C   C232      1.0  0.70490  0.52120  0.65370  1.0000
  H   H167      1.0  0.68667  0.51544  0.60544  1.0000
  H   H168      1.0  0.72445  0.53215  0.61829  1.0000
