data_image0
_chemical_formula_structural       C4H2C4H2C4H2N7C18H12NC18H12NC18H12NC18H12N6C4H2C4H2C4H2
_chemical_formula_sum              "C96 H60 N16"
_cell_length_a       38.5683
_cell_length_b       38.5683
_cell_length_c       14.7381
_cell_angle_alpha    90
_cell_angle_beta     90
_cell_angle_gamma    120

_space_group_name_H-M_alt    "P 1"
_space_group_IT_number       1

loop_
  _space_group_symop_operation_xyz
  'x, y, z'

loop_
  _atom_site_type_symbol
  _atom_site_label
  _atom_site_symmetry_multiplicity
  _atom_site_fract_x
  _atom_site_fract_y
  _atom_site_fract_z
  _atom_site_occupancy
  C   C1        1.0  0.17722  0.09236  0.32940  1.0000
  C   C2        1.0  0.19864  0.10136  0.24665  1.0000
  C   C3        1.0  0.24079  0.12225  0.24652  1.0000
  C   C4        1.0  0.26232  0.13457  0.32917  1.0000
  H   H1        1.0  0.25525  0.12716  0.18572  1.0000
  H   H2        1.0  0.18411  0.09186  0.18592  1.0000
  C   C5        1.0  0.91609  0.08771  0.32925  1.0000
  C   C6        1.0  0.88483  0.07794  0.26621  1.0000
  C   C7        1.0  0.86396  0.09922  0.26571  1.0000
  C   C8        1.0  0.87396  0.13070  0.32824  1.0000
  H   H3        1.0  0.84073  0.09048  0.22124  1.0000
  H   H4        1.0  0.87591  0.05455  0.22210  1.0000
  C   C9        1.0  0.92363  0.83412  0.33037  1.0000
  C   C10       1.0  0.93331  0.81246  0.26760  1.0000
  C   C11       1.0  0.91203  0.77030  0.26768  1.0000
  C   C12       1.0  0.88064  0.74896  0.33052  1.0000
  H   H5        1.0  0.92070  0.75569  0.22337  1.0000
  H   H6        1.0  0.95662  0.82680  0.22327  1.0000
  N   N1        1.0  0.58289  0.19458  0.30078  1.0000
  N   N2        1.0  0.61694  0.19483  0.30014  1.0000
  N   N3        1.0  0.81694  0.39424  0.30260  1.0000
  N   N4        1.0  0.81671  0.42805  0.30275  1.0000
  N   N5        1.0  0.61757  0.42817  0.30417  1.0000
  N   N6        1.0  0.58377  0.39412  0.30378  1.0000
  N   N7        1.0  0.00563  0.00573  0.35566  1.0000
  C   C13       1.0  0.04817  0.02778  0.34898  1.0000
  C   C14       1.0  0.98521  0.96322  0.34845  1.0000
  C   C15       1.0  0.98348  0.02608  0.34846  1.0000
  C   C16       1.0  0.98056  0.04743  0.42295  1.0000
  C   C17       1.0  0.95870  0.06770  0.41615  1.0000
  C   C18       1.0  0.93873  0.06731  0.33487  1.0000
  C   C19       1.0  0.94255  0.04620  0.26014  1.0000
  C   C20       1.0  0.96435  0.02592  0.26677  1.0000
  C   C21       1.0  0.06746  0.04901  0.26942  1.0000
  C   C22       1.0  0.10955  0.07030  0.26306  1.0000
  C   C23       1.0  0.13419  0.07108  0.33557  1.0000
  C   C24       1.0  0.11434  0.04998  0.41558  1.0000
  C   C25       1.0  0.07219  0.02865  0.42211  1.0000
  C   C26       1.0  0.98562  0.94414  0.26715  1.0000
  C   C27       1.0  0.96539  0.90205  0.26087  1.0000
  C   C28       1.0  0.94405  0.87719  0.33554  1.0000
  C   C29       1.0  0.94346  0.89690  0.41643  1.0000
  C   C30       1.0  0.96369  0.93904  0.42290  1.0000
  H   H7        1.0  0.12189  0.08587  0.20458  1.0000
  H   H8        1.0  0.05083  0.04905  0.21540  1.0000
  H   H9        1.0  0.05897  0.01349  0.48060  1.0000
  H   H10       1.0  0.13045  0.04929  0.47003  1.0000
  H   H11       1.0  0.99425  0.04809  0.48292  1.0000
  H   H12       1.0  0.95700  0.08230  0.47245  1.0000
  H   H13       1.0  0.00054  0.96095  0.21168  1.0000
  H   H14       1.0  0.96595  0.88989  0.19968  1.0000
  H   H15       1.0  0.92870  0.88069  0.47271  1.0000
  H   H16       1.0  0.96287  0.95213  0.48263  1.0000
  H   H17       1.0  0.96649  0.01121  0.21121  1.0000
  H   H18       1.0  0.93011  0.04584  0.19870  1.0000
  N   N8        1.0  0.43376  0.21909  0.35454  1.0000
  C   C31       1.0  0.45673  0.26157  0.35592  1.0000
  C   C32       1.0  0.39134  0.19819  0.34834  1.0000
  C   C33       1.0  0.45621  0.19907  0.35872  1.0000
  C   C34       1.0  0.47195  0.19243  0.27843  1.0000
  C   C35       1.0  0.50340  0.18385  0.28201  1.0000
  C   C36       1.0  0.52008  0.18148  0.36593  1.0000
  C   C37       1.0  0.50281  0.18644  0.44629  1.0000
  C   C38       1.0  0.47160  0.19533  0.44270  1.0000
  C   C39       1.0  0.46797  0.28196  0.43962  1.0000
  C   C40       1.0  0.49926  0.32201  0.44436  1.0000
  C   C41       1.0  0.52057  0.34317  0.36568  1.0000
  C   C42       1.0  0.50778  0.32276  0.28149  1.0000
  C   C43       1.0  0.47659  0.28269  0.27668  1.0000
  C   C44       1.0  0.37215  0.20037  0.26891  1.0000
  C   C45       1.0  0.33005  0.17977  0.26258  1.0000
  C   C46       1.0  0.30535  0.15597  0.33509  1.0000
  C   C47       1.0  0.32513  0.15449  0.41499  1.0000
  C   C48       1.0  0.36728  0.17508  0.42146  1.0000
  H   H19       1.0  0.50806  0.33439  0.50739  1.0000
  H   H20       1.0  0.45540  0.26676  0.49847  1.0000
  H   H21       1.0  0.47013  0.26819  0.21560  1.0000
  H   H22       1.0  0.52224  0.33630  0.22256  1.0000
  H   H23       1.0  0.46256  0.19669  0.21666  1.0000
  H   H24       1.0  0.51520  0.18110  0.22206  1.0000
  H   H25       1.0  0.38886  0.21718  0.21511  1.0000
  H   H26       1.0  0.31776  0.18319  0.20425  1.0000
  H   H27       1.0  0.30898  0.13778  0.46948  1.0000
  H   H28       1.0  0.38042  0.17315  0.48007  1.0000
  H   H29       1.0  0.46221  0.20206  0.50160  1.0000
  H   H30       1.0  0.51487  0.18692  0.50838  1.0000
  N   N9        1.0  0.79221  0.22035  0.35073  1.0000
  C   C49       1.0  0.74972  0.20071  0.35167  1.0000
  C   C50       1.0  0.81309  0.19882  0.34486  1.0000
  C   C51       1.0  0.81221  0.26277  0.35686  1.0000
  C   C52       1.0  0.81930  0.28570  0.27732  1.0000
  C   C53       1.0  0.82774  0.32565  0.28226  1.0000
  C   C54       1.0  0.82959  0.34407  0.36678  1.0000
  C   C55       1.0  0.82420  0.32127  0.44640  1.0000
  C   C56       1.0  0.81539  0.28121  0.44150  1.0000
  C   C57       1.0  0.72914  0.19080  0.43516  1.0000
  C   C58       1.0  0.68905  0.18190  0.43995  1.0000
  C   C59       1.0  0.66803  0.18265  0.36155  1.0000
  C   C60       1.0  0.68866  0.19099  0.27750  1.0000
  C   C61       1.0  0.72878  0.20002  0.27260  1.0000
  C   C62       1.0  0.81341  0.17999  0.26317  1.0000
  C   C63       1.0  0.83351  0.15799  0.25732  1.0000
  C   C64       1.0  0.85393  0.15370  0.33288  1.0000
  C   C65       1.0  0.85386  0.17343  0.41418  1.0000
  C   C66       1.0  0.83376  0.19547  0.42022  1.0000
  H   H31       1.0  0.67654  0.17778  0.50295  1.0000
  H   H32       1.0  0.74422  0.19298  0.49395  1.0000
  H   H33       1.0  0.74344  0.20860  0.21176  1.0000
  H   H34       1.0  0.67524  0.19235  0.21877  1.0000
  H   H35       1.0  0.81542  0.27250  0.21509  1.0000
  H   H36       1.0  0.83091  0.34066  0.22279  1.0000
  H   H37       1.0  0.79906  0.18238  0.20718  1.0000
  H   H38       1.0  0.83348  0.14567  0.19593  1.0000
  H   H39       1.0  0.86788  0.17129  0.47109  1.0000
  H   H40       1.0  0.83386  0.20874  0.48039  1.0000
  H   H41       1.0  0.80830  0.26464  0.49977  1.0000
  H   H42       1.0  0.82328  0.33235  0.50882  1.0000
  N   N10       1.0  0.79110  0.57761  0.35642  1.0000
  C   C67       1.0  0.81074  0.55474  0.35707  1.0000
  C   C68       1.0  0.81254  0.61998  0.34931  1.0000
  C   C69       1.0  0.74864  0.55512  0.36071  1.0000
  C   C70       1.0  0.72624  0.53908  0.28058  1.0000
  C   C71       1.0  0.68629  0.50753  0.28459  1.0000
  C   C72       1.0  0.66732  0.49110  0.36874  1.0000
  C   C73       1.0  0.68959  0.50873  0.44890  1.0000
  C   C74       1.0  0.72965  0.53999  0.44493  1.0000
  C   C75       1.0  0.81959  0.54316  0.44070  1.0000
  C   C76       1.0  0.82839  0.51189  0.44503  1.0000
  C   C77       1.0  0.82851  0.49089  0.36601  1.0000
  C   C78       1.0  0.82120  0.50405  0.28196  1.0000
  C   C79       1.0  0.81234  0.53527  0.27752  1.0000
  C   C80       1.0  0.83141  0.63886  0.26742  1.0000
  C   C81       1.0  0.85340  0.68096  0.26085  1.0000
  C   C82       1.0  0.85764  0.70593  0.33584  1.0000
  C   C83       1.0  0.83786  0.68640  0.41731  1.0000
  C   C84       1.0  0.81584  0.64427  0.42408  1.0000
  H   H43       1.0  0.83161  0.50276  0.50798  1.0000
  H   H44       1.0  0.81665  0.55541  0.49973  1.0000
  H   H45       1.0  0.80441  0.54192  0.21653  1.0000
  H   H46       1.0  0.82047  0.48982  0.22279  1.0000
  H   H47       1.0  0.73984  0.54831  0.21872  1.0000
  H   H48       1.0  0.67168  0.49554  0.22479  1.0000
  H   H49       1.0  0.82909  0.62195  0.21184  1.0000
  H   H50       1.0  0.86576  0.69304  0.19934  1.0000
  H   H51       1.0  0.83995  0.70273  0.47386  1.0000
  H   H52       1.0  0.80256  0.63131  0.48440  1.0000
  H   H53       1.0  0.74583  0.54962  0.50371  1.0000
  H   H54       1.0  0.67813  0.49680  0.51116  1.0000
  N   N11       1.0  0.23946  0.12420  0.40578  1.0000
  N   N12       1.0  0.20017  0.10471  0.40589  1.0000
  N   N13       1.0  0.90401  0.13785  0.38738  1.0000
  N   N14       1.0  0.92346  0.11801  0.38783  1.0000
  N   N15       1.0  0.87358  0.77203  0.38934  1.0000
  N   N16       1.0  0.89342  0.81132  0.38925  1.0000
  C   C85       1.0  0.62902  0.17869  0.36672  1.0000
  C   C86       1.0  0.60177  0.16043  0.43930  1.0000
  C   C87       1.0  0.56518  0.16026  0.44038  1.0000
  C   C88       1.0  0.55538  0.17813  0.36855  1.0000
  H   H55       1.0  0.54581  0.14662  0.49312  1.0000
  H   H56       1.0  0.60783  0.14677  0.49136  1.0000
  C   C89       1.0  0.83235  0.45576  0.37045  1.0000
  C   C90       1.0  0.85004  0.44623  0.44331  1.0000
  C   C91       1.0  0.85020  0.40981  0.44351  1.0000
  C   C92       1.0  0.83287  0.38267  0.37053  1.0000
  H   H57       1.0  0.86344  0.40368  0.49645  1.0000
  H   H58       1.0  0.86331  0.46558  0.49618  1.0000
  C   C93       1.0  0.55567  0.38213  0.37058  1.0000
  C   C94       1.0  0.56474  0.40943  0.44308  1.0000
  C   C95       1.0  0.60115  0.44602  0.44384  1.0000
  C   C96       1.0  0.62872  0.45575  0.37180  1.0000
  H   H59       1.0  0.60693  0.46545  0.49647  1.0000
  H   H60       1.0  0.54507  0.40339  0.49524  1.0000
