data_image0
_chemical_formula_structural       C3H2CO2HNHC3H2CO2HNHC3H2CO2HNHCNCNCNC18H12C3O3CNCNCNC18H12C3O3C3NC2NOHNHC3NC2NOHNHC3NC2NOHNH
_chemical_formula_sum              "C75 H42 O15 N18"
_cell_length_a       36.7873
_cell_length_b       36.7866
_cell_length_c       15.0751
_cell_angle_alpha    90
_cell_angle_beta     90
_cell_angle_gamma    120

_space_group_name_H-M_alt    "P 1"
_space_group_IT_number       1

loop_
  _space_group_symop_operation_xyz
  'x, y, z'

loop_
  _atom_site_type_symbol
  _atom_site_label
  _atom_site_symmetry_multiplicity
  _atom_site_fract_x
  _atom_site_fract_y
  _atom_site_fract_z
  _atom_site_occupancy
  C   C1        1.0  0.48661  0.53243  0.34149  1.0000
  C   C2        1.0  0.50206  0.52262  0.26500  1.0000
  C   C3        1.0  0.52206  0.49884  0.27159  1.0000
  H   H1        1.0  0.53196  0.49127  0.21477  1.0000
  H   H2        1.0  0.49807  0.53206  0.20369  1.0000
  C   C4        1.0  0.51096  0.47659  0.00367  1.0000
  O   O1        1.0  0.54292  0.47456  0.01263  1.0000
  O   O2        1.0  0.48148  0.45260  0.05215  1.0000
  H   H3        1.0  0.45537  0.44762  0.04793  1.0000
  N   N1        1.0  0.46750  0.55563  0.33075  1.0000
  H   H4        1.0  0.48335  0.58201  0.29859  1.0000
  C   C5        1.0  0.46131  0.95290  0.34187  1.0000
  C   C6        1.0  0.47117  0.97814  0.26534  1.0000
  C   C7        1.0  0.49495  0.02193  0.27190  1.0000
  H   H5        1.0  0.50256  0.03938  0.21505  1.0000
  H   H6        1.0  0.46175  0.96470  0.20404  1.0000
  C   C8        1.0  0.51700  0.03310  0.00413  1.0000
  O   O3        1.0  0.51876  0.06700  0.01256  1.0000
  O   O4        1.0  0.54136  0.02800  0.05209  1.0000
  H   H7        1.0  0.54643  0.00692  0.04792  1.0000
  N   N2        1.0  0.43802  0.91059  0.33127  1.0000
  H   H8        1.0  0.41175  0.90012  0.29872  1.0000
  C   C9        1.0  0.04086  0.50724  0.34134  1.0000
  C   C10       1.0  0.01558  0.49173  0.26489  1.0000
  C   C11       1.0  0.97179  0.47164  0.27155  1.0000
  H   H9        1.0  0.95431  0.46174  0.21475  1.0000
  H   H10       1.0  0.02899  0.49577  0.20355  1.0000
  C   C12       1.0  0.96074  0.48278  0.00365  1.0000
  O   O5        1.0  0.92679  0.45078  0.01267  1.0000
  O   O6        1.0  0.96617  0.51224  0.05209  1.0000
  H   H11       1.0  0.98727  0.53837  0.04783  1.0000
  N   N3        1.0  0.08315  0.52642  0.33048  1.0000
  H   H12       1.0  0.09370  0.51050  0.29864  1.0000
  C   C13       1.0  0.28657  0.64526  0.30037  1.0000
  N   N4        1.0  0.30611  0.62223  0.30097  1.0000
  C   C14       1.0  0.34852  0.64006  0.30042  1.0000
  N   N5        1.0  0.37156  0.68264  0.30097  1.0000
  C   C15       1.0  0.35374  0.70723  0.30036  1.0000
  N   N6        1.0  0.31115  0.68768  0.30094  1.0000
  C   C16       1.0  0.36792  0.61516  0.30767  1.0000
  C   C17       1.0  0.34513  0.57127  0.29291  1.0000
  C   C18       1.0  0.36411  0.54658  0.30450  1.0000
  C   C19       1.0  0.40655  0.56500  0.33095  1.0000
  C   C20       1.0  0.42921  0.60876  0.34648  1.0000
  C   C21       1.0  0.41035  0.63342  0.33448  1.0000
  C   C22       1.0  0.24228  0.62589  0.30762  1.0000
  C   C23       1.0  0.21810  0.58349  0.33453  1.0000
  C   C24       1.0  0.17457  0.56465  0.34652  1.0000
  C   C25       1.0  0.15349  0.58732  0.33092  1.0000
  C   C26       1.0  0.17753  0.62975  0.30440  1.0000
  C   C27       1.0  0.22120  0.64870  0.29281  1.0000
  C   C28       1.0  0.37861  0.75152  0.30768  1.0000
  C   C29       1.0  0.36033  0.77566  0.33448  1.0000
  C   C30       1.0  0.38497  0.81919  0.34648  1.0000
  C   C31       1.0  0.42875  0.84032  0.33108  1.0000
  C   C32       1.0  0.44719  0.81631  0.30466  1.0000
  C   C33       1.0  0.42251  0.77264  0.29301  1.0000
  H   H13       1.0  0.15873  0.53440  0.36921  1.0000
  H   H14       1.0  0.23196  0.56598  0.34845  1.0000
  H   H15       1.0  0.16346  0.64724  0.29240  1.0000
  H   H16       1.0  0.23737  0.67945  0.27333  1.0000
  H   H17       1.0  0.32895  0.76179  0.34816  1.0000
  H   H18       1.0  0.37051  0.83500  0.36903  1.0000
  H   H19       1.0  0.43713  0.75649  0.27362  1.0000
  H   H20       1.0  0.47876  0.83041  0.29278  1.0000
  H   H21       1.0  0.42784  0.66479  0.34832  1.0000
  H   H22       1.0  0.45948  0.62320  0.36906  1.0000
  H   H23       1.0  0.34664  0.51502  0.29255  1.0000
  H   H24       1.0  0.31438  0.55667  0.27351  1.0000
  C   C34       1.0  0.10947  0.56822  0.34373  1.0000
  C   C35       1.0  0.45363  0.88433  0.34402  1.0000
  C   C36       1.0  0.42568  0.54009  0.34379  1.0000
  O   O7        1.0  0.40115  0.49973  0.37030  1.0000
  O   O8        1.0  0.49397  0.90015  0.37067  1.0000
  O   O9        1.0  0.09363  0.59276  0.37013  1.0000
  C   C37       1.0  0.70556  0.34602  0.31707  1.0000
  N   N7        1.0  0.68959  0.37227  0.31717  1.0000
  C   C38       1.0  0.64773  0.35824  0.31715  1.0000
  N   N8        1.0  0.62149  0.31603  0.31722  1.0000
  C   C39       1.0  0.63551  0.28819  0.31712  1.0000
  N   N9        1.0  0.67773  0.30417  0.31714  1.0000
  C   C40       1.0  0.63199  0.38652  0.31766  1.0000
  C   C41       1.0  0.65927  0.43045  0.32438  1.0000
  C   C42       1.0  0.64352  0.45827  0.32530  1.0000
  C   C43       1.0  0.59988  0.44302  0.32069  1.0000
  C   C44       1.0  0.57259  0.39926  0.31275  1.0000
  C   C45       1.0  0.58836  0.37153  0.31135  1.0000
  C   C46       1.0  0.74957  0.36175  0.31749  1.0000
  C   C47       1.0  0.77823  0.40538  0.31120  1.0000
  C   C48       1.0  0.82173  0.42113  0.31253  1.0000
  C   C49       1.0  0.83818  0.39382  0.32044  1.0000
  C   C50       1.0  0.80978  0.35018  0.32501  1.0000
  C   C51       1.0  0.76622  0.33445  0.32412  1.0000
  C   C52       1.0  0.60724  0.24418  0.31760  1.0000
  C   C53       1.0  0.62223  0.21553  0.31134  1.0000
  C   C54       1.0  0.59449  0.17203  0.31274  1.0000
  C   C55       1.0  0.55073  0.15557  0.32067  1.0000
  C   C56       1.0  0.53549  0.18396  0.32520  1.0000
  C   C57       1.0  0.56330  0.22752  0.32426  1.0000
  H   H25       1.0  0.84120  0.45282  0.30591  1.0000
  H   H26       1.0  0.76790  0.42642  0.30505  1.0000
  H   H27       1.0  0.82049  0.32942  0.33076  1.0000
  H   H28       1.0  0.74686  0.30267  0.32882  1.0000
  H   H29       1.0  0.65360  0.22587  0.30514  1.0000
  H   H30       1.0  0.60672  0.15256  0.30609  1.0000
  H   H31       1.0  0.55087  0.24687  0.32893  1.0000
  H   H32       1.0  0.50401  0.17324  0.33095  1.0000
  H   H33       1.0  0.56733  0.34015  0.30509  1.0000
  H   H34       1.0  0.54090  0.38703  0.30600  1.0000
  H   H35       1.0  0.66427  0.48975  0.33106  1.0000
  H   H36       1.0  0.69105  0.44288  0.32909  1.0000
  C   C58       1.0  0.88214  0.40982  0.32067  1.0000
  C   C59       1.0  0.52278  0.11161  0.32091  1.0000
  C   C60       1.0  0.58387  0.47097  0.32086  1.0000
  O   O10       1.0  0.60766  0.50935  0.28369  1.0000
  O   O11       1.0  0.48440  0.09700  0.28373  1.0000
  O   O12       1.0  0.89673  0.38603  0.28351  1.0000
  C   C61       1.0  0.52786  0.48491  0.35488  1.0000
  C   C62       1.0  0.51221  0.49453  0.43178  1.0000
  C   C63       1.0  0.49204  0.51885  0.42622  1.0000
  N   N10       1.0  0.47960  0.52879  0.50380  1.0000
  C   C64       1.0  0.48492  0.51565  0.58471  1.0000
  C   C65       1.0  0.50429  0.49090  0.59020  1.0000
  N   N11       1.0  0.51732  0.48189  0.51324  1.0000
  O   O13       1.0  0.47235  0.52735  0.65854  1.0000
  H   H37       1.0  0.46683  0.54641  0.50264  1.0000
  N   N12       1.0  0.54651  0.46088  0.35951  1.0000
  H   H38       1.0  0.53301  0.43609  0.39736  1.0000
  C   C66       1.0  0.50884  0.04167  0.35517  1.0000
  C   C67       1.0  0.49918  0.01642  0.43211  1.0000
  C   C68       1.0  0.47485  0.97193  0.42660  1.0000
  N   N13       1.0  0.46489  0.94958  0.50420  1.0000
  C   C69       1.0  0.47799  0.96805  0.58510  1.0000
  C   C70       1.0  0.50271  0.01217  0.59058  1.0000
  N   N14       1.0  0.51178  0.03419  0.51357  1.0000
  O   O14       1.0  0.46631  0.94379  0.65896  1.0000
  H   H39       1.0  0.44729  0.91917  0.50305  1.0000
  N   N15       1.0  0.53283  0.08436  0.35981  1.0000
  H   H40       1.0  0.55766  0.09567  0.39754  1.0000
  C   C71       1.0  0.95209  0.46581  0.35487  1.0000
  C   C72       1.0  0.97737  0.48152  0.43173  1.0000
  C   C73       1.0  0.02187  0.50177  0.42611  1.0000
  N   N16       1.0  0.04426  0.51425  0.50366  1.0000
  C   C74       1.0  0.02582  0.50892  0.58459  1.0000
  C   C75       1.0  0.98170  0.48947  0.59015  1.0000
  N   N17       1.0  0.95964  0.47638  0.51322  1.0000
  O   O15       1.0  0.05013  0.52156  0.65839  1.0000
  H   H41       1.0  0.07466  0.52710  0.50244  1.0000
  N   N18       1.0  0.90939  0.44711  0.35959  1.0000
  H   H42       1.0  0.89809  0.46062  0.39734  1.0000
