data_image0
_chemical_formula_structural       C2HC4NC2NCH2CHC4NC2NCH2CHC4NC2NCH2CHC2H2CHCH5C2H2CHCH5C2H2CHCH5C22H14C24H15C24H15C24H15C2H2C2H5C2H2C2H5C2H2C2H5C4NC2NCHCHC4NC2NCHCHC4NC2NCHCH
_chemical_formula_sum              "C168 H120 N12"
_cell_length_a       45.8987
_cell_length_b       45.8987
_cell_length_c       14.9853
_cell_angle_alpha    90
_cell_angle_beta     90
_cell_angle_gamma    120

_space_group_name_H-M_alt    "P 1"
_space_group_IT_number       1

loop_
  _space_group_symop_operation_xyz
  'x, y, z'

loop_
  _atom_site_type_symbol
  _atom_site_label
  _atom_site_symmetry_multiplicity
  _atom_site_fract_x
  _atom_site_fract_y
  _atom_site_fract_z
  _atom_site_occupancy
  C   C1        1.0  0.00922  0.97797  0.34179  1.0000
  C   C2        1.0  0.01112  0.03149  0.34179  1.0000
  H   H1        1.0  0.02134  0.96447  0.34132  1.0000
  C   C3        1.0  0.17405  0.08065  0.32270  1.0000
  C   C4        1.0  0.19232  0.09776  0.24487  1.0000
  C   C5        1.0  0.22817  0.11533  0.24369  1.0000
  C   C6        1.0  0.24689  0.11579  0.31969  1.0000
  N   N1        1.0  0.24374  0.13115  0.16667  1.0000
  C   C7        1.0  0.22757  0.13158  0.09140  1.0000
  C   C8        1.0  0.19202  0.11440  0.09269  1.0000
  N   N2        1.0  0.17634  0.09801  0.16863  1.0000
  C   C9        1.0  0.24753  0.15087  0.01297  1.0000
  H   H2        1.0  0.26820  0.14587  0.00240  1.0000
  H   H3        1.0  0.25840  0.17767  0.02731  1.0000
  C   C10       1.0  0.17155  0.11338  0.01492  1.0000
  H   H4        1.0  0.15141  0.11774  0.03759  1.0000
  C   C11       1.0  0.90844  0.09365  0.32271  1.0000
  C   C12       1.0  0.89133  0.09481  0.24489  1.0000
  C   C13       1.0  0.87376  0.11309  0.24371  1.0000
  C   C14       1.0  0.87330  0.13135  0.31972  1.0000
  N   N3        1.0  0.85794  0.11284  0.16670  1.0000
  C   C15       1.0  0.85751  0.09624  0.09142  1.0000
  C   C16       1.0  0.87469  0.07787  0.09271  1.0000
  N   N4        1.0  0.89108  0.07858  0.16865  1.0000
  C   C17       1.0  0.83821  0.09691  0.01299  1.0000
  H   H5        1.0  0.84322  0.12258  0.00242  1.0000
  H   H6        1.0  0.81142  0.08098  0.02734  1.0000
  C   C18       1.0  0.87571  0.05842  0.01494  1.0000
  H   H7        1.0  0.87134  0.03392  0.03761  1.0000
  C   C19       1.0  0.89544  0.81504  0.32270  1.0000
  C   C20       1.0  0.89427  0.79677  0.24487  1.0000
  C   C21       1.0  0.87600  0.76092  0.24369  1.0000
  C   C22       1.0  0.85774  0.74220  0.31970  1.0000
  N   N5        1.0  0.87625  0.74535  0.16668  1.0000
  C   C23       1.0  0.89285  0.76152  0.09140  1.0000
  C   C24       1.0  0.91121  0.79707  0.09269  1.0000
  N   N6        1.0  0.91051  0.81275  0.16863  1.0000
  C   C25       1.0  0.89218  0.74156  0.01297  1.0000
  H   H8        1.0  0.86651  0.72089  0.00240  1.0000
  H   H9        1.0  0.90811  0.73069  0.02732  1.0000
  C   C26       1.0  0.93066  0.81754  0.01492  1.0000
  H   H10       1.0  0.95517  0.83768  0.03759  1.0000
  C   C27       1.0  0.54869  0.13220  0.27649  1.0000
  C   C28       1.0  0.57955  0.13269  0.27645  1.0000
  H   H11       1.0  0.58696  0.12615  0.21900  1.0000
  H   H12       1.0  0.53473  0.12532  0.21904  1.0000
  C   C29       1.0  0.58205  0.19909  0.06911  1.0000
  H   H13       1.0  0.53426  0.17355  0.00014  1.0000
  C   C30       1.0  0.61996  0.21540  0.04697  1.0000
  H   H14       1.0  0.57408  0.17554  0.10499  1.0000
  H   H15       1.0  0.57808  0.21583  0.11285  1.0000
  H   H16       1.0  0.63430  0.21953  0.10847  1.0000
  H   H17       1.0  0.62850  0.23991  0.01579  1.0000
  H   H18       1.0  0.62508  0.17158  0.01968  1.0000
  C   C31       1.0  0.85689  0.41673  0.27649  1.0000
  C   C32       1.0  0.85642  0.44711  0.27645  1.0000
  H   H19       1.0  0.86295  0.46105  0.21900  1.0000
  H   H20       1.0  0.86377  0.40965  0.21904  1.0000
  C   C33       1.0  0.79002  0.38324  0.06912  1.0000
  H   H21       1.0  0.81555  0.36098  0.00014  1.0000
  C   C34       1.0  0.77372  0.40485  0.04697  1.0000
  H   H22       1.0  0.81357  0.39881  0.10498  1.0000
  H   H23       1.0  0.77327  0.36252  0.11286  1.0000
  H   H24       1.0  0.76959  0.41506  0.10847  1.0000
  H   H25       1.0  0.74920  0.38888  0.01580  1.0000
  H   H26       1.0  0.81754  0.45377  0.01966  1.0000
  C   C35       1.0  0.57237  0.44040  0.27659  1.0000
  C   C36       1.0  0.54200  0.40952  0.27655  1.0000
  H   H27       1.0  0.52806  0.40211  0.21909  1.0000
  H   H28       1.0  0.57945  0.45435  0.21915  1.0000
  C   C37       1.0  0.60591  0.40704  0.06922  1.0000
  H   H29       1.0  0.62813  0.45483  0.00028  1.0000
  C   C38       1.0  0.58432  0.36913  0.04705  1.0000
  H   H30       1.0  0.59032  0.41500  0.10512  1.0000
  H   H31       1.0  0.62663  0.41102  0.11294  1.0000
  H   H32       1.0  0.57412  0.35478  0.10855  1.0000
  H   H33       1.0  0.60030  0.36060  0.01586  1.0000
  H   H34       1.0  0.53538  0.36400  0.01979  1.0000
  C   C39       1.0  0.97551  0.01554  0.34160  1.0000
  C   C40       1.0  0.02887  0.01358  0.34158  1.0000
  C   C41       1.0  0.97355  0.96022  0.34161  1.0000
  C   C42       1.0  0.95760  0.97987  0.34180  1.0000
  C   C43       1.0  0.06523  0.03070  0.33889  1.0000
  C   C44       1.0  0.08441  0.06226  0.29588  1.0000
  C   C45       1.0  0.11977  0.07892  0.29286  1.0000
  C   C46       1.0  0.13794  0.06418  0.32856  1.0000
  C   C47       1.0  0.11898  0.03275  0.37192  1.0000
  C   C48       1.0  0.08368  0.01676  0.37815  1.0000
  C   C49       1.0  0.95839  0.03478  0.33891  1.0000
  C   C50       1.0  0.97233  0.06717  0.37817  1.0000
  C   C51       1.0  0.95634  0.08647  0.37194  1.0000
  C   C52       1.0  0.92491  0.07401  0.32858  1.0000
  C   C53       1.0  0.91017  0.04110  0.29288  1.0000
  C   C54       1.0  0.92683  0.02240  0.29590  1.0000
  C   C55       1.0  0.95431  0.92386  0.33891  1.0000
  C   C56       1.0  0.92192  0.90541  0.37818  1.0000
  C   C57       1.0  0.90261  0.87012  0.37193  1.0000
  C   C58       1.0  0.91507  0.85115  0.32856  1.0000
  C   C59       1.0  0.94799  0.86932  0.29288  1.0000
  C   C60       1.0  0.96669  0.90468  0.29593  1.0000
  H   H35       1.0  0.96824  0.11009  0.39909  1.0000
  H   H36       1.0  0.99448  0.07732  0.41265  1.0000
  H   H37       1.0  0.88689  0.03014  0.26393  1.0000
  H   H38       1.0  0.91549  0.99958  0.26455  1.0000
  H   H39       1.0  0.91177  0.91742  0.41266  1.0000
  H   H40       1.0  0.87900  0.85840  0.39909  1.0000
  H   H41       1.0  0.98951  0.91616  0.26453  1.0000
  H   H42       1.0  0.95895  0.85701  0.26392  1.0000
  H   H43       1.0  0.07168  0.99461  0.41264  1.0000
  H   H44       1.0  0.13069  0.02085  0.39908  1.0000
  H   H45       1.0  0.13208  0.10220  0.26391  1.0000
  H   H46       1.0  0.07293  0.07360  0.26453  1.0000
  H   H47       1.0  0.02463  0.05713  0.34132  1.0000
  H   H48       1.0  0.93197  0.96775  0.34134  1.0000
  C   C61       1.0  0.44549  0.24600  0.33994  1.0000
  C   C62       1.0  0.40998  0.22713  0.34264  1.0000
  C   C63       1.0  0.39198  0.19138  0.33821  1.0000
  C   C64       1.0  0.41124  0.17493  0.33467  1.0000
  C   C65       1.0  0.44678  0.19292  0.33504  1.0000
  C   C66       1.0  0.46337  0.22838  0.33771  1.0000
  C   C67       1.0  0.35570  0.17258  0.33441  1.0000
  C   C68       1.0  0.33699  0.18595  0.29372  1.0000
  C   C69       1.0  0.30162  0.16769  0.29003  1.0000
  C   C70       1.0  0.28305  0.13445  0.32338  1.0000
  C   C71       1.0  0.30158  0.12091  0.36375  1.0000
  C   C72       1.0  0.33690  0.13963  0.37011  1.0000
  C   C73       1.0  0.46353  0.28187  0.33661  1.0000
  C   C74       1.0  0.45882  0.30159  0.40132  1.0000
  C   C75       1.0  0.48017  0.33681  0.40383  1.0000
  C   C76       1.0  0.50649  0.35333  0.34104  1.0000
  C   C77       1.0  0.50989  0.33370  0.27351  1.0000
  C   C78       1.0  0.48877  0.29864  0.27125  1.0000
  C   C79       1.0  0.46613  0.17646  0.33165  1.0000
  C   C80       1.0  0.49247  0.18679  0.26885  1.0000
  C   C81       1.0  0.51504  0.17459  0.27322  1.0000
  C   C82       1.0  0.51206  0.15156  0.34022  1.0000
  C   C83       1.0  0.48493  0.14016  0.40096  1.0000
  C   C84       1.0  0.46212  0.15226  0.39636  1.0000
  H   H49       1.0  0.47734  0.35014  0.45448  1.0000
  H   H50       1.0  0.44134  0.29028  0.45081  1.0000
  H   H51       1.0  0.52920  0.34447  0.22848  1.0000
  H   H52       1.0  0.49297  0.28528  0.22327  1.0000
  H   H53       1.0  0.49641  0.20451  0.22159  1.0000
  H   H54       1.0  0.53490  0.18428  0.22995  1.0000
  H   H55       1.0  0.44392  0.14492  0.44435  1.0000
  H   H56       1.0  0.48240  0.12399  0.45129  1.0000
  H   H57       1.0  0.34867  0.12876  0.40243  1.0000
  H   H58       1.0  0.28950  0.09700  0.38903  1.0000
  H   H59       1.0  0.28957  0.17928  0.26311  1.0000
  H   H60       1.0  0.34885  0.20926  0.26496  1.0000
  H   H61       1.0  0.39717  0.24001  0.34623  1.0000
  H   H62       1.0  0.48915  0.24174  0.33911  1.0000
  H   H63       1.0  0.39942  0.14935  0.32802  1.0000
  C   C85       1.0  0.74308  0.19973  0.33998  1.0000
  C   C86       1.0  0.76195  0.18309  0.34272  1.0000
  C   C87       1.0  0.79770  0.20084  0.33826  1.0000
  C   C88       1.0  0.81415  0.23655  0.33472  1.0000
  C   C89       1.0  0.79616  0.25410  0.33508  1.0000
  C   C90       1.0  0.76070  0.23523  0.33774  1.0000
  C   C91       1.0  0.81650  0.18336  0.33446  1.0000
  C   C92       1.0  0.80313  0.15128  0.29378  1.0000
  C   C93       1.0  0.82140  0.13418  0.29008  1.0000
  C   C94       1.0  0.85464  0.14885  0.32341  1.0000
  C   C95       1.0  0.86818  0.18093  0.36380  1.0000
  C   C96       1.0  0.84945  0.19751  0.37018  1.0000
  C   C97       1.0  0.70721  0.18189  0.33666  1.0000
  C   C98       1.0  0.68749  0.15745  0.40132  1.0000
  C   C99       1.0  0.65228  0.14359  0.40384  1.0000
  C   C100      1.0  0.63574  0.15333  0.34095  1.0000
  C   C101      1.0  0.65538  0.17641  0.27352  1.0000
  C   C102      1.0  0.69044  0.19035  0.27125  1.0000
  C   C103      1.0  0.81262  0.28991  0.33169  1.0000
  C   C104      1.0  0.80229  0.30592  0.26888  1.0000
  C   C105      1.0  0.81453  0.34070  0.27315  1.0000
  C   C106      1.0  0.83753  0.36075  0.34022  1.0000
  C   C107      1.0  0.84891  0.34501  0.40101  1.0000
  C   C108      1.0  0.83680  0.31010  0.39644  1.0000
  H   H64       1.0  0.63893  0.12737  0.45438  1.0000
  H   H65       1.0  0.69880  0.15127  0.45081  1.0000
  H   H66       1.0  0.64461  0.18495  0.22849  1.0000
  H   H67       1.0  0.70380  0.20795  0.22336  1.0000
  H   H68       1.0  0.78457  0.29214  0.22164  1.0000
  H   H69       1.0  0.80479  0.35086  0.22999  1.0000
  H   H70       1.0  0.84417  0.29924  0.44435  1.0000
  H   H71       1.0  0.86510  0.35865  0.45130  1.0000
  H   H72       1.0  0.86033  0.22015  0.40247  1.0000
  H   H73       1.0  0.89209  0.19275  0.38906  1.0000
  H   H74       1.0  0.80981  0.11055  0.26314  1.0000
  H   H75       1.0  0.77983  0.13983  0.26501  1.0000
  H   H76       1.0  0.74908  0.15741  0.34627  1.0000
  H   H77       1.0  0.74734  0.24765  0.33914  1.0000
  H   H78       1.0  0.83973  0.25031  0.32806  1.0000
  C   C109      1.0  0.78938  0.54361  0.33997  1.0000
  C   C110      1.0  0.80601  0.57912  0.34270  1.0000
  C   C111      1.0  0.78826  0.59711  0.33825  1.0000
  C   C112      1.0  0.75255  0.57784  0.33472  1.0000
  C   C113      1.0  0.73500  0.54230  0.33510  1.0000
  C   C114      1.0  0.75389  0.52572  0.33776  1.0000
  C   C115      1.0  0.80573  0.63340  0.33443  1.0000
  C   C116      1.0  0.83781  0.65211  0.29374  1.0000
  C   C117      1.0  0.85491  0.68747  0.29004  1.0000
  C   C118      1.0  0.84024  0.70604  0.32339  1.0000
  C   C119      1.0  0.80816  0.68751  0.36377  1.0000
  C   C120      1.0  0.79158  0.65219  0.37014  1.0000
  C   C121      1.0  0.80723  0.52558  0.33665  1.0000
  C   C122      1.0  0.83163  0.53027  0.40141  1.0000
  C   C123      1.0  0.84553  0.50895  0.40386  1.0000
  C   C124      1.0  0.83578  0.48267  0.34098  1.0000
  C   C125      1.0  0.81273  0.47925  0.27348  1.0000
  C   C126      1.0  0.79876  0.50035  0.27127  1.0000
  C   C127      1.0  0.69919  0.52294  0.33175  1.0000
  C   C128      1.0  0.68318  0.49656  0.26905  1.0000
  C   C129      1.0  0.64841  0.47402  0.27337  1.0000
  C   C130      1.0  0.62835  0.47702  0.34033  1.0000
  C   C131      1.0  0.64410  0.50414  0.40108  1.0000
  C   C132      1.0  0.67900  0.52697  0.39642  1.0000
  H   H79       1.0  0.86175  0.51183  0.45439  1.0000
  H   H80       1.0  0.83787  0.54782  0.45076  1.0000
  H   H81       1.0  0.80414  0.45990  0.22855  1.0000
  H   H82       1.0  0.78116  0.49610  0.22338  1.0000
  H   H83       1.0  0.69694  0.49264  0.22171  1.0000
  H   H84       1.0  0.63822  0.45416  0.23009  1.0000
  H   H85       1.0  0.68986  0.54520  0.44434  1.0000
  H   H86       1.0  0.63045  0.50673  0.45130  1.0000
  H   H87       1.0  0.76894  0.64042  0.40244  1.0000
  H   H88       1.0  0.79634  0.69959  0.38904  1.0000
  H   H89       1.0  0.87855  0.69952  0.26311  1.0000
  H   H90       1.0  0.84926  0.64025  0.26496  1.0000
  H   H91       1.0  0.83170  0.59193  0.34623  1.0000
  H   H92       1.0  0.74147  0.49994  0.33918  1.0000
  H   H93       1.0  0.73879  0.58966  0.32806  1.0000
  C   C133      1.0  0.22836  0.09727  0.39508  1.0000
  C   C134      1.0  0.19302  0.08058  0.39707  1.0000
  H   H94       1.0  0.18129  0.06909  0.45535  1.0000
  H   H95       1.0  0.24059  0.09677  0.45158  1.0000
  C   C135      1.0  0.22644  0.14197  0.59276  1.0000
  C   C136      1.0  0.19209  0.13980  0.60861  1.0000
  H   H96       1.0  0.22180  0.11751  0.56959  1.0000
  H   H97       1.0  0.24052  0.16060  0.54113  1.0000
  H   H98       1.0  0.17775  0.13303  0.54635  1.0000
  H   H99       1.0  0.19640  0.16451  0.62931  1.0000
  H   H100      1.0  0.15993  0.08815  0.65273  1.0000
  C   C137      1.0  0.89182  0.13134  0.39511  1.0000
  C   C138      1.0  0.90851  0.11269  0.39708  1.0000
  H   H101      1.0  0.92001  0.11246  0.45536  1.0000
  H   H102      1.0  0.89232  0.14407  0.45161  1.0000
  C   C139      1.0  0.84711  0.08472  0.59278  1.0000
  C   C140      1.0  0.84928  0.05254  0.60863  1.0000
  H   H103      1.0  0.87158  0.10455  0.56961  1.0000
  H   H104      1.0  0.82848  0.08016  0.54116  1.0000
  H   H105      1.0  0.85606  0.04498  0.54637  1.0000
  H   H106      1.0  0.82458  0.03214  0.62933  1.0000
  H   H107      1.0  0.90094  0.07203  0.65275  1.0000
  C   C141      1.0  0.85774  0.76073  0.39509  1.0000
  C   C142      1.0  0.87639  0.79607  0.39707  1.0000
  H   H108      1.0  0.87662  0.80780  0.45534  1.0000
  H   H109      1.0  0.84502  0.74850  0.45158  1.0000
  C   C143      1.0  0.90437  0.76265  0.59276  1.0000
  C   C144      1.0  0.93655  0.79700  0.60861  1.0000
  H   H110      1.0  0.88454  0.76729  0.56958  1.0000
  H   H111      1.0  0.90893  0.74857  0.54114  1.0000
  H   H112      1.0  0.94411  0.81134  0.54635  1.0000
  H   H113      1.0  0.95695  0.79270  0.62932  1.0000
  H   H114      1.0  0.91706  0.82916  0.65273  1.0000
  C   C145      1.0  0.60141  0.14480  0.35081  1.0000
  C   C146      1.0  0.59052  0.15481  0.42756  1.0000
  C   C147      1.0  0.55936  0.15451  0.42749  1.0000
  C   C148      1.0  0.53852  0.14403  0.35062  1.0000
  N   N7        1.0  0.55167  0.16684  0.50087  1.0000
  C   C149      1.0  0.57133  0.17860  0.57475  1.0000
  C   C150      1.0  0.60257  0.17947  0.57405  1.0000
  N   N8        1.0  0.61057  0.16762  0.50067  1.0000
  C   C151      1.0  0.56037  0.19175  0.65017  1.0000
  H   H115      1.0  0.56131  0.21490  0.62810  1.0000
  C   C152      1.0  0.62666  0.19286  0.64944  1.0000
  H   H116      1.0  0.65225  0.20771  0.62347  1.0000
  C   C153      1.0  0.84432  0.45688  0.35081  1.0000
  C   C154      1.0  0.83430  0.43597  0.42754  1.0000
  C   C155      1.0  0.83459  0.40511  0.42748  1.0000
  C   C156      1.0  0.84506  0.39473  0.35062  1.0000
  N   N9        1.0  0.82225  0.38508  0.50087  1.0000
  C   C157      1.0  0.81050  0.39299  0.57475  1.0000
  C   C158      1.0  0.80964  0.42337  0.57404  1.0000
  N   N10       1.0  0.82149  0.44321  0.50066  1.0000
  C   C159      1.0  0.79734  0.36889  0.65017  1.0000
  H   H117      1.0  0.77419  0.34668  0.62811  1.0000
  C   C160      1.0  0.79625  0.43407  0.64943  1.0000
  H   H118      1.0  0.78141  0.44481  0.62345  1.0000
  C   C161      1.0  0.53226  0.38767  0.35091  1.0000
  C   C162      1.0  0.55315  0.39856  0.42767  1.0000
  C   C163      1.0  0.58400  0.42973  0.42761  1.0000
  C   C164      1.0  0.59436  0.45057  0.35074  1.0000
  N   N11       1.0  0.60403  0.43743  0.50099  1.0000
  C   C165      1.0  0.59613  0.41777  0.57487  1.0000
  C   C166      1.0  0.56577  0.38652  0.57416  1.0000
  N   N12       1.0  0.54592  0.37851  0.50078  1.0000
  C   C167      1.0  0.62024  0.42873  0.65029  1.0000
  H   H119      1.0  0.64246  0.42781  0.62820  1.0000
  C   C168      1.0  0.55508  0.36243  0.64954  1.0000
  H   H120      1.0  0.54435  0.33684  0.62356  1.0000
