data_image0
_chemical_formula_structural       C2H2C3NC2NC4NC4NC35H23C21H18C16H16CNHCNHC2NCHCNHCNHC2NCHC18H17C3NC3NC2NC5NC34H24C3NC3NC5NC5NC36H26C3NCH3C3NCH3CNCH3C3NCH3C3NCH3CNCH3
_chemical_formula_sum              "C234 H150 N24"
_cell_length_a       58.5552
_cell_length_b       58.5551
_cell_length_c       14.9746
_cell_angle_alpha    89.773
_cell_angle_beta     90.227
_cell_angle_gamma    120

_space_group_name_H-M_alt    "P 1"
_space_group_IT_number       1

loop_
  _space_group_symop_operation_xyz
  'x, y, z'

loop_
  _atom_site_type_symbol
  _atom_site_label
  _atom_site_symmetry_multiplicity
  _atom_site_fract_x
  _atom_site_fract_y
  _atom_site_fract_z
  _atom_site_occupancy
  C   C1        1.0  0.01110  0.50422  0.32698  1.0000
  C   C2        1.0  0.01155  0.60266  0.32563  1.0000
  H   H1        1.0  0.00814  0.46599  0.30886  1.0000
  H   H2        1.0  0.00895  0.63816  0.30740  1.0000
  C   C3        1.0  0.01960  0.48598  0.31548  1.0000
  C   C4        1.0  0.04682  0.49952  0.31453  1.0000
  C   C5        1.0  0.05555  0.52634  0.32550  1.0000
  N   N1        1.0  0.03339  0.52808  0.33208  1.0000
  C   C6        1.0  0.98429  0.49782  0.33264  1.0000
  C   C7        1.0  0.97580  0.51666  0.33657  1.0000
  N   N2        1.0  0.99074  0.54320  0.33064  1.0000
  C   C8        1.0  0.97597  0.55500  0.33520  1.0000
  C   C9        1.0  0.94988  0.53472  0.34457  1.0000
  C   C10       1.0  0.94978  0.51110  0.34566  1.0000
  C   C11       1.0  0.98468  0.58237  0.33000  1.0000
  N   N3        1.0  0.03372  0.60089  0.33223  1.0000
  C   C12       1.0  0.05601  0.62476  0.32720  1.0000
  C   C13       1.0  0.04750  0.64303  0.31569  1.0000
  C   C14       1.0  0.02028  0.62949  0.31462  1.0000
  C   C15       1.0  0.08282  0.63115  0.33299  1.0000
  N   N4        1.0  0.07637  0.58579  0.33090  1.0000
  C   C16       1.0  0.09114  0.57398  0.33530  1.0000
  C   C17       1.0  0.11726  0.59426  0.34448  1.0000
  C   C18       1.0  0.11736  0.61787  0.34571  1.0000
  C   C19       1.0  0.08243  0.54662  0.32991  1.0000
  C   C20       1.0  0.10217  0.53918  0.32740  1.0000
  C   C21       1.0  0.11579  0.54138  0.24735  1.0000
  C   C22       1.0  0.13656  0.53584  0.24624  1.0000
  C   C23       1.0  0.14427  0.52788  0.32482  1.0000
  C   C24       1.0  0.16653  0.52404  0.32504  1.0000
  C   C25       1.0  0.21293  0.53987  0.28770  1.0000
  C   C26       1.0  0.19046  0.54269  0.28393  1.0000
  C   C27       1.0  0.10266  0.65834  0.33373  1.0000
  C   C28       1.0  0.11755  0.67052  0.25630  1.0000
  C   C29       1.0  0.13798  0.69699  0.25843  1.0000
  C   C30       1.0  0.14412  0.71213  0.33768  1.0000
  C   C31       1.0  0.16575  0.73866  0.34060  1.0000
  C   C32       1.0  0.17098  0.75643  0.26885  1.0000
  C   C33       1.0  0.19308  0.78203  0.26992  1.0000
  C   C34       1.0  0.21080  0.79105  0.34316  1.0000
  C   C35       1.0  0.96495  0.58984  0.32766  1.0000
  C   C36       1.0  0.92330  0.60181  0.32513  1.0000
  C   C37       1.0  0.93054  0.59352  0.24675  1.0000
  C   C38       1.0  0.95109  0.58766  0.24783  1.0000
  C   C39       1.0  0.90136  0.60616  0.32529  1.0000
  C   C40       1.0  0.87716  0.58777  0.28488  1.0000
  C   C41       1.0  0.85504  0.59116  0.28844  1.0000
  C   C42       1.0  0.85641  0.61306  0.33279  1.0000
  C   C43       1.0  0.96443  0.47064  0.33322  1.0000
  C   C44       1.0  0.94920  0.45870  0.25609  1.0000
  C   C45       1.0  0.92861  0.43231  0.25831  1.0000
  C   C46       1.0  0.92264  0.41698  0.33734  1.0000
  C   C47       1.0  0.90073  0.39059  0.34055  1.0000
  C   C48       1.0  0.85490  0.33872  0.34338  1.0000
  C   C49       1.0  0.87228  0.34760  0.26951  1.0000
  C   C50       1.0  0.89477  0.37294  0.26832  1.0000
  H   H3        1.0  0.86871  0.33571  0.21519  1.0000
  H   H4        1.0  0.90678  0.37840  0.21355  1.0000
  H   H5        1.0  0.91738  0.42472  0.20202  1.0000
  H   H6        1.0  0.95258  0.46935  0.19838  1.0000
  H   H7        1.0  0.05814  0.49086  0.30736  1.0000
  H   H8        1.0  0.03349  0.54421  0.34495  1.0000
  H   H9        1.0  0.03364  0.58475  0.34517  1.0000
  H   H10       1.0  0.93324  0.49300  0.35212  1.0000
  H   H11       1.0  0.93344  0.53648  0.35026  1.0000
  H   H12       1.0  0.95558  0.58135  0.19032  1.0000
  H   H13       1.0  0.92081  0.59157  0.18786  1.0000
  H   H14       1.0  0.05896  0.66302  0.30910  1.0000
  H   H15       1.0  0.13391  0.63597  0.35198  1.0000
  H   H16       1.0  0.11399  0.66003  0.19838  1.0000
  H   H17       1.0  0.14893  0.70480  0.20184  1.0000
  H   H18       1.0  0.19609  0.79401  0.21607  1.0000
  H   H19       1.0  0.15868  0.75089  0.21463  1.0000
  H   H20       1.0  0.19209  0.55912  0.25346  1.0000
  H   H21       1.0  0.23008  0.55415  0.25933  1.0000
  H   H22       1.0  0.14615  0.53785  0.18722  1.0000
  H   H23       1.0  0.11103  0.54753  0.18975  1.0000
  H   H24       1.0  0.87510  0.57116  0.25495  1.0000
  H   H25       1.0  0.83768  0.57707  0.26060  1.0000
  C   C51       1.0  0.54485  0.51995  0.33776  1.0000
  C   C52       1.0  0.56515  0.51413  0.34694  1.0000
  C   C53       1.0  0.58875  0.53765  0.34808  1.0000
  C   C54       1.0  0.55839  0.67354  0.25005  1.0000
  C   C55       1.0  0.56392  0.69985  0.24895  1.0000
  C   C56       1.0  0.55992  0.77211  0.29029  1.0000
  C   C57       1.0  0.55708  0.74682  0.28662  1.0000
  C   C58       1.0  0.42932  0.54614  0.25852  1.0000
  C   C59       1.0  0.40284  0.54006  0.26044  1.0000
  C   C60       1.0  0.34340  0.51359  0.27011  1.0000
  C   C61       1.0  0.31783  0.51018  0.27087  1.0000
  C   C62       1.0  0.30874  0.51864  0.34415  1.0000
  C   C63       1.0  0.50632  0.43616  0.24938  1.0000
  C   C64       1.0  0.51219  0.46257  0.25046  1.0000
  C   C65       1.0  0.51206  0.38844  0.28753  1.0000
  C   C66       1.0  0.50867  0.36292  0.29111  1.0000
  C   C67       1.0  0.64106  0.58970  0.25812  1.0000
  C   C68       1.0  0.66745  0.59549  0.26002  1.0000
  C   C69       1.0  0.76112  0.61518  0.34377  1.0000
  C   C70       1.0  0.75217  0.62388  0.27019  1.0000
  C   C71       1.0  0.72683  0.62103  0.26941  1.0000
  H   H26       1.0  0.76401  0.63234  0.21580  1.0000
  H   H27       1.0  0.72133  0.62772  0.21483  1.0000
  H   H28       1.0  0.67501  0.59201  0.20355  1.0000
  H   H29       1.0  0.63037  0.58258  0.20048  1.0000
  H   H30       1.0  0.60687  0.53922  0.35444  1.0000
  H   H31       1.0  0.51849  0.47347  0.19295  1.0000
  H   H32       1.0  0.50826  0.42849  0.19048  1.0000
  H   H33       1.0  0.46169  0.46977  0.31035  1.0000
  H   H34       1.0  0.43986  0.55326  0.20071  1.0000
  H   H35       1.0  0.39506  0.54334  0.20381  1.0000
  H   H36       1.0  0.30592  0.50145  0.21673  1.0000
  H   H37       1.0  0.34899  0.50702  0.21581  1.0000
  H   H38       1.0  0.54065  0.73209  0.25613  1.0000
  H   H39       1.0  0.54563  0.77503  0.26201  1.0000
  H   H40       1.0  0.56191  0.70755  0.18992  1.0000
  H   H41       1.0  0.55221  0.66273  0.19247  1.0000
  H   H42       1.0  0.52868  0.40305  0.25757  1.0000
  H   H43       1.0  0.52275  0.35970  0.26323  1.0000
  C   C72       1.0  0.42621  0.98423  0.25181  1.0000
  C   C73       1.0  0.39988  0.96351  0.25030  1.0000
  C   C74       1.0  0.32715  0.88735  0.28822  1.0000
  C   C75       1.0  0.35257  0.90964  0.28550  1.0000
  C   C76       1.0  0.55370  0.98230  0.26097  1.0000
  C   C77       1.0  0.55982  0.96192  0.26292  1.0000
  C   C78       1.0  0.58629  0.92893  0.27274  1.0000
  C   C79       1.0  0.58970  0.90677  0.27354  1.0000
  C   C80       1.0  0.66346  0.16920  0.25005  1.0000
  C   C81       1.0  0.63705  0.14865  0.25167  1.0000
  C   C82       1.0  0.71123  0.22262  0.28709  1.0000
  C   C83       1.0  0.73675  0.24474  0.29015  1.0000
  C   C84       1.0  0.51000  0.15040  0.26064  1.0000
  C   C85       1.0  0.50420  0.17099  0.26253  1.0000
  C   C86       1.0  0.47590  0.22737  0.27288  1.0000
  C   C87       1.0  0.47873  0.20486  0.27210  1.0000
  H   H44       1.0  0.46741  0.23084  0.21856  1.0000
  H   H45       1.0  0.47200  0.19276  0.21756  1.0000
  H   H46       1.0  0.50767  0.18214  0.20606  1.0000
  H   H47       1.0  0.51707  0.14691  0.20294  1.0000
  H   H48       1.0  0.62606  0.14408  0.19434  1.0000
  H   H49       1.0  0.67103  0.17885  0.19096  1.0000
  H   H50       1.0  0.54658  0.98582  0.20315  1.0000
  H   H51       1.0  0.55652  0.95095  0.20634  1.0000
  H   H52       1.0  0.59842  0.90369  0.21940  1.0000
  H   H53       1.0  0.59286  0.94120  0.21843  1.0000
  H   H54       1.0  0.36719  0.90799  0.25422  1.0000
  H   H55       1.0  0.32403  0.87031  0.25845  1.0000
  H   H56       1.0  0.39214  0.95419  0.19092  1.0000
  H   H57       1.0  0.43700  0.98921  0.19412  1.0000
  H   H58       1.0  0.69656  0.22466  0.25750  1.0000
  H   H59       1.0  0.73991  0.26208  0.26227  1.0000
  C   C88       1.0  0.24677  0.51306  0.26156  1.0000
  N   N5        1.0  0.27003  0.51331  0.26538  1.0000
  H   H60       1.0  0.23794  0.51080  0.20063  1.0000
  C   C89       1.0  0.58675  0.83282  0.26422  1.0000
  N   N6        1.0  0.58651  0.85582  0.26803  1.0000
  H   H61       1.0  0.58898  0.82636  0.20328  1.0000
  C   C90       1.0  0.28135  0.86495  0.34028  1.0000
  C   C91       1.0  0.26651  0.85363  0.26184  1.0000
  N   N7        1.0  0.24372  0.83017  0.26524  1.0000
  C   C92       1.0  0.23396  0.81644  0.34248  1.0000
  H   H62       1.0  0.27290  0.86263  0.20114  1.0000
  C   C93       1.0  0.82218  0.61907  0.26116  1.0000
  N   N8        1.0  0.79924  0.61942  0.26491  1.0000
  H   H63       1.0  0.83078  0.62102  0.20017  1.0000
  C   C94       1.0  0.48071  0.30220  0.26382  1.0000
  N   N9        1.0  0.48038  0.27890  0.26757  1.0000
  H   H64       1.0  0.47876  0.30897  0.20284  1.0000
  C   C95       1.0  0.78275  0.26632  0.34051  1.0000
  C   C96       1.0  0.79742  0.27759  0.26181  1.0000
  N   N10       1.0  0.82073  0.30054  0.26513  1.0000
  C   C97       1.0  0.83124  0.31373  0.34264  1.0000
  H   H65       1.0  0.79055  0.26894  0.20095  1.0000
  C   C98       1.0  0.09132  0.61231  0.33688  1.0000
  C   C99       1.0  0.13009  0.52517  0.40433  1.0000
  C   C100      1.0  0.10939  0.53084  0.40581  1.0000
  C   C101      1.0  0.16581  0.50221  0.36893  1.0000
  C   C102      1.0  0.18825  0.49929  0.37246  1.0000
  C   C103      1.0  0.21218  0.51829  0.33285  1.0000
  C   C104      1.0  0.12874  0.69977  0.41456  1.0000
  C   C105      1.0  0.10835  0.67328  0.41280  1.0000
  C   C106      1.0  0.20524  0.77347  0.41574  1.0000
  C   C107      1.0  0.18327  0.74782  0.41431  1.0000
  C   C108      1.0  0.95816  0.59846  0.40588  1.0000
  C   C109      1.0  0.93768  0.60444  0.40444  1.0000
  C   C110      1.0  0.88061  0.63180  0.37170  1.0000
  C   C111      1.0  0.90271  0.62831  0.36832  1.0000
  C   C112      1.0  0.95895  0.45549  0.41201  1.0000
  C   C113      1.0  0.93841  0.42906  0.41384  1.0000
  C   C114      1.0  0.88355  0.38155  0.41495  1.0000
  C   C115      1.0  0.86122  0.35614  0.41655  1.0000
  H   H66       1.0  0.84903  0.35094  0.47081  1.0000
  H   H67       1.0  0.88653  0.39378  0.46777  1.0000
  H   H68       1.0  0.93506  0.41871  0.47215  1.0000
  H   H69       1.0  0.96964  0.46370  0.46896  1.0000
  H   H70       1.0  0.96768  0.59986  0.46484  1.0000
  H   H71       1.0  0.93268  0.60974  0.46305  1.0000
  H   H72       1.0  0.13372  0.59250  0.34995  1.0000
  H   H73       1.0  0.09789  0.66488  0.46993  1.0000
  H   H74       1.0  0.13222  0.70999  0.47302  1.0000
  H   H75       1.0  0.18080  0.73553  0.46673  1.0000
  H   H76       1.0  0.21767  0.77879  0.46958  1.0000
  H   H77       1.0  0.10008  0.52949  0.46494  1.0000
  H   H78       1.0  0.13545  0.52015  0.46309  1.0000
  H   H79       1.0  0.18712  0.48340  0.40534  1.0000
  H   H80       1.0  0.14884  0.48816  0.39878  1.0000
  H   H81       1.0  0.91990  0.64220  0.39760  1.0000
  H   H82       1.0  0.88220  0.64792  0.40394  1.0000
  C   C116      1.0  0.61381  0.63265  0.31817  1.0000
  C   C117      1.0  0.60026  0.64632  0.31729  1.0000
  C   C118      1.0  0.57344  0.62820  0.32824  1.0000
  N   N11       1.0  0.57171  0.60428  0.33478  1.0000
  C   C119      1.0  0.59558  0.60587  0.32960  1.0000
  C   C120      1.0  0.60200  0.58547  0.33519  1.0000
  C   C121      1.0  0.58317  0.55812  0.33917  1.0000
  N   N12       1.0  0.55664  0.54652  0.33330  1.0000
  C   C122      1.0  0.51749  0.50128  0.33263  1.0000
  C   C123      1.0  0.49718  0.50785  0.32844  1.0000
  N   N13       1.0  0.49892  0.53176  0.33506  1.0000
  C   C124      1.0  0.47505  0.53018  0.32992  1.0000
  C   C125      1.0  0.45679  0.50341  0.31859  1.0000
  C   C126      1.0  0.47035  0.48975  0.31759  1.0000
  C   C127      1.0  0.46864  0.55057  0.33544  1.0000
  C   C128      1.0  0.48746  0.57792  0.33928  1.0000
  N   N14       1.0  0.51400  0.58952  0.33347  1.0000
  C   C129      1.0  0.52578  0.61609  0.33785  1.0000
  C   C130      1.0  0.50549  0.62189  0.34692  1.0000
  C   C131      1.0  0.48189  0.59837  0.34804  1.0000
  C   C132      1.0  0.55314  0.63476  0.33261  1.0000
  C   C133      1.0  0.56057  0.66195  0.33012  1.0000
  C   C134      1.0  0.57188  0.71536  0.32752  1.0000
  C   C135      1.0  0.57456  0.70371  0.40705  1.0000
  C   C136      1.0  0.56892  0.67735  0.40851  1.0000
  C   C137      1.0  0.57572  0.74145  0.32772  1.0000
  C   C138      1.0  0.59755  0.76246  0.37162  1.0000
  C   C139      1.0  0.60049  0.78783  0.37514  1.0000
  C   C140      1.0  0.58149  0.79284  0.33552  1.0000
  C   C141      1.0  0.44145  0.54321  0.33598  1.0000
  C   C142      1.0  0.38762  0.53076  0.33947  1.0000
  C   C143      1.0  0.39991  0.52751  0.41637  1.0000
  C   C144      1.0  0.42642  0.53367  0.41486  1.0000
  C   C145      1.0  0.36107  0.52582  0.34219  1.0000
  C   C146      1.0  0.32621  0.53032  0.41714  1.0000
  C   C147      1.0  0.35185  0.53396  0.41595  1.0000
  C   C148      1.0  0.51002  0.47408  0.33031  1.0000
  C   C149      1.0  0.50141  0.45853  0.40853  1.0000
  C   C150      1.0  0.49543  0.43206  0.40709  1.0000
  C   C151      1.0  0.49803  0.42047  0.32776  1.0000
  C   C152      1.0  0.49368  0.39418  0.32792  1.0000
  C   C153      1.0  0.48676  0.34231  0.33542  1.0000
  C   C154      1.0  0.46802  0.34770  0.37430  1.0000
  C   C155      1.0  0.47153  0.37330  0.37096  1.0000
  C   C156      1.0  0.62919  0.59281  0.33547  1.0000
  C   C157      1.0  0.64440  0.60228  0.41416  1.0000
  C   C158      1.0  0.68285  0.60466  0.33893  1.0000
  C   C159      1.0  0.67082  0.60815  0.41566  1.0000
  C   C160      1.0  0.70924  0.60914  0.34177  1.0000
  C   C161      1.0  0.71835  0.60082  0.41588  1.0000
  C   C162      1.0  0.74376  0.60390  0.41708  1.0000
  H   H83       1.0  0.74901  0.59678  0.47115  1.0000
  H   H84       1.0  0.70617  0.59144  0.46878  1.0000
  H   H85       1.0  0.68122  0.61501  0.47391  1.0000
  H   H86       1.0  0.63622  0.60459  0.47128  1.0000
  H   H87       1.0  0.63380  0.64120  0.31152  1.0000
  H   H88       1.0  0.60890  0.66631  0.31013  1.0000
  H   H89       1.0  0.55559  0.58822  0.34762  1.0000
  H   H90       1.0  0.51509  0.54783  0.34734  1.0000
  H   H91       1.0  0.56340  0.49593  0.35262  1.0000
  H   H92       1.0  0.50004  0.46654  0.46752  1.0000
  H   H93       1.0  0.49014  0.42165  0.46571  1.0000
  H   H94       1.0  0.43680  0.49487  0.31193  1.0000
  H   H95       1.0  0.50724  0.64009  0.35239  1.0000
  H   H96       1.0  0.46378  0.59680  0.35428  1.0000
  H   H97       1.0  0.43478  0.53144  0.47200  1.0000
  H   H98       1.0  0.38964  0.52056  0.47470  1.0000
  H   H99       1.0  0.36406  0.54352  0.46869  1.0000
  H   H100      1.0  0.32084  0.53725  0.47102  1.0000
  H   H101      1.0  0.57025  0.66926  0.46767  1.0000
  H   H102      1.0  0.57961  0.71398  0.46579  1.0000
  H   H103      1.0  0.61638  0.80252  0.40804  1.0000
  H   H104      1.0  0.61160  0.75949  0.40148  1.0000
  H   H105      1.0  0.45764  0.37654  0.40025  1.0000
  H   H106      1.0  0.45191  0.33311  0.40658  1.0000
  C   C163      1.0  0.46707  0.08008  0.32149  1.0000
  C   C164      1.0  0.45341  0.05286  0.32056  1.0000
  C   C165      1.0  0.47156  0.04416  0.33098  1.0000
  N   N15       1.0  0.49547  0.06634  0.33744  1.0000
  C   C166      1.0  0.49387  0.08862  0.33242  1.0000
  C   C167      1.0  0.51427  0.11544  0.33772  1.0000
  C   C168      1.0  0.54163  0.12396  0.34147  1.0000
  N   N16       1.0  0.55324  0.10904  0.33563  1.0000
  C   C169      1.0  0.57981  0.12383  0.33990  1.0000
  C   C170      1.0  0.58562  0.14993  0.34889  1.0000
  C   C171      1.0  0.56210  0.15000  0.35014  1.0000
  C   C172      1.0  0.59848  0.11515  0.33461  1.0000
  C   C173      1.0  0.59191  0.08828  0.33039  1.0000
  N   N17       1.0  0.56801  0.06610  0.33719  1.0000
  C   C174      1.0  0.56961  0.04382  0.33215  1.0000
  C   C175      1.0  0.59636  0.05236  0.32056  1.0000
  C   C176      1.0  0.61002  0.07958  0.31939  1.0000
  C   C177      1.0  0.54922  0.01700  0.33784  1.0000
  C   C178      1.0  0.52188  0.00846  0.34161  1.0000
  N   N18       1.0  0.51027  0.02340  0.33591  1.0000
  C   C179      1.0  0.48370  0.00860  0.34010  1.0000
  C   C180      1.0  0.47790  0.98248  0.34893  1.0000
  C   C181      1.0  0.50142  0.98241  0.35015  1.0000
  C   C182      1.0  0.46502  0.01729  0.33500  1.0000
  C   C183      1.0  0.43784  0.99752  0.33230  1.0000
  C   C184      1.0  0.38439  0.95552  0.32892  1.0000
  C   C185      1.0  0.39610  0.96934  0.40895  1.0000
  C   C186      1.0  0.42247  0.99002  0.41079  1.0000
  C   C187      1.0  0.35820  0.93340  0.32850  1.0000
  C   C188      1.0  0.33732  0.93413  0.37335  1.0000
  C   C189      1.0  0.31184  0.91184  0.37598  1.0000
  C   C190      1.0  0.30652  0.88809  0.33422  1.0000
  C   C191      1.0  0.55661  0.99719  0.33842  1.0000
  C   C192      1.0  0.56909  0.95583  0.34201  1.0000
  C   C193      1.0  0.57232  0.97122  0.41890  1.0000
  C   C194      1.0  0.56615  0.99157  0.41733  1.0000
  C   C195      1.0  0.57404  0.93422  0.34479  1.0000
  C   C196      1.0  0.58122  0.88908  0.34680  1.0000
  C   C197      1.0  0.56956  0.89473  0.41981  1.0000
  C   C198      1.0  0.56592  0.91673  0.41859  1.0000
  C   C199      1.0  0.62567  0.13490  0.33178  1.0000
  C   C200      1.0  0.64135  0.14178  0.40972  1.0000
  C   C201      1.0  0.66781  0.16227  0.40775  1.0000
  C   C202      1.0  0.67928  0.17654  0.32814  1.0000
  C   C203      1.0  0.70557  0.19847  0.32774  1.0000
  C   C204      1.0  0.75744  0.24342  0.33417  1.0000
  C   C205      1.0  0.75212  0.21927  0.37327  1.0000
  C   C206      1.0  0.72652  0.19716  0.37044  1.0000
  C   C207      1.0  0.50694  0.13529  0.33803  1.0000
  C   C208      1.0  0.49752  0.14090  0.41678  1.0000
  C   C209      1.0  0.49511  0.17710  0.34152  1.0000
  C   C210      1.0  0.49166  0.16146  0.41830  1.0000
  C   C211      1.0  0.49065  0.19903  0.34438  1.0000
  C   C212      1.0  0.49902  0.21633  0.41845  1.0000
  C   C213      1.0  0.49598  0.23869  0.41962  1.0000
  C   C214      1.0  0.48465  0.24488  0.34640  1.0000
  H   H107      1.0  0.50310  0.25094  0.47369  1.0000
  H   H108      1.0  0.50842  0.21343  0.47129  1.0000
  H   H109      1.0  0.48486  0.16492  0.47660  1.0000
  H   H110      1.0  0.49525  0.13032  0.47393  1.0000
  H   H111      1.0  0.45851  0.09153  0.31506  1.0000
  H   H112      1.0  0.43342  0.04152  0.31361  1.0000
  H   H113      1.0  0.51158  0.06626  0.34929  1.0000
  H   H114      1.0  0.55197  0.06616  0.35011  1.0000
  H   H115      1.0  0.56053  0.16654  0.35643  1.0000
  H   H116      1.0  0.60383  0.16639  0.35436  1.0000
  H   H117      1.0  0.63344  0.13235  0.46888  1.0000
  H   H118      1.0  0.67832  0.16735  0.46616  1.0000
  H   H119      1.0  0.62999  0.09092  0.31199  1.0000
  H   H120      1.0  0.60490  0.04092  0.31386  1.0000
  H   H121      1.0  0.45970  0.96601  0.35416  1.0000
  H   H122      1.0  0.50301  0.96586  0.35620  1.0000
  H   H123      1.0  0.56836  0.00203  0.47446  1.0000
  H   H124      1.0  0.57926  0.96779  0.47725  1.0000
  H   H125      1.0  0.55631  0.91924  0.47123  1.0000
  H   H126      1.0  0.56257  0.88229  0.47361  1.0000
  H   H127      1.0  0.43058  0.99910  0.47021  1.0000
  H   H128      1.0  0.38583  0.96382  0.46769  1.0000
  H   H129      1.0  0.29721  0.91307  0.40899  1.0000
  H   H130      1.0  0.34046  0.95100  0.40439  1.0000
  H   H131      1.0  0.72333  0.18002  0.39988  1.0000
  H   H132      1.0  0.76677  0.21772  0.40531  1.0000
  C   C215      1.0  0.24931  0.51972  0.42117  1.0000
  C   C216      1.0  0.23541  0.51647  0.33982  1.0000
  C   C217      1.0  0.28346  0.51665  0.34298  1.0000
  N   N19       1.0  0.27258  0.51983  0.41862  1.0000
  C   C218      1.0  0.24159  0.52462  0.50999  1.0000
  H   H133      1.0  0.22382  0.52617  0.50819  1.0000
  H   H134      1.0  0.25750  0.54305  0.53705  1.0000
  H   H135      1.0  0.23818  0.50855  0.55520  1.0000
  C   C219      1.0  0.58009  0.82838  0.42384  1.0000
  C   C220      1.0  0.58332  0.81788  0.34248  1.0000
  C   C221      1.0  0.58319  0.86577  0.34565  1.0000
  N   N20       1.0  0.58000  0.85156  0.42129  1.0000
  C   C222      1.0  0.57519  0.81559  0.51267  1.0000
  H   H136      1.0  0.57362  0.79627  0.51087  1.0000
  H   H137      1.0  0.55678  0.81303  0.53976  1.0000
  H   H138      1.0  0.59127  0.82814  0.55785  1.0000
  C   C223      1.0  0.27107  0.85073  0.42115  1.0000
  N   N21       1.0  0.24814  0.82722  0.41828  1.0000
  C   C224      1.0  0.28460  0.85923  0.50857  1.0000
  H   H139      1.0  0.30441  0.86196  0.50406  1.0000
  H   H140      1.0  0.27393  0.84462  0.56059  1.0000
  H   H141      1.0  0.28596  0.87775  0.52869  1.0000
  C   C225      1.0  0.81996  0.61270  0.42102  1.0000
  C   C226      1.0  0.83354  0.61549  0.33959  1.0000
  C   C227      1.0  0.78612  0.61654  0.34261  1.0000
  N   N22       1.0  0.79698  0.61318  0.41840  1.0000
  C   C228      1.0  0.82770  0.60771  0.51005  1.0000
  H   H142      1.0  0.84520  0.60569  0.50836  1.0000
  H   H143      1.0  0.81161  0.58951  0.53777  1.0000
  H   H144      1.0  0.83161  0.62398  0.55464  1.0000
  C   C229      1.0  0.48716  0.30606  0.42365  1.0000
  C   C230      1.0  0.48433  0.31699  0.34224  1.0000
  C   C231      1.0  0.48329  0.26852  0.34525  1.0000
  N   N23       1.0  0.48667  0.28261  0.42104  1.0000
  C   C232      1.0  0.49213  0.31861  0.51269  1.0000
  H   H145      1.0  0.49414  0.33812  0.51099  1.0000
  H   H146      1.0  0.51034  0.32069  0.54041  1.0000
  H   H147      1.0  0.47587  0.30615  0.55727  1.0000
  C   C233      1.0  0.79384  0.27996  0.42173  1.0000
  N   N24       1.0  0.81729  0.30292  0.41869  1.0000
  C   C234      1.0  0.78145  0.27227  0.51102  1.0000
  H   H148      1.0  0.76192  0.25478  0.50969  1.0000
  H   H149      1.0  0.77946  0.28838  0.53889  1.0000
  H   H150      1.0  0.79397  0.26837  0.55529  1.0000
