data_image0
_chemical_formula_structural       C2HC3HC2H4CHC2HC3HC2H4CHC2HC3HC2H4CHC6H3N3C6H3N3C7H3NO2CHC7H3NO2CHC7H3NO2CH
_chemical_formula_sum              "C60 H39 N9 O6"
_cell_length_a       29.4536
_cell_length_b       29.4536
_cell_length_c       14.9974
_cell_angle_alpha    90
_cell_angle_beta     90
_cell_angle_gamma    120

_space_group_name_H-M_alt    "P 1"
_space_group_IT_number       1

loop_
  _space_group_symop_operation_xyz
  'x, y, z'

loop_
  _atom_site_type_symbol
  _atom_site_label
  _atom_site_symmetry_multiplicity
  _atom_site_fract_x
  _atom_site_fract_y
  _atom_site_fract_z
  _atom_site_occupancy
  C   C1        1.0  0.46653  0.52658  0.28432  1.0000
  C   C2        1.0  0.44689  0.56146  0.29055  1.0000
  H   H1        1.0  0.43771  0.57425  0.23346  1.0000
  C   C3        1.0  0.54621  0.40825  0.32222  1.0000
  C   C4        1.0  0.51120  0.41021  0.26002  1.0000
  C   C5        1.0  0.49026  0.44370  0.27307  1.0000
  H   H2        1.0  0.50134  0.38755  0.20366  1.0000
  C   C6        1.0  0.45714  0.44847  0.20288  1.0000
  C   C7        1.0  0.47037  0.50629  0.19516  1.0000
  H   H3        1.0  0.41592  0.42375  0.22122  1.0000
  H   H4        1.0  0.46303  0.43544  0.13780  1.0000
  H   H5        1.0  0.44360  0.50834  0.14689  1.0000
  H   H6        1.0  0.51034  0.53040  0.17006  1.0000
  C   C8        1.0  0.56548  0.37437  0.30858  1.0000
  H   H7        1.0  0.54375  0.34139  0.27466  1.0000
  C   C9        1.0  0.47368  0.93998  0.28427  1.0000
  C   C10       1.0  0.43877  0.88547  0.29047  1.0000
  H   H8        1.0  0.42597  0.86352  0.23336  1.0000
  C   C11       1.0  0.59198  0.13798  0.32224  1.0000
  C   C12       1.0  0.59002  0.10104  0.26000  1.0000
  C   C13       1.0  0.55656  0.04661  0.27305  1.0000
  H   H9        1.0  0.61269  0.11385  0.20366  1.0000
  C   C14       1.0  0.55180  0.00873  0.20284  1.0000
  C   C15       1.0  0.49397  0.96412  0.19512  1.0000
  H   H10       1.0  0.57652  0.99222  0.22118  1.0000
  H   H11       1.0  0.56483  0.02765  0.13777  1.0000
  H   H12       1.0  0.49194  0.93531  0.14685  1.0000
  H   H13       1.0  0.46987  0.97998  0.17001  1.0000
  C   C16       1.0  0.62584  0.19115  0.30861  1.0000
  H   H14       1.0  0.65884  0.20241  0.27472  1.0000
  C   C17       1.0  0.06020  0.53372  0.28430  1.0000
  C   C18       1.0  0.11472  0.55332  0.29048  1.0000
  H   H15       1.0  0.13666  0.56246  0.23336  1.0000
  C   C19       1.0  0.86221  0.45403  0.32232  1.0000
  C   C20       1.0  0.89915  0.48903  0.26008  1.0000
  C   C21       1.0  0.95358  0.51002  0.27313  1.0000
  H   H16       1.0  0.88634  0.49887  0.20372  1.0000
  C   C22       1.0  0.99146  0.54311  0.20290  1.0000
  C   C23       1.0  0.03605  0.52988  0.19516  1.0000
  H   H17       1.0  0.00797  0.58434  0.22121  1.0000
  H   H18       1.0  0.97252  0.53722  0.13783  1.0000
  H   H19       1.0  0.06486  0.55665  0.14687  1.0000
  H   H20       1.0  0.02018  0.48991  0.17006  1.0000
  C   C24       1.0  0.80904  0.43472  0.30870  1.0000
  H   H21       1.0  0.79777  0.45641  0.27468  1.0000
  C   C25       1.0  0.35980  0.63753  0.33439  1.0000
  C   C26       1.0  0.30457  0.61166  0.33337  1.0000
  C   C27       1.0  0.27789  0.64039  0.33439  1.0000
  C   C28       1.0  0.30725  0.69561  0.33336  1.0000
  C   C29       1.0  0.36266  0.72229  0.33440  1.0000
  C   C30       1.0  0.38853  0.69294  0.33335  1.0000
  H   H22       1.0  0.28815  0.71665  0.33279  1.0000
  H   H23       1.0  0.42866  0.71203  0.33283  1.0000
  H   H24       1.0  0.28353  0.57152  0.33281  1.0000
  N   N1        1.0  0.38265  0.60847  0.33450  1.0000
  N   N2        1.0  0.22598  0.61752  0.33443  1.0000
  N   N3        1.0  0.39171  0.77421  0.33444  1.0000
  C   C31       1.0  0.63684  0.35905  0.33168  1.0000
  C   C32       1.0  0.69207  0.38840  0.33259  1.0000
  C   C33       1.0  0.72238  0.36336  0.33188  1.0000
  C   C34       1.0  0.69650  0.30812  0.33263  1.0000
  C   C35       1.0  0.64115  0.27781  0.33170  1.0000
  C   C36       1.0  0.61179  0.30370  0.33252  1.0000
  H   H25       1.0  0.71823  0.28980  0.33555  1.0000
  H   H26       1.0  0.57174  0.28197  0.33535  1.0000
  H   H27       1.0  0.71040  0.42846  0.33551  1.0000
  N   N4        1.0  0.61111  0.38531  0.33659  1.0000
  N   N5        1.0  0.77438  0.38911  0.33679  1.0000
  N   N6        1.0  0.61489  0.22582  0.33661  1.0000
  C   C37       1.0  0.44005  0.57923  0.37400  1.0000
  C   C38       1.0  0.45165  0.56002  0.45161  1.0000
  C   C39       1.0  0.47109  0.52475  0.44731  1.0000
  C   C40       1.0  0.48140  0.50965  0.36266  1.0000
  C   C41       1.0  0.50247  0.47497  0.35157  1.0000
  C   C42       1.0  0.53987  0.47479  0.41077  1.0000
  C   C43       1.0  0.56076  0.44166  0.39724  1.0000
  H   H28       1.0  0.55407  0.50018  0.46324  1.0000
  H   H29       1.0  0.58704  0.44246  0.44281  1.0000
  H   H30       1.0  0.44466  0.57071  0.51288  1.0000
  N   N7        1.0  0.47621  0.50202  0.52727  1.0000
  O   O1        1.0  0.50726  0.53602  0.58138  1.0000
  O   O2        1.0  0.43277  0.47462  0.56528  1.0000
  C   C44       1.0  0.42183  0.61420  0.38108  1.0000
  H   H31       1.0  0.43807  0.64276  0.42620  1.0000
  C   C45       1.0  0.42098  0.86085  0.37391  1.0000
  C   C46       1.0  0.44018  0.89164  0.45153  1.0000
  C   C47       1.0  0.47549  0.94634  0.44726  1.0000
  C   C48       1.0  0.49062  0.97177  0.36262  1.0000
  C   C49       1.0  0.52529  0.02752  0.35154  1.0000
  C   C50       1.0  0.52547  0.06508  0.41078  1.0000
  C   C51       1.0  0.55858  0.11912  0.39727  1.0000
  H   H32       1.0  0.50007  0.05388  0.46324  1.0000
  H   H33       1.0  0.55778  0.14458  0.44285  1.0000
  H   H34       1.0  0.42949  0.87395  0.51280  1.0000
  N   N8        1.0  0.49822  0.97417  0.52723  1.0000
  O   O3        1.0  0.46423  0.97125  0.58134  1.0000
  O   O4        1.0  0.52560  0.95811  0.56525  1.0000
  C   C52       1.0  0.38594  0.80767  0.38091  1.0000
  H   H35       1.0  0.35745  0.79536  0.42617  1.0000
  C   C53       1.0  0.13934  0.56014  0.37391  1.0000
  C   C54       1.0  0.10856  0.54855  0.45155  1.0000
  C   C55       1.0  0.05387  0.52919  0.44729  1.0000
  C   C56       1.0  0.02843  0.51892  0.36267  1.0000
  C   C57       1.0  0.97268  0.49784  0.35162  1.0000
  C   C58       1.0  0.93513  0.46049  0.41091  1.0000
  C   C59       1.0  0.88109  0.43953  0.39736  1.0000
  H   H36       1.0  0.94633  0.44625  0.46331  1.0000
  H   H37       1.0  0.85563  0.41324  0.44293  1.0000
  H   H38       1.0  0.12626  0.55558  0.51280  1.0000
  N   N9        1.0  0.02606  0.52413  0.52729  1.0000
  O   O5        1.0  0.02897  0.49305  0.58140  1.0000
  O   O6        1.0  0.04216  0.56758  0.56528  1.0000
  C   C60       1.0  0.19253  0.57830  0.38090  1.0000
  H   H39       1.0  0.20484  0.56211  0.42615  1.0000
