data_image0
_chemical_formula_structural       C2HCN2C3NC2NH2CHC3NC2NH2CHC12HCH4N2C3H2CHC3H2CHC2HCN2C3NC2NH2CHC3NC2NH2CHC12HCH4N2C3H2CHC3H2CHC2HCN2C3NC2NH2CHC3NC2NH2CHC12HCH4N2C3H2CHC3H2CHC2HCN2C3NC2NH2CHC3NC2NH2CHC12HCH4N2C3H2CHC3H2CH
_chemical_formula_sum              "C144 H72 N32"
_cell_length_a       31.7614
_cell_length_b       31.7614
_cell_length_c       14.9035
_cell_angle_alpha    90
_cell_angle_beta     90
_cell_angle_gamma    90

_space_group_name_H-M_alt    "P 1"
_space_group_IT_number       1

loop_
  _space_group_symop_operation_xyz
  'x, y, z'

loop_
  _atom_site_type_symbol
  _atom_site_label
  _atom_site_symmetry_multiplicity
  _atom_site_fract_x
  _atom_site_fract_y
  _atom_site_fract_z
  _atom_site_occupancy
  C   C1        1.0  0.49494  0.01154  0.32768  1.0000
  C   C2        1.0  0.41965  0.03180  0.31769  1.0000
  H   H1        1.0  0.40963  0.09688  0.30264  1.0000
  C   C3        1.0  0.07057  0.99075  0.33292  1.0000
  N   N1        1.0  0.37699  0.02689  0.32189  1.0000
  N   N2        1.0  0.14494  0.46410  0.33163  1.0000
  C   C4        1.0  0.01139  0.29144  0.30790  1.0000
  C   C5        1.0  0.97984  0.26640  0.26617  1.0000
  C   C6        1.0  0.97803  0.22195  0.27996  1.0000
  N   N3        1.0  0.94712  0.20015  0.23679  1.0000
  C   C7        1.0  0.91810  0.21807  0.18225  1.0000
  C   C8        1.0  0.91969  0.26173  0.16909  1.0000
  N   N4        1.0  0.95029  0.28391  0.21123  1.0000
  H   H2        1.0  0.89565  0.20005  0.15175  1.0000
  H   H3        1.0  0.89846  0.27663  0.12862  1.0000
  C   C9        1.0  0.01255  0.33571  0.29676  1.0000
  H   H4        1.0  0.99084  0.34912  0.25530  1.0000
  C   C10       1.0  0.21503  0.99509  0.30787  1.0000
  C   C11       1.0  0.24007  0.02664  0.26613  1.0000
  C   C12       1.0  0.28453  0.02845  0.27992  1.0000
  N   N5        1.0  0.30633  0.05935  0.23672  1.0000
  C   C13       1.0  0.28841  0.08836  0.18216  1.0000
  C   C14       1.0  0.24474  0.08677  0.16899  1.0000
  N   N6        1.0  0.22257  0.05618  0.21115  1.0000
  H   H5        1.0  0.30643  0.11080  0.15164  1.0000
  H   H6        1.0  0.22985  0.10799  0.12848  1.0000
  C   C15       1.0  0.17076  0.99393  0.29673  1.0000
  H   H7        1.0  0.15735  0.01562  0.25520  1.0000
  C   C16       1.0  0.45137  0.50022  0.32562  1.0000
  C   C17       1.0  0.43243  0.07405  0.30700  1.0000
  C   C18       1.0  0.47467  0.08683  0.31775  1.0000
  C   C19       1.0  0.50626  0.05511  0.32562  1.0000
  C   C20       1.0  0.44144  0.45695  0.32654  1.0000
  C   C21       1.0  0.04953  0.06503  0.32656  1.0000
  C   C22       1.0  0.02701  0.47947  0.33102  1.0000
  C   C23       1.0  0.01572  0.43591  0.33293  1.0000
  C   C24       1.0  0.04736  0.40413  0.33913  1.0000
  C   C25       1.0  0.08966  0.41681  0.34938  1.0000
  C   C26       1.0  0.10235  0.45910  0.33904  1.0000
  C   C27       1.0  0.47245  0.42601  0.33421  1.0000
  H   H8        1.0  0.11252  0.39398  0.35178  1.0000
  C   C28       1.0  0.08047  0.03403  0.33427  1.0000
  H   H9        1.0  0.46205  0.39611  0.34393  1.0000
  H   H10       1.0  0.41151  0.44646  0.31880  1.0000
  H   H11       1.0  0.11037  0.04442  0.34382  1.0000
  H   H12       1.0  0.06002  0.09496  0.31875  1.0000
  N   N7        1.0  0.47960  0.12949  0.32192  1.0000
  N   N8        1.0  0.04237  0.36154  0.33167  1.0000
  C   C29       1.0  0.00772  0.20142  0.33618  1.0000
  C   C30       1.0  0.03913  0.22678  0.37675  1.0000
  C   C31       1.0  0.04091  0.27059  0.36324  1.0000
  H   H13       1.0  0.06414  0.28716  0.39512  1.0000
  H   H14       1.0  0.06144  0.21352  0.41752  1.0000
  C   C32       1.0  0.00868  0.15741  0.35190  1.0000
  H   H15       1.0  0.03139  0.14612  0.39392  1.0000
  C   C33       1.0  0.30506  0.99876  0.33616  1.0000
  C   C34       1.0  0.27969  0.96737  0.37677  1.0000
  C   C35       1.0  0.23588  0.96559  0.36325  1.0000
  H   H16       1.0  0.21931  0.94236  0.39514  1.0000
  H   H17       1.0  0.29295  0.94507  0.41755  1.0000
  C   C36       1.0  0.34906  0.99783  0.35191  1.0000
  H   H18       1.0  0.36035  0.97510  0.39390  1.0000
  C   C37       1.0  0.49494  0.51154  0.32768  1.0000
  C   C38       1.0  0.41965  0.53180  0.31769  1.0000
  H   H19       1.0  0.40963  0.59688  0.30264  1.0000
  C   C39       1.0  0.07057  0.49075  0.33292  1.0000
  N   N9        1.0  0.37699  0.52689  0.32189  1.0000
  N   N10       1.0  0.14494  0.96410  0.33163  1.0000
  C   C40       1.0  0.01139  0.79144  0.30790  1.0000
  C   C41       1.0  0.97984  0.76640  0.26617  1.0000
  C   C42       1.0  0.97803  0.72195  0.27996  1.0000
  N   N11       1.0  0.94712  0.70015  0.23679  1.0000
  C   C43       1.0  0.91810  0.71807  0.18225  1.0000
  C   C44       1.0  0.91969  0.76173  0.16909  1.0000
  N   N12       1.0  0.95029  0.78391  0.21123  1.0000
  H   H20       1.0  0.89565  0.70005  0.15175  1.0000
  H   H21       1.0  0.89846  0.77663  0.12862  1.0000
  C   C45       1.0  0.01255  0.83571  0.29676  1.0000
  H   H22       1.0  0.99084  0.84913  0.25530  1.0000
  C   C46       1.0  0.21503  0.49509  0.30787  1.0000
  C   C47       1.0  0.24007  0.52664  0.26613  1.0000
  C   C48       1.0  0.28453  0.52845  0.27992  1.0000
  N   N13       1.0  0.30633  0.55934  0.23672  1.0000
  C   C49       1.0  0.28841  0.58836  0.18216  1.0000
  C   C50       1.0  0.24474  0.58677  0.16899  1.0000
  N   N14       1.0  0.22257  0.55618  0.21115  1.0000
  H   H23       1.0  0.30643  0.61080  0.15164  1.0000
  H   H24       1.0  0.22985  0.60799  0.12848  1.0000
  C   C51       1.0  0.17076  0.49393  0.29673  1.0000
  H   H25       1.0  0.15735  0.51562  0.25520  1.0000
  C   C52       1.0  0.45137  0.00022  0.32562  1.0000
  C   C53       1.0  0.43243  0.57405  0.30700  1.0000
  C   C54       1.0  0.47467  0.58683  0.31775  1.0000
  C   C55       1.0  0.50626  0.55511  0.32562  1.0000
  C   C56       1.0  0.44144  0.95696  0.32654  1.0000
  C   C57       1.0  0.04953  0.56503  0.32656  1.0000
  C   C58       1.0  0.02701  0.97947  0.33102  1.0000
  C   C59       1.0  0.01572  0.93590  0.33293  1.0000
  C   C60       1.0  0.04736  0.90412  0.33913  1.0000
  C   C61       1.0  0.08966  0.91681  0.34938  1.0000
  C   C62       1.0  0.10235  0.95910  0.33904  1.0000
  C   C63       1.0  0.47245  0.92601  0.33421  1.0000
  H   H26       1.0  0.11252  0.89398  0.35178  1.0000
  C   C64       1.0  0.08047  0.53403  0.33427  1.0000
  H   H27       1.0  0.46205  0.89611  0.34393  1.0000
  H   H28       1.0  0.41151  0.94646  0.31880  1.0000
  H   H29       1.0  0.11037  0.54442  0.34382  1.0000
  H   H30       1.0  0.06002  0.59496  0.31875  1.0000
  N   N15       1.0  0.47960  0.62949  0.32192  1.0000
  N   N16       1.0  0.04237  0.86154  0.33167  1.0000
  C   C65       1.0  0.00772  0.70142  0.33618  1.0000
  C   C66       1.0  0.03913  0.72678  0.37675  1.0000
  C   C67       1.0  0.04091  0.77060  0.36324  1.0000
  H   H31       1.0  0.06414  0.78716  0.39512  1.0000
  H   H32       1.0  0.06144  0.71352  0.41752  1.0000
  C   C68       1.0  0.00868  0.65741  0.35190  1.0000
  H   H33       1.0  0.03139  0.64612  0.39392  1.0000
  C   C69       1.0  0.30506  0.49877  0.33616  1.0000
  C   C70       1.0  0.27969  0.46737  0.37677  1.0000
  C   C71       1.0  0.23588  0.46558  0.36325  1.0000
  H   H34       1.0  0.21931  0.44236  0.39514  1.0000
  H   H35       1.0  0.29295  0.44507  0.41755  1.0000
  C   C72       1.0  0.34906  0.49783  0.35191  1.0000
  H   H36       1.0  0.36035  0.47510  0.39390  1.0000
  C   C73       1.0  0.99494  0.01154  0.32768  1.0000
  C   C74       1.0  0.91965  0.03180  0.31769  1.0000
  H   H37       1.0  0.90963  0.09688  0.30264  1.0000
  C   C75       1.0  0.57057  0.99075  0.33292  1.0000
  N   N17       1.0  0.87699  0.02689  0.32189  1.0000
  N   N18       1.0  0.64494  0.46410  0.33163  1.0000
  C   C76       1.0  0.51139  0.29144  0.30790  1.0000
  C   C77       1.0  0.47984  0.26640  0.26617  1.0000
  C   C78       1.0  0.47803  0.22195  0.27996  1.0000
  N   N19       1.0  0.44712  0.20015  0.23679  1.0000
  C   C79       1.0  0.41810  0.21807  0.18225  1.0000
  C   C80       1.0  0.41969  0.26173  0.16909  1.0000
  N   N20       1.0  0.45029  0.28391  0.21123  1.0000
  H   H38       1.0  0.39565  0.20005  0.15175  1.0000
  H   H39       1.0  0.39846  0.27663  0.12862  1.0000
  C   C81       1.0  0.51255  0.33571  0.29676  1.0000
  H   H40       1.0  0.49084  0.34912  0.25530  1.0000
  C   C82       1.0  0.71503  0.99509  0.30787  1.0000
  C   C83       1.0  0.74007  0.02664  0.26613  1.0000
  C   C84       1.0  0.78453  0.02845  0.27992  1.0000
  N   N21       1.0  0.80633  0.05935  0.23672  1.0000
  C   C85       1.0  0.78841  0.08836  0.18216  1.0000
  C   C86       1.0  0.74474  0.08677  0.16899  1.0000
  N   N22       1.0  0.72257  0.05618  0.21115  1.0000
  H   H41       1.0  0.80643  0.11080  0.15164  1.0000
  H   H42       1.0  0.72985  0.10799  0.12848  1.0000
  C   C87       1.0  0.67076  0.99393  0.29673  1.0000
  H   H43       1.0  0.65735  0.01562  0.25520  1.0000
  C   C88       1.0  0.95137  0.50022  0.32562  1.0000
  C   C89       1.0  0.93243  0.07405  0.30700  1.0000
  C   C90       1.0  0.97468  0.08683  0.31775  1.0000
  C   C91       1.0  0.00626  0.05511  0.32562  1.0000
  C   C92       1.0  0.94145  0.45695  0.32654  1.0000
  C   C93       1.0  0.54953  0.06503  0.32656  1.0000
  C   C94       1.0  0.52701  0.47947  0.33102  1.0000
  C   C95       1.0  0.51572  0.43591  0.33293  1.0000
  C   C96       1.0  0.54736  0.40413  0.33913  1.0000
  C   C97       1.0  0.58966  0.41681  0.34938  1.0000
  C   C98       1.0  0.60235  0.45910  0.33904  1.0000
  C   C99       1.0  0.97245  0.42601  0.33421  1.0000
  H   H44       1.0  0.61252  0.39398  0.35178  1.0000
  C   C100      1.0  0.58047  0.03403  0.33427  1.0000
  H   H45       1.0  0.96205  0.39611  0.34393  1.0000
  H   H46       1.0  0.91151  0.44646  0.31880  1.0000
  H   H47       1.0  0.61037  0.04442  0.34382  1.0000
  H   H48       1.0  0.56002  0.09496  0.31875  1.0000
  N   N23       1.0  0.97961  0.12949  0.32192  1.0000
  N   N24       1.0  0.54237  0.36154  0.33167  1.0000
  C   C101      1.0  0.50772  0.20142  0.33618  1.0000
  C   C102      1.0  0.53912  0.22678  0.37675  1.0000
  C   C103      1.0  0.54091  0.27059  0.36324  1.0000
  H   H49       1.0  0.56414  0.28716  0.39512  1.0000
  H   H50       1.0  0.56144  0.21352  0.41752  1.0000
  C   C104      1.0  0.50868  0.15741  0.35190  1.0000
  H   H51       1.0  0.53139  0.14612  0.39392  1.0000
  C   C105      1.0  0.80506  0.99876  0.33616  1.0000
  C   C106      1.0  0.77969  0.96737  0.37677  1.0000
  C   C107      1.0  0.73588  0.96559  0.36325  1.0000
  H   H52       1.0  0.71931  0.94236  0.39514  1.0000
  H   H53       1.0  0.79295  0.94507  0.41755  1.0000
  C   C108      1.0  0.84906  0.99783  0.35191  1.0000
  H   H54       1.0  0.86035  0.97510  0.39390  1.0000
  C   C109      1.0  0.99494  0.51154  0.32768  1.0000
  C   C110      1.0  0.91965  0.53180  0.31769  1.0000
  H   H55       1.0  0.90963  0.59688  0.30264  1.0000
  C   C111      1.0  0.57057  0.49075  0.33292  1.0000
  N   N25       1.0  0.87699  0.52689  0.32189  1.0000
  N   N26       1.0  0.64494  0.96410  0.33163  1.0000
  C   C112      1.0  0.51139  0.79144  0.30790  1.0000
  C   C113      1.0  0.47984  0.76640  0.26617  1.0000
  C   C114      1.0  0.47803  0.72195  0.27996  1.0000
  N   N27       1.0  0.44712  0.70015  0.23679  1.0000
  C   C115      1.0  0.41810  0.71807  0.18225  1.0000
  C   C116      1.0  0.41969  0.76173  0.16909  1.0000
  N   N28       1.0  0.45029  0.78391  0.21123  1.0000
  H   H56       1.0  0.39565  0.70005  0.15175  1.0000
  H   H57       1.0  0.39846  0.77663  0.12862  1.0000
  C   C117      1.0  0.51255  0.83571  0.29676  1.0000
  H   H58       1.0  0.49084  0.84913  0.25530  1.0000
  C   C118      1.0  0.71503  0.49509  0.30787  1.0000
  C   C119      1.0  0.74007  0.52664  0.26613  1.0000
  C   C120      1.0  0.78453  0.52845  0.27992  1.0000
  N   N29       1.0  0.80633  0.55934  0.23672  1.0000
  C   C121      1.0  0.78841  0.58836  0.18216  1.0000
  C   C122      1.0  0.74474  0.58677  0.16899  1.0000
  N   N30       1.0  0.72257  0.55618  0.21115  1.0000
  H   H59       1.0  0.80643  0.61080  0.15164  1.0000
  H   H60       1.0  0.72985  0.60799  0.12848  1.0000
  C   C123      1.0  0.67076  0.49393  0.29673  1.0000
  H   H61       1.0  0.65735  0.51562  0.25520  1.0000
  C   C124      1.0  0.95137  0.00022  0.32562  1.0000
  C   C125      1.0  0.93243  0.57405  0.30700  1.0000
  C   C126      1.0  0.97468  0.58683  0.31775  1.0000
  C   C127      1.0  0.00626  0.55511  0.32562  1.0000
  C   C128      1.0  0.94145  0.95696  0.32654  1.0000
  C   C129      1.0  0.54953  0.56503  0.32656  1.0000
  C   C130      1.0  0.52701  0.97947  0.33102  1.0000
  C   C131      1.0  0.51572  0.93590  0.33293  1.0000
  C   C132      1.0  0.54736  0.90412  0.33913  1.0000
  C   C133      1.0  0.58966  0.91681  0.34938  1.0000
  C   C134      1.0  0.60235  0.95910  0.33904  1.0000
  C   C135      1.0  0.97245  0.92601  0.33421  1.0000
  H   H62       1.0  0.61252  0.89398  0.35178  1.0000
  C   C136      1.0  0.58047  0.53403  0.33427  1.0000
  H   H63       1.0  0.96205  0.89611  0.34393  1.0000
  H   H64       1.0  0.91151  0.94646  0.31880  1.0000
  H   H65       1.0  0.61037  0.54442  0.34382  1.0000
  H   H66       1.0  0.56002  0.59496  0.31875  1.0000
  N   N31       1.0  0.97961  0.62949  0.32192  1.0000
  N   N32       1.0  0.54237  0.86154  0.33167  1.0000
  C   C137      1.0  0.50772  0.70142  0.33618  1.0000
  C   C138      1.0  0.53912  0.72678  0.37675  1.0000
  C   C139      1.0  0.54091  0.77060  0.36324  1.0000
  H   H67       1.0  0.56414  0.78716  0.39512  1.0000
  H   H68       1.0  0.56144  0.71352  0.41752  1.0000
  C   C140      1.0  0.50868  0.65741  0.35190  1.0000
  H   H69       1.0  0.53139  0.64612  0.39392  1.0000
  C   C141      1.0  0.80506  0.49877  0.33616  1.0000
  C   C142      1.0  0.77969  0.46737  0.37677  1.0000
  C   C143      1.0  0.73588  0.46558  0.36325  1.0000
  H   H70       1.0  0.71931  0.44236  0.39514  1.0000
  H   H71       1.0  0.79295  0.44507  0.41755  1.0000
  C   C144      1.0  0.84906  0.49783  0.35191  1.0000
  H   H72       1.0  0.86035  0.47510  0.39390  1.0000
