data_image0
_chemical_formula_structural       CHC2HC2HCHC5HC2HC2HC2HC2HC2HC2HC2HC2H4C2HC2HC2H4C3HC2H4C2HC2HC2H4C2HC2HC2H4C2HC2HC2H4C4H3C4H2C4H2C4H2C4H2C6H2NO2C8H3NO2C6H2NO2C8H3NO2C8H3NO2C8H3NO2
_chemical_formula_sum              "C120 H72 N6 O12"
_cell_length_a       32.0236
_cell_length_b       32.0236
_cell_length_c       14.8498
_cell_angle_alpha    90
_cell_angle_beta     90
_cell_angle_gamma    120

_space_group_name_H-M_alt    "P 1"
_space_group_IT_number       1

loop_
  _space_group_symop_operation_xyz
  'x, y, z'

loop_
  _atom_site_type_symbol
  _atom_site_label
  _atom_site_symmetry_multiplicity
  _atom_site_fract_x
  _atom_site_fract_y
  _atom_site_fract_z
  _atom_site_occupancy
  C   C1        1.0  0.06123  0.57037  0.36279  1.0000
  H   H1        1.0  0.04424  0.58985  0.37022  1.0000
  C   C2        1.0  0.03425  0.51880  0.35676  1.0000
  C   C3        1.0  0.06292  0.49601  0.34921  1.0000
  H   H2        1.0  0.04708  0.45960  0.34224  1.0000
  C   C4        1.0  0.11222  0.59734  0.35972  1.0000
  C   C5        1.0  0.11402  0.52184  0.34682  1.0000
  H   H3        1.0  0.12548  0.46608  0.46839  1.0000
  C   C6        1.0  0.15912  0.67333  0.27908  1.0000
  H   H4        1.0  0.14570  0.65515  0.21974  1.0000
  C   C7        1.0  0.13783  0.57244  0.35225  1.0000
  C   C8        1.0  0.14823  0.47492  0.41436  1.0000
  C   C9        1.0  0.14348  0.50003  0.34063  1.0000
  C   C10       1.0  0.13998  0.64873  0.36076  1.0000
  C   C11       1.0  0.16259  0.67257  0.44131  1.0000
  H   H5        1.0  0.15198  0.65368  0.50056  1.0000
  C   C12       1.0  0.90300  0.41281  0.35972  1.0000
  C   C13       1.0  0.95400  0.43978  0.36288  1.0000
  H   H6        1.0  0.97097  0.42030  0.37044  1.0000
  C   C14       1.0  0.59988  0.49272  0.35972  1.0000
  C   C15       1.0  0.57291  0.51674  0.36279  1.0000
  H   H7        1.0  0.59240  0.55320  0.37021  1.0000
  C   C16       1.0  0.44231  0.49338  0.36285  1.0000
  C   C17       1.0  0.41534  0.51740  0.35974  1.0000
  H   H8        1.0  0.42283  0.45692  0.37036  1.0000
  C   C18       1.0  0.51994  0.10969  0.35978  1.0000
  C   C19       1.0  0.49591  0.05869  0.36292  1.0000
  H   H9        1.0  0.45945  0.04172  0.37047  1.0000
  C   C20       1.0  0.51922  0.95145  0.36287  1.0000
  C   C21       1.0  0.49518  0.90046  0.35970  1.0000
  H   H10       1.0  0.55568  0.96842  0.37041  1.0000
  C   C22       1.0  0.29236  0.48208  0.27750  1.0000
  C   C23       1.0  0.33938  0.48843  0.27928  1.0000
  H   H11       1.0  0.35757  0.49312  0.21994  1.0000
  C   C24       1.0  0.17658  0.51238  0.26883  1.0000
  C   C25       1.0  0.21505  0.50264  0.27246  1.0000
  H   H12       1.0  0.17394  0.53077  0.21467  1.0000
  C   C26       1.0  0.24878  0.51631  0.19477  1.0000
  C   C27       1.0  0.27050  0.48270  0.18926  1.0000
  H   H13       1.0  0.27755  0.55374  0.20296  1.0000
  H   H14       1.0  0.23017  0.51350  0.13134  1.0000
  H   H15       1.0  0.29657  0.49480  0.13402  1.0000
  H   H16       1.0  0.24191  0.44600  0.17372  1.0000
  C   C28       1.0  0.53055  0.81277  0.27751  1.0000
  C   C29       1.0  0.52411  0.85338  0.27934  1.0000
  H   H17       1.0  0.51950  0.86690  0.21996  1.0000
  C   C30       1.0  0.50038  0.66674  0.26874  1.0000
  C   C31       1.0  0.51007  0.71493  0.27242  1.0000
  H   H18       1.0  0.48194  0.64571  0.21462  1.0000
  C   C32       1.0  0.49637  0.73497  0.19475  1.0000
  C   C33       1.0  0.52995  0.79031  0.18926  1.0000
  H   H19       1.0  0.45893  0.72629  0.20294  1.0000
  H   H20       1.0  0.49919  0.71918  0.13131  1.0000
  H   H21       1.0  0.51785  0.80427  0.13402  1.0000
  H   H22       1.0  0.56666  0.79845  0.17373  1.0000
  C   C34       1.0  0.19979  0.72036  0.27736  1.0000
  C   C35       1.0  0.34586  0.83618  0.26866  1.0000
  C   C36       1.0  0.29767  0.79768  0.27233  1.0000
  H   H23       1.0  0.36691  0.83877  0.21457  1.0000
  C   C37       1.0  0.27763  0.76394  0.19466  1.0000
  C   C38       1.0  0.22231  0.74224  0.18913  1.0000
  H   H24       1.0  0.28627  0.73515  0.20291  1.0000
  H   H25       1.0  0.29345  0.78252  0.13123  1.0000
  H   H26       1.0  0.20834  0.71618  0.13387  1.0000
  H   H27       1.0  0.21421  0.77083  0.17360  1.0000
  C   C39       1.0  0.72289  0.52815  0.27730  1.0000
  C   C40       1.0  0.67587  0.52177  0.27905  1.0000
  H   H28       1.0  0.65769  0.51709  0.21972  1.0000
  C   C41       1.0  0.83869  0.49784  0.26855  1.0000
  C   C42       1.0  0.80021  0.50756  0.27223  1.0000
  H   H29       1.0  0.84132  0.47944  0.21442  1.0000
  C   C43       1.0  0.76648  0.49389  0.19454  1.0000
  C   C44       1.0  0.74476  0.52751  0.18905  1.0000
  H   H30       1.0  0.73769  0.45646  0.20275  1.0000
  H   H31       1.0  0.78507  0.49668  0.13111  1.0000
  H   H32       1.0  0.71869  0.51541  0.13381  1.0000
  H   H33       1.0  0.77335  0.56420  0.17352  1.0000
  C   C45       1.0  0.48458  0.19732  0.27758  1.0000
  C   C46       1.0  0.49097  0.15667  0.27943  1.0000
  H   H34       1.0  0.49565  0.14318  0.22009  1.0000
  C   C47       1.0  0.51490  0.34340  0.26882  1.0000
  C   C48       1.0  0.50513  0.29518  0.27246  1.0000
  H   H35       1.0  0.53330  0.36442  0.21467  1.0000
  C   C49       1.0  0.51881  0.27512  0.19479  1.0000
  C   C50       1.0  0.48520  0.21979  0.18931  1.0000
  H   H36       1.0  0.55624  0.28378  0.20297  1.0000
  H   H37       1.0  0.51599  0.29091  0.13136  1.0000
  H   H38       1.0  0.49730  0.20581  0.13410  1.0000
  H   H39       1.0  0.44850  0.21167  0.17377  1.0000
  C   C51       1.0  0.81531  0.28982  0.27753  1.0000
  C   C52       1.0  0.85594  0.33686  0.27936  1.0000
  H   H40       1.0  0.86945  0.35501  0.22000  1.0000
  C   C53       1.0  0.66925  0.17399  0.26875  1.0000
  C   C54       1.0  0.71746  0.21247  0.27244  1.0000
  H   H41       1.0  0.64821  0.17141  0.21467  1.0000
  C   C55       1.0  0.73750  0.24623  0.19479  1.0000
  C   C56       1.0  0.79283  0.26798  0.18926  1.0000
  H   H42       1.0  0.72883  0.27500  0.20305  1.0000
  H   H43       1.0  0.72170  0.22765  0.13134  1.0000
  H   H44       1.0  0.80679  0.29406  0.13406  1.0000
  H   H45       1.0  0.80096  0.23940  0.17369  1.0000
  C   C57       1.0  0.98098  0.49135  0.35673  1.0000
  C   C58       1.0  0.95232  0.51413  0.34904  1.0000
  C   C59       1.0  0.90121  0.48831  0.34670  1.0000
  C   C60       1.0  0.87739  0.43771  0.35221  1.0000
  H   H46       1.0  0.96815  0.55054  0.34204  1.0000
  H   H47       1.0  0.84037  0.41843  0.35101  1.0000
  H   H48       1.0  0.17485  0.59174  0.35103  1.0000
  C   C61       1.0  0.52134  0.49215  0.35675  1.0000
  C   C62       1.0  0.49855  0.44070  0.34923  1.0000
  C   C63       1.0  0.52438  0.41543  0.34680  1.0000
  C   C64       1.0  0.57498  0.44220  0.35223  1.0000
  H   H49       1.0  0.46214  0.42013  0.34224  1.0000
  H   H50       1.0  0.59427  0.42447  0.35100  1.0000
  C   C65       1.0  0.49388  0.51796  0.35674  1.0000
  C   C66       1.0  0.44025  0.56791  0.35225  1.0000
  C   C67       1.0  0.49085  0.59468  0.34674  1.0000
  C   C68       1.0  0.51667  0.56941  0.34910  1.0000
  H   H51       1.0  0.42097  0.58566  0.35106  1.0000
  H   H52       1.0  0.55308  0.58998  0.34215  1.0000
  C   C69       1.0  0.52048  0.03170  0.35674  1.0000
  C   C70       1.0  0.57193  0.06036  0.34912  1.0000
  C   C71       1.0  0.59722  0.11146  0.34678  1.0000
  C   C72       1.0  0.57046  0.13529  0.35231  1.0000
  H   H53       1.0  0.59249  0.04451  0.34202  1.0000
  H   H54       1.0  0.58819  0.17231  0.35114  1.0000
  C   C73       1.0  0.49466  0.97845  0.35671  1.0000
  C   C74       1.0  0.44467  0.87486  0.35223  1.0000
  C   C75       1.0  0.41791  0.89870  0.34672  1.0000
  C   C76       1.0  0.44320  0.94980  0.34903  1.0000
  H   H55       1.0  0.42692  0.83784  0.35103  1.0000
  H   H56       1.0  0.42265  0.96566  0.34203  1.0000
  C   C77       1.0  0.36395  0.49378  0.36100  1.0000
  C   C78       1.0  0.34008  0.49255  0.44150  1.0000
  C   C79       1.0  0.29305  0.48663  0.44173  1.0000
  C   C80       1.0  0.26782  0.48066  0.35892  1.0000
  C   C81       1.0  0.22332  0.48247  0.35157  1.0000
  C   C82       1.0  0.18701  0.46586  0.41897  1.0000
  H   H57       1.0  0.18882  0.44779  0.47403  1.0000
  H   H58       1.0  0.35895  0.50071  0.50076  1.0000
  N   N1        1.0  0.27456  0.49286  0.52419  1.0000
  O   O1        1.0  0.27001  0.46218  0.58202  1.0000
  O   O2        1.0  0.30019  0.53439  0.55658  1.0000
  C   C83       1.0  0.51878  0.87269  0.36098  1.0000
  C   C84       1.0  0.51997  0.84994  0.44138  1.0000
  C   C85       1.0  0.52597  0.80888  0.44168  1.0000
  C   C86       1.0  0.53202  0.78966  0.35890  1.0000
  C   C87       1.0  0.53021  0.74335  0.35154  1.0000
  C   C88       1.0  0.54679  0.72365  0.41896  1.0000
  C   C89       1.0  0.53768  0.67579  0.41436  1.0000
  C   C90       1.0  0.51268  0.64594  0.34055  1.0000
  H   H59       1.0  0.56486  0.74352  0.47404  1.0000
  H   H60       1.0  0.54657  0.66189  0.46834  1.0000
  H   H61       1.0  0.51187  0.86066  0.50071  1.0000
  N   N2        1.0  0.51979  0.78419  0.52417  1.0000
  O   O3        1.0  0.55045  0.81037  0.58198  1.0000
  O   O4        1.0  0.47825  0.76824  0.55656  1.0000
  C   C91       1.0  0.20372  0.71960  0.44155  1.0000
  C   C92       1.0  0.22293  0.74490  0.35877  1.0000
  C   C93       1.0  0.26925  0.78939  0.35145  1.0000
  C   C94       1.0  0.28894  0.82568  0.41886  1.0000
  C   C95       1.0  0.33678  0.86448  0.41422  1.0000
  C   C96       1.0  0.36665  0.86928  0.34047  1.0000
  H   H62       1.0  0.26908  0.82383  0.47400  1.0000
  H   H63       1.0  0.35071  0.88716  0.46832  1.0000
  N   N3        1.0  0.22848  0.73805  0.52399  1.0000
  O   O5        1.0  0.20237  0.74258  0.58192  1.0000
  O   O6        1.0  0.24439  0.71241  0.55624  1.0000
  C   C97       1.0  0.65128  0.51635  0.36073  1.0000
  C   C98       1.0  0.67512  0.51757  0.44127  1.0000
  C   C99       1.0  0.72214  0.52343  0.44151  1.0000
  C   C100      1.0  0.74739  0.52943  0.35869  1.0000
  C   C101      1.0  0.79190  0.52765  0.35139  1.0000
  C   C102      1.0  0.82818  0.54421  0.41883  1.0000
  C   C103      1.0  0.86698  0.53517  0.41418  1.0000
  C   C104      1.0  0.87176  0.51011  0.34038  1.0000
  H   H64       1.0  0.82632  0.56219  0.47400  1.0000
  H   H65       1.0  0.88966  0.54390  0.46829  1.0000
  H   H66       1.0  0.65624  0.50931  0.50054  1.0000
  N   N4        1.0  0.74056  0.51709  0.52396  1.0000
  O   O7        1.0  0.74511  0.54772  0.58191  1.0000
  O   O8        1.0  0.71488  0.47553  0.55618  1.0000
  C   C105      1.0  0.49632  0.13745  0.36115  1.0000
  C   C106      1.0  0.49508  0.16013  0.44158  1.0000
  C   C107      1.0  0.48913  0.20122  0.44179  1.0000
  C   C108      1.0  0.48315  0.22045  0.35896  1.0000
  C   C109      1.0  0.48495  0.26676  0.35158  1.0000
  C   C110      1.0  0.46834  0.28646  0.41896  1.0000
  C   C111      1.0  0.47743  0.33432  0.41434  1.0000
  C   C112      1.0  0.50256  0.36416  0.34061  1.0000
  H   H67       1.0  0.45026  0.26658  0.47402  1.0000
  H   H68       1.0  0.46858  0.34822  0.46836  1.0000
  H   H69       1.0  0.50325  0.14944  0.50086  1.0000
  N   N5        1.0  0.49535  0.22595  0.52425  1.0000
  O   O9        1.0  0.46468  0.19982  0.58209  1.0000
  O   O10       1.0  0.53689  0.24187  0.55662  1.0000
  C   C113      1.0  0.87523  0.36143  0.36106  1.0000
  C   C114      1.0  0.85253  0.33750  0.44147  1.0000
  C   C115      1.0  0.81144  0.29045  0.44173  1.0000
  C   C116      1.0  0.79221  0.26520  0.35891  1.0000
  C   C117      1.0  0.74589  0.22072  0.35154  1.0000
  C   C118      1.0  0.72620  0.18441  0.41892  1.0000
  C   C119      1.0  0.67832  0.14566  0.41434  1.0000
  C   C120      1.0  0.64849  0.14090  0.34057  1.0000
  H   H70       1.0  0.74608  0.18619  0.47395  1.0000
  H   H71       1.0  0.66443  0.12285  0.46828  1.0000
  H   H72       1.0  0.86325  0.35631  0.50081  1.0000
  N   N6        1.0  0.78676  0.27192  0.52420  1.0000
  O   O11       1.0  0.81294  0.26740  0.58198  1.0000
  O   O12       1.0  0.77083  0.29750  0.55665  1.0000
