data_image0
_chemical_formula_structural       C3H2C2NC3NC5NC2NC35H23C21H18C16H16C2H2C2H2C4H2C2H2C2H2C4H2C18H17C3NC3NC2NC5NC34H24C3NC3NC5NC5NC36H26C4HCH3C4HCH3C2HCH3C4HCH3C4HCH3C2HCH3
_chemical_formula_sum              "C246 H162 N12"
_cell_length_a       58.6511
_cell_length_b       58.6511
_cell_length_c       14.9696
_cell_angle_alpha    89.7736
_cell_angle_beta     90.2264
_cell_angle_gamma    120

_space_group_name_H-M_alt    "P 1"
_space_group_IT_number       1

loop_
  _space_group_symop_operation_xyz
  'x, y, z'

loop_
  _atom_site_type_symbol
  _atom_site_label
  _atom_site_symmetry_multiplicity
  _atom_site_fract_x
  _atom_site_fract_y
  _atom_site_fract_z
  _atom_site_occupancy
  C   C1        1.0  0.01391  0.60626  0.32654  1.0000
  C   C2        1.0  0.01372  0.50797  0.32821  1.0000
  C   C3        1.0  0.02223  0.48963  0.32198  1.0000
  H   H1        1.0  0.01131  0.64190  0.31649  1.0000
  H   H2        1.0  0.01081  0.46959  0.31897  1.0000
  C   C4        1.0  0.04979  0.64671  0.32219  1.0000
  C   C5        1.0  0.02261  0.63317  0.32060  1.0000
  N   N1        1.0  0.03607  0.60448  0.33044  1.0000
  C   C6        1.0  0.05831  0.62836  0.32828  1.0000
  C   C7        1.0  0.08508  0.63470  0.33218  1.0000
  C   C8        1.0  0.09367  0.61596  0.33381  1.0000
  N   N2        1.0  0.07878  0.58944  0.32973  1.0000
  C   C9        1.0  0.09363  0.57774  0.33185  1.0000
  C   C10       1.0  0.11976  0.59810  0.33765  1.0000
  C   C11       1.0  0.11979  0.62164  0.33865  1.0000
  C   C12       1.0  0.08496  0.55040  0.32851  1.0000
  C   C13       1.0  0.05812  0.53007  0.32644  1.0000
  N   N3        1.0  0.03597  0.53185  0.33041  1.0000
  C   C14       1.0  0.04941  0.50317  0.32034  1.0000
  C   C15       1.0  0.98696  0.50162  0.33226  1.0000
  N   N4        1.0  0.99326  0.54687  0.32990  1.0000
  C   C16       1.0  0.97841  0.55857  0.33197  1.0000
  C   C17       1.0  0.95228  0.53820  0.33767  1.0000
  C   C18       1.0  0.95225  0.51466  0.33872  1.0000
  C   C19       1.0  0.98707  0.58592  0.32857  1.0000
  C   C20       1.0  0.96731  0.59331  0.32658  1.0000
  C   C21       1.0  0.95314  0.59075  0.24719  1.0000
  C   C22       1.0  0.93232  0.59617  0.24676  1.0000
  C   C23       1.0  0.92528  0.60456  0.32527  1.0000
  C   C24       1.0  0.90313  0.60843  0.32618  1.0000
  C   C25       1.0  0.85632  0.59206  0.29528  1.0000
  C   C26       1.0  0.87861  0.58903  0.29097  1.0000
  C   C27       1.0  0.96720  0.47451  0.33470  1.0000
  C   C28       1.0  0.95652  0.46035  0.25484  1.0000
  C   C29       1.0  0.93600  0.43397  0.25765  1.0000
  C   C30       1.0  0.92544  0.42112  0.34012  1.0000
  C   C31       1.0  0.90359  0.39487  0.34280  1.0000
  C   C32       1.0  0.90260  0.37476  0.28809  1.0000
  C   C33       1.0  0.88061  0.34913  0.28931  1.0000
  C   C34       1.0  0.85876  0.34264  0.34518  1.0000
  C   C35       1.0  0.10470  0.54298  0.32670  1.0000
  C   C36       1.0  0.14628  0.53107  0.32537  1.0000
  C   C37       1.0  0.13945  0.53994  0.24706  1.0000
  C   C38       1.0  0.11885  0.54568  0.24749  1.0000
  C   C39       1.0  0.16810  0.52668  0.32618  1.0000
  C   C40       1.0  0.19279  0.54590  0.29167  1.0000
  C   C41       1.0  0.21474  0.54230  0.29577  1.0000
  C   C42       1.0  0.21267  0.51928  0.33414  1.0000
  C   C43       1.0  0.10487  0.66179  0.33459  1.0000
  C   C44       1.0  0.11570  0.67595  0.25472  1.0000
  C   C45       1.0  0.13644  0.70223  0.25752  1.0000
  C   C46       1.0  0.14706  0.71498  0.34001  1.0000
  C   C47       1.0  0.16923  0.74104  0.34272  1.0000
  C   C48       1.0  0.21474  0.79282  0.34492  1.0000
  C   C49       1.0  0.19302  0.78676  0.28845  1.0000
  C   C50       1.0  0.17070  0.76135  0.28731  1.0000
  H   H3        1.0  0.19316  0.80091  0.24787  1.0000
  H   H4        1.0  0.15535  0.75788  0.24599  1.0000
  H   H5        1.0  0.14441  0.71162  0.19840  1.0000
  H   H6        1.0  0.10897  0.66704  0.19405  1.0000
  H   H7        1.0  0.06122  0.66675  0.31921  1.0000
  H   H8        1.0  0.03603  0.58818  0.33771  1.0000
  H   H9        1.0  0.03602  0.54813  0.33788  1.0000
  H   H10       1.0  0.13635  0.63978  0.34237  1.0000
  H   H11       1.0  0.13629  0.59646  0.34095  1.0000
  H   H12       1.0  0.11461  0.55236  0.19003  1.0000
  H   H13       1.0  0.14949  0.54237  0.18878  1.0000
  H   H14       1.0  0.06070  0.49444  0.31612  1.0000
  H   H15       1.0  0.93570  0.49651  0.34232  1.0000
  H   H16       1.0  0.96325  0.46930  0.19417  1.0000
  H   H17       1.0  0.92817  0.42453  0.19851  1.0000
  H   H18       1.0  0.88082  0.33514  0.24927  1.0000
  H   H19       1.0  0.91806  0.37854  0.24723  1.0000
  H   H20       1.0  0.87649  0.57201  0.26450  1.0000
  H   H21       1.0  0.83875  0.57728  0.27130  1.0000
  H   H22       1.0  0.92223  0.59380  0.18838  1.0000
  H   H23       1.0  0.95748  0.58433  0.18966  1.0000
  H   H24       1.0  0.19526  0.56317  0.26572  1.0000
  H   H25       1.0  0.23245  0.55695  0.27231  1.0000
  C   C51       1.0  0.52468  0.61266  0.33457  1.0000
  C   C52       1.0  0.50432  0.61842  0.34018  1.0000
  C   C53       1.0  0.48078  0.59492  0.34119  1.0000
  C   C54       1.0  0.51164  0.45932  0.24994  1.0000
  C   C55       1.0  0.50622  0.43309  0.24949  1.0000
  C   C56       1.0  0.51034  0.36110  0.29789  1.0000
  C   C57       1.0  0.51338  0.38644  0.29368  1.0000
  C   C58       1.0  0.64202  0.59313  0.25702  1.0000
  C   C59       1.0  0.66840  0.59898  0.25951  1.0000
  C   C60       1.0  0.72763  0.62475  0.28935  1.0000
  C   C61       1.0  0.75326  0.62840  0.29019  1.0000
  C   C62       1.0  0.75980  0.61289  0.34570  1.0000
  C   C63       1.0  0.56251  0.69646  0.24977  1.0000
  C   C64       1.0  0.55678  0.67012  0.25021  1.0000
  C   C65       1.0  0.55650  0.74372  0.29433  1.0000
  C   C66       1.0  0.56009  0.76926  0.29843  1.0000
  C   C67       1.0  0.42653  0.53665  0.25694  1.0000
  C   C68       1.0  0.40025  0.53111  0.25944  1.0000
  C   C69       1.0  0.30958  0.51865  0.34549  1.0000
  C   C70       1.0  0.31569  0.50307  0.28939  1.0000
  C   C71       1.0  0.34111  0.50616  0.28867  1.0000
  H   H26       1.0  0.30158  0.48912  0.24875  1.0000
  H   H27       1.0  0.34462  0.49436  0.24756  1.0000
  H   H28       1.0  0.39088  0.52974  0.20019  1.0000
  H   H29       1.0  0.43547  0.53890  0.19638  1.0000
  H   H30       1.0  0.46264  0.59333  0.34479  1.0000
  H   H31       1.0  0.55011  0.65931  0.19276  1.0000
  H   H32       1.0  0.56010  0.70419  0.19145  1.0000
  H   H33       1.0  0.60800  0.66308  0.31934  1.0000
  H   H34       1.0  0.63304  0.59109  0.19645  1.0000
  H   H35       1.0  0.67780  0.60077  0.20025  1.0000
  H   H36       1.0  0.76722  0.64270  0.25010  1.0000
  H   H37       1.0  0.72382  0.63654  0.24877  1.0000
  H   H38       1.0  0.53040  0.40139  0.26719  1.0000
  H   H39       1.0  0.52514  0.35837  0.27398  1.0000
  H   H40       1.0  0.50859  0.42550  0.19110  1.0000
  H   H41       1.0  0.51808  0.47022  0.19245  1.0000
  H   H42       1.0  0.53925  0.72897  0.26831  1.0000
  H   H43       1.0  0.54544  0.77236  0.27488  1.0000
  C   C72       1.0  0.64296  0.14917  0.25111  1.0000
  C   C73       1.0  0.66919  0.17000  0.25017  1.0000
  C   C74       1.0  0.74125  0.24606  0.29707  1.0000
  C   C75       1.0  0.71591  0.22377  0.29336  1.0000
  C   C76       1.0  0.50928  0.14582  0.25952  1.0000
  C   C77       1.0  0.50340  0.16633  0.26207  1.0000
  C   C78       1.0  0.47765  0.19973  0.29203  1.0000
  C   C79       1.0  0.47401  0.22172  0.29287  1.0000
  C   C80       1.0  0.40610  0.96308  0.25045  1.0000
  C   C81       1.0  0.43244  0.98367  0.25143  1.0000
  C   C82       1.0  0.35875  0.90969  0.29390  1.0000
  C   C83       1.0  0.33319  0.88773  0.29748  1.0000
  C   C84       1.0  0.56579  0.98681  0.25935  1.0000
  C   C85       1.0  0.57136  0.96609  0.26189  1.0000
  C   C86       1.0  0.59935  0.90948  0.29199  1.0000
  C   C87       1.0  0.59627  0.93180  0.29122  1.0000
  H   H44       1.0  0.61331  0.90939  0.25138  1.0000
  H   H45       1.0  0.60808  0.94720  0.25013  1.0000
  H   H46       1.0  0.57270  0.95818  0.20266  1.0000
  H   H47       1.0  0.56355  0.99362  0.19877  1.0000
  H   H48       1.0  0.44334  0.98800  0.19416  1.0000
  H   H49       1.0  0.39846  0.95312  0.19196  1.0000
  H   H50       1.0  0.51133  0.13902  0.19893  1.0000
  H   H51       1.0  0.50165  0.17410  0.20283  1.0000
  H   H52       1.0  0.45971  0.22146  0.25276  1.0000
  H   H53       1.0  0.46586  0.18422  0.25138  1.0000
  H   H54       1.0  0.70091  0.22586  0.26710  1.0000
  H   H55       1.0  0.74395  0.26361  0.27297  1.0000
  H   H56       1.0  0.67670  0.18001  0.19160  1.0000
  H   H57       1.0  0.63199  0.14478  0.19379  1.0000
  H   H58       1.0  0.37354  0.90724  0.26828  1.0000
  H   H59       1.0  0.33013  0.87004  0.27393  1.0000
  C   C88       1.0  0.24760  0.51549  0.26085  1.0000
  C   C89       1.0  0.27148  0.51534  0.26247  1.0000
  H   H60       1.0  0.23949  0.51547  0.20010  1.0000
  H   H61       1.0  0.28014  0.51568  0.20287  1.0000
  C   C90       1.0  0.58691  0.82902  0.26347  1.0000
  C   C91       1.0  0.58705  0.85303  0.26506  1.0000
  H   H62       1.0  0.58693  0.82103  0.20273  1.0000
  H   H63       1.0  0.58674  0.86149  0.20546  1.0000
  C   C92       1.0  0.23796  0.81824  0.34404  1.0000
  C   C93       1.0  0.28676  0.86702  0.34173  1.0000
  C   C94       1.0  0.27350  0.85490  0.26147  1.0000
  C   C95       1.0  0.24950  0.83100  0.26261  1.0000
  H   H64       1.0  0.28158  0.86308  0.20089  1.0000
  H   H65       1.0  0.24114  0.82242  0.20284  1.0000
  C   C96       1.0  0.82248  0.61794  0.26128  1.0000
  C   C97       1.0  0.79830  0.61747  0.26287  1.0000
  H   H66       1.0  0.83071  0.61843  0.20054  1.0000
  H   H67       1.0  0.78956  0.61720  0.20326  1.0000
  C   C98       1.0  0.48447  0.30145  0.26394  1.0000
  C   C99       1.0  0.48494  0.27773  0.26554  1.0000
  H   H68       1.0  0.48399  0.30931  0.20321  1.0000
  H   H69       1.0  0.48521  0.26939  0.20592  1.0000
  C   C100      1.0  0.83588  0.31698  0.34441  1.0000
  C   C101      1.0  0.78771  0.26759  0.34216  1.0000
  C   C102      1.0  0.80084  0.27987  0.26193  1.0000
  C   C103      1.0  0.82456  0.30406  0.26303  1.0000
  H   H70       1.0  0.79289  0.27157  0.20136  1.0000
  H   H71       1.0  0.83281  0.31273  0.20325  1.0000
  C   C104      1.0  0.97837  0.52035  0.33399  1.0000
  C   C105      1.0  0.94001  0.60770  0.40405  1.0000
  C   C106      1.0  0.96063  0.60198  0.40495  1.0000
  C   C107      1.0  0.90470  0.63121  0.36447  1.0000
  C   C108      1.0  0.88246  0.63442  0.36784  1.0000
  C   C109      1.0  0.85789  0.61470  0.33445  1.0000
  C   C110      1.0  0.93652  0.43545  0.41981  1.0000
  C   C111      1.0  0.95715  0.46177  0.41729  1.0000
  C   C112      1.0  0.85981  0.36279  0.39989  1.0000
  C   C113      1.0  0.88179  0.38836  0.39888  1.0000
  C   C114      1.0  0.11121  0.53389  0.40492  1.0000
  C   C115      1.0  0.13161  0.52785  0.40401  1.0000
  C   C116      1.0  0.18792  0.49975  0.36683  1.0000
  C   C117      1.0  0.16602  0.50351  0.36363  1.0000
  C   C118      1.0  0.11495  0.67446  0.41717  1.0000
  C   C119      1.0  0.13579  0.70067  0.41970  1.0000
  C   C120      1.0  0.19090  0.74713  0.39939  1.0000
  C   C121      1.0  0.21321  0.77249  0.40037  1.0000
  H   H72       1.0  0.22875  0.77567  0.44022  1.0000
  H   H73       1.0  0.19105  0.73288  0.43866  1.0000
  H   H74       1.0  0.14274  0.70921  0.48071  1.0000
  H   H75       1.0  0.10755  0.66453  0.47597  1.0000
  H   H76       1.0  0.10146  0.53208  0.46344  1.0000
  H   H77       1.0  0.13634  0.52207  0.46247  1.0000
  H   H78       1.0  0.93576  0.53983  0.34088  1.0000
  H   H79       1.0  0.96446  0.47169  0.47607  1.0000
  H   H80       1.0  0.92963  0.42685  0.48082  1.0000
  H   H81       1.0  0.88130  0.40244  0.43764  1.0000
  H   H82       1.0  0.84416  0.35927  0.43933  1.0000
  H   H83       1.0  0.97036  0.60362  0.46363  1.0000
  H   H84       1.0  0.93511  0.61310  0.46266  1.0000
  H   H85       1.0  0.88433  0.65121  0.39541  1.0000
  H   H86       1.0  0.92217  0.64582  0.38971  1.0000
  H   H87       1.0  0.14842  0.48902  0.38830  1.0000
  H   H88       1.0  0.18570  0.48269  0.39376  1.0000
  C   C122      1.0  0.45571  0.49988  0.32494  1.0000
  C   C123      1.0  0.46925  0.48624  0.32343  1.0000
  C   C124      1.0  0.49616  0.50443  0.32938  1.0000
  N   N5        1.0  0.49794  0.52837  0.33328  1.0000
  C   C125      1.0  0.47406  0.52673  0.33101  1.0000
  C   C126      1.0  0.46772  0.54716  0.33484  1.0000
  C   C127      1.0  0.48647  0.57449  0.33652  1.0000
  N   N6        1.0  0.51298  0.58612  0.33253  1.0000
  C   C128      1.0  0.55203  0.63135  0.33131  1.0000
  C   C129      1.0  0.57236  0.62484  0.32938  1.0000
  N   N7        1.0  0.57058  0.60090  0.33330  1.0000
  C   C130      1.0  0.59446  0.60253  0.33107  1.0000
  C   C131      1.0  0.61281  0.62940  0.32508  1.0000
  C   C132      1.0  0.59927  0.64304  0.32350  1.0000
  C   C133      1.0  0.60081  0.58211  0.33486  1.0000
  C   C134      1.0  0.58207  0.55477  0.33656  1.0000
  N   N8        1.0  0.55555  0.54315  0.33266  1.0000
  C   C135      1.0  0.54385  0.51661  0.33468  1.0000
  C   C136      1.0  0.56422  0.51084  0.34022  1.0000
  C   C137      1.0  0.58776  0.53435  0.34117  1.0000
  C   C138      1.0  0.51650  0.49793  0.33139  1.0000
  C   C139      1.0  0.50910  0.47078  0.32938  1.0000
  C   C140      1.0  0.49784  0.41750  0.32799  1.0000
  C   C141      1.0  0.49472  0.42893  0.40681  1.0000
  C   C142      1.0  0.50043  0.45527  0.40772  1.0000
  C   C143      1.0  0.49397  0.39148  0.32887  1.0000
  C   C144      1.0  0.47119  0.37019  0.36715  1.0000
  C   C145      1.0  0.46799  0.34474  0.37051  1.0000
  C   C146      1.0  0.48772  0.33996  0.33711  1.0000
  C   C147      1.0  0.62791  0.58943  0.33704  1.0000
  C   C148      1.0  0.68132  0.60108  0.34182  1.0000
  C   C149      1.0  0.66704  0.59762  0.42168  1.0000
  C   C150      1.0  0.64072  0.59193  0.41947  1.0000
  C   C151      1.0  0.70757  0.60549  0.34415  1.0000
  C   C152      1.0  0.73971  0.59366  0.40051  1.0000
  C   C153      1.0  0.71413  0.59006  0.39986  1.0000
  C   C154      1.0  0.55945  0.65851  0.32947  1.0000
  C   C155      1.0  0.56852  0.67394  0.40769  1.0000
  C   C156      1.0  0.57456  0.70039  0.40677  1.0000
  C   C157      1.0  0.57137  0.71200  0.32809  1.0000
  C   C158      1.0  0.57574  0.73820  0.32888  1.0000
  C   C159      1.0  0.58310  0.79014  0.33681  1.0000
  C   C160      1.0  0.60264  0.78488  0.36953  1.0000
  C   C161      1.0  0.59890  0.75922  0.36635  1.0000
  C   C162      1.0  0.44063  0.53985  0.33698  1.0000
  C   C163      1.0  0.42790  0.53714  0.41941  1.0000
  C   C164      1.0  0.38743  0.52885  0.34177  1.0000
  C   C165      1.0  0.40169  0.53177  0.42163  1.0000
  C   C166      1.0  0.36136  0.52493  0.34413  1.0000
  C   C167      1.0  0.35522  0.54042  0.40047  1.0000
  C   C168      1.0  0.32986  0.53737  0.40102  1.0000
  H   H89       1.0  0.32663  0.54965  0.44064  1.0000
  H   H90       1.0  0.36943  0.55477  0.43977  1.0000
  H   H91       1.0  0.39311  0.53010  0.48253  1.0000
  H   H92       1.0  0.43780  0.53961  0.47832  1.0000
  H   H93       1.0  0.43567  0.49127  0.32192  1.0000
  H   H94       1.0  0.46051  0.46621  0.31931  1.0000
  H   H95       1.0  0.51424  0.54461  0.34054  1.0000
  H   H96       1.0  0.55428  0.58464  0.34017  1.0000
  H   H97       1.0  0.50597  0.63659  0.34344  1.0000
  H   H98       1.0  0.57029  0.66588  0.46625  1.0000
  H   H99       1.0  0.58031  0.71078  0.46523  1.0000
  H   H100      1.0  0.63284  0.63802  0.32211  1.0000
  H   H101      1.0  0.56259  0.49267  0.34336  1.0000
  H   H102      1.0  0.60591  0.53593  0.34464  1.0000
  H   H103      1.0  0.63084  0.58917  0.47836  1.0000
  H   H104      1.0  0.67569  0.59918  0.48257  1.0000
  H   H105      1.0  0.70009  0.57540  0.43876  1.0000
  H   H106      1.0  0.74327  0.58144  0.43976  1.0000
  H   H107      1.0  0.49881  0.46324  0.46644  1.0000
  H   H108      1.0  0.48931  0.41850  0.46539  1.0000
  H   H109      1.0  0.45121  0.32975  0.39809  1.0000
  H   H110      1.0  0.45659  0.37299  0.39240  1.0000
  H   H111      1.0  0.61339  0.75607  0.39106  1.0000
  H   H112      1.0  0.61969  0.79966  0.39649  1.0000
  C   C169      1.0  0.60255  0.05263  0.32735  1.0000
  C   C170      1.0  0.61619  0.07982  0.32566  1.0000
  C   C171      1.0  0.59799  0.08852  0.33149  1.0000
  N   N9        1.0  0.57406  0.06635  0.33555  1.0000
  C   C172      1.0  0.57570  0.04411  0.33336  1.0000
  C   C173      1.0  0.55527  0.01734  0.33717  1.0000
  C   C174      1.0  0.52794  0.00875  0.33878  1.0000
  N   N10       1.0  0.51631  0.02364  0.33475  1.0000
  C   C175      1.0  0.48976  0.00879  0.33667  1.0000
  C   C176      1.0  0.48400  0.98266  0.34225  1.0000
  C   C177      1.0  0.50751  0.98263  0.34337  1.0000
  C   C178      1.0  0.47108  0.01745  0.33325  1.0000
  C   C179      1.0  0.47759  0.04430  0.33135  1.0000
  N   N11       1.0  0.50152  0.06645  0.33552  1.0000
  C   C180      1.0  0.49988  0.08870  0.33332  1.0000
  C   C181      1.0  0.47302  0.08019  0.32703  1.0000
  C   C182      1.0  0.45938  0.05301  0.32527  1.0000
  C   C183      1.0  0.52030  0.11546  0.33729  1.0000
  C   C184      1.0  0.54763  0.12406  0.33888  1.0000
  N   N12       1.0  0.55925  0.10916  0.33487  1.0000
  C   C185      1.0  0.58580  0.12401  0.33669  1.0000
  C   C186      1.0  0.59157  0.15014  0.34224  1.0000
  C   C187      1.0  0.56806  0.15017  0.34340  1.0000
  C   C188      1.0  0.60448  0.11535  0.33325  1.0000
  C   C189      1.0  0.63163  0.13511  0.33079  1.0000
  C   C190      1.0  0.68490  0.17714  0.32840  1.0000
  C   C191      1.0  0.67358  0.16254  0.40749  1.0000
  C   C192      1.0  0.64724  0.14189  0.40890  1.0000
  C   C193      1.0  0.71092  0.19929  0.32875  1.0000
  C   C194      1.0  0.73227  0.19776  0.36671  1.0000
  C   C195      1.0  0.75772  0.22001  0.36950  1.0000
  C   C196      1.0  0.76245  0.24454  0.33589  1.0000
  C   C197      1.0  0.51297  0.13523  0.33952  1.0000
  C   C198      1.0  0.50131  0.17698  0.34441  1.0000
  C   C199      1.0  0.50478  0.16599  0.42424  1.0000
  C   C200      1.0  0.51047  0.14536  0.42197  1.0000
  C   C201      1.0  0.49691  0.19882  0.34679  1.0000
  C   C202      1.0  0.48951  0.24365  0.34839  1.0000
  C   C203      1.0  0.50872  0.24266  0.40327  1.0000
  C   C204      1.0  0.51232  0.22068  0.40259  1.0000
  C   C205      1.0  0.44392  0.99772  0.33093  1.0000
  C   C206      1.0  0.42836  0.99111  0.40886  1.0000
  C   C207      1.0  0.40192  0.97070  0.40742  1.0000
  C   C208      1.0  0.39044  0.95615  0.32848  1.0000
  C   C209      1.0  0.36422  0.93433  0.32871  1.0000
  C   C210      1.0  0.31226  0.88975  0.33554  1.0000
  C   C211      1.0  0.31748  0.91446  0.36847  1.0000
  C   C212      1.0  0.34315  0.93636  0.36583  1.0000
  C   C213      1.0  0.56258  0.99755  0.33936  1.0000
  C   C214      1.0  0.56528  0.98738  0.42182  1.0000
  C   C215      1.0  0.57359  0.95536  0.34425  1.0000
  C   C216      1.0  0.57066  0.96653  0.42408  1.0000
  C   C217      1.0  0.57750  0.93319  0.34664  1.0000
  C   C218      1.0  0.56200  0.91144  0.40300  1.0000
  C   C219      1.0  0.56503  0.88912  0.40353  1.0000
  C   C220      1.0  0.58375  0.88767  0.34805  1.0000
  H   H113      1.0  0.55275  0.87354  0.44319  1.0000
  H   H114      1.0  0.54765  0.91124  0.44227  1.0000
  H   H115      1.0  0.57231  0.95950  0.48500  1.0000
  H   H116      1.0  0.56281  0.99469  0.48070  1.0000
  H   H117      1.0  0.61117  0.04121  0.32436  1.0000
  H   H118      1.0  0.63622  0.09112  0.32146  1.0000
  H   H119      1.0  0.55781  0.06640  0.34238  1.0000
  H   H120      1.0  0.51776  0.06640  0.34296  1.0000
  H   H121      1.0  0.50910  0.96607  0.34696  1.0000
  H   H122      1.0  0.46584  0.96613  0.34540  1.0000
  H   H123      1.0  0.43633  0.00077  0.46760  1.0000
  H   H124      1.0  0.39143  0.96590  0.46568  1.0000
  H   H125      1.0  0.43935  0.04172  0.32087  1.0000
  H   H126      1.0  0.46440  0.09161  0.32393  1.0000
  H   H127      1.0  0.60974  0.16667  0.34524  1.0000
  H   H128      1.0  0.56647  0.16673  0.34690  1.0000
  H   H129      1.0  0.51322  0.13811  0.48084  1.0000
  H   H130      1.0  0.50322  0.17294  0.48515  1.0000
  H   H131      1.0  0.52700  0.22123  0.44138  1.0000
  H   H132      1.0  0.52097  0.25837  0.44242  1.0000
  H   H133      1.0  0.63937  0.13224  0.46776  1.0000
  H   H134      1.0  0.68410  0.16749  0.46589  1.0000
  H   H135      1.0  0.77276  0.21818  0.39683  1.0000
  H   H136      1.0  0.72950  0.18033  0.39207  1.0000
  H   H137      1.0  0.34627  0.95393  0.39070  1.0000
  H   H138      1.0  0.30266  0.91665  0.39520  1.0000
  C   C221      1.0  0.28416  0.51646  0.34413  1.0000
  C   C222      1.0  0.27161  0.51693  0.42412  1.0000
  C   C223      1.0  0.24752  0.51709  0.42414  1.0000
  C   C224      1.0  0.23538  0.51648  0.34084  1.0000
  H   H139      1.0  0.28043  0.51751  0.48390  1.0000
  C   C225      1.0  0.23641  0.51926  0.51092  1.0000
  H   H140      1.0  0.24904  0.52132  0.56772  1.0000
  H   H141      1.0  0.21737  0.50166  0.52228  1.0000
  H   H142      1.0  0.23386  0.53647  0.51006  1.0000
  C   C226      1.0  0.58594  0.86444  0.34672  1.0000
  C   C227      1.0  0.58545  0.85126  0.42672  1.0000
  C   C228      1.0  0.58529  0.82701  0.42676  1.0000
  C   C229      1.0  0.58587  0.81563  0.34347  1.0000
  H   H143      1.0  0.58487  0.85938  0.48649  1.0000
  C   C230      1.0  0.58310  0.81355  0.51356  1.0000
  H   H144      1.0  0.58104  0.82401  0.57033  1.0000
  H   H145      1.0  0.60069  0.81207  0.52495  1.0000
  H   H146      1.0  0.56588  0.79380  0.51269  1.0000
  C   C231      1.0  0.25102  0.83071  0.42429  1.0000
  C   C232      1.0  0.27526  0.85480  0.42480  1.0000
  H   H147      1.0  0.24280  0.82183  0.48390  1.0000
  C   C233      1.0  0.28858  0.86582  0.51184  1.0000
  H   H148      1.0  0.27803  0.85312  0.56841  1.0000
  H   H149      1.0  0.29002  0.88484  0.52332  1.0000
  H   H150      1.0  0.30834  0.86837  0.51131  1.0000
  C   C234      1.0  0.78547  0.61569  0.34447  1.0000
  C   C235      1.0  0.79817  0.61517  0.42446  1.0000
  C   C236      1.0  0.82256  0.61563  0.42450  1.0000
  C   C237      1.0  0.83485  0.61690  0.34124  1.0000
  H   H151      1.0  0.78924  0.61411  0.48419  1.0000
  C   C238      1.0  0.83383  0.61336  0.51120  1.0000
  H   H152      1.0  0.82109  0.61077  0.56791  1.0000
  H   H153      1.0  0.85267  0.63115  0.52321  1.0000
  H   H154      1.0  0.83683  0.59643  0.50973  1.0000
  C   C239      1.0  0.48673  0.26653  0.34715  1.0000
  C   C240      1.0  0.48725  0.27958  0.42713  1.0000
  C   C241      1.0  0.48680  0.30352  0.42716  1.0000
  C   C242      1.0  0.48552  0.31471  0.34391  1.0000
  H   H155      1.0  0.48831  0.27160  0.48687  1.0000
  C   C243      1.0  0.48906  0.31689  0.51386  1.0000
  H   H156      1.0  0.49166  0.30662  0.57057  1.0000
  H   H157      1.0  0.47127  0.31791  0.52587  1.0000
  H   H158      1.0  0.50599  0.33682  0.51239  1.0000
  C   C244      1.0  0.82296  0.30436  0.42466  1.0000
  C   C245      1.0  0.79904  0.27997  0.42518  1.0000
  H   H159      1.0  0.83105  0.31335  0.48423  1.0000
  C   C246      1.0  0.78581  0.26878  0.51216  1.0000
  H   H160      1.0  0.79616  0.28159  0.56864  1.0000
  H   H161      1.0  0.78481  0.24996  0.52426  1.0000
  H   H162      1.0  0.76588  0.26578  0.51103  1.0000
