data_image0
_chemical_formula_structural       C7H2C2H3CH2NHC3H2C2H3CH2NHC3H2CH3CH2NHC5H3C2O3C5H3C2O3C3NC2NH2CH3NHC3NC2NH2CH3NHC3NC2NCH2CH3NHC7H2C2H3CH2NHC3H2C2H3CH2NHC3H2CH3CH2NHC5H3C2O3C5H3C2O3C3NC2NH2CH3NHC3NC2NH2CH3NHC3NC2NCH2CH3NHC7H2C2H3CH2NHC3H2C2H3CH2NHC3H2CH3CH2NHC5H3C2O3C5H3C2O3C3NC2NH2CH3NHC3NC2NH2CH3NHC3NC2NCH2CH3NHC7H2C2H3CH2NHC3H2C2H3CH2NHC3H2CH3CH2NHC5H3C2O3C5H3C2O3C3NC2NH2CH3NHC3NC2NH2CH3NHC3NC2NCH2CH3NH
_chemical_formula_sum              "C216 H192 N48 O24"
_cell_length_a       43.9294
_cell_length_b       43.9294
_cell_length_c       15.0701
_cell_angle_alpha    90
_cell_angle_beta     90
_cell_angle_gamma    120

_space_group_name_H-M_alt    "P 1"
_space_group_IT_number       1

loop_
  _space_group_symop_operation_xyz
  'x, y, z'

loop_
  _atom_site_type_symbol
  _atom_site_label
  _atom_site_symmetry_multiplicity
  _atom_site_fract_x
  _atom_site_fract_y
  _atom_site_fract_z
  _atom_site_occupancy
  C   C1        1.0  0.19417  0.32835  0.31696  1.0000
  C   C2        1.0  0.22433  0.32511  0.32762  1.0000
  C   C3        1.0  0.30935  0.18125  0.37117  1.0000
  C   C4        1.0  0.28951  0.19823  0.35984  1.0000
  C   C5        1.0  0.24813  0.28602  0.31874  1.0000
  C   C6        1.0  0.28014  0.25544  0.27985  1.0000
  C   C7        1.0  0.26191  0.27269  0.25472  1.0000
  H   H1        1.0  0.25940  0.27624  0.18875  1.0000
  H   H2        1.0  0.29085  0.24725  0.23188  1.0000
  C   C8        1.0  0.24180  0.23574  0.00056  1.0000
  C   C9        1.0  0.27441  0.23506  0.03668  1.0000
  H   H3        1.0  0.23178  0.24535  0.05314  1.0000
  H   H4        1.0  0.29489  0.26151  0.05533  1.0000
  H   H5        1.0  0.26690  0.21805  0.09486  1.0000
  C   C10       1.0  0.22887  0.31249  0.01890  1.0000
  H   H6        1.0  0.24585  0.30707  0.06077  1.0000
  H   H7        1.0  0.21065  0.31587  0.06150  1.0000
  N   N1        1.0  0.22654  0.29803  0.29110  1.0000
  H   H8        1.0  0.21368  0.28855  0.23561  1.0000
  C   C11       1.0  0.20810  0.46092  0.31882  1.0000
  C   C12       1.0  0.23870  0.02352  0.27997  1.0000
  C   C13       1.0  0.22143  0.48804  0.25484  1.0000
  H   H9        1.0  0.21793  0.48198  0.18886  1.0000
  H   H10       1.0  0.24694  0.04242  0.23201  1.0000
  C   C14       1.0  0.25836  0.00477  0.00067  1.0000
  C   C15       1.0  0.25914  0.03811  0.03683  1.0000
  H   H11       1.0  0.24872  0.98514  0.05325  1.0000
  H   H12       1.0  0.23272  0.03221  0.05548  1.0000
  H   H13       1.0  0.27616  0.04757  0.09502  1.0000
  C   C16       1.0  0.18162  0.41507  0.01902  1.0000
  H   H14       1.0  0.18705  0.43744  0.06100  1.0000
  H   H15       1.0  0.17828  0.39346  0.06152  1.0000
  N   N2        1.0  0.19613  0.42732  0.29126  1.0000
  H   H16       1.0  0.20564  0.42395  0.23581  1.0000
  C   C17       1.0  0.03323  0.24610  0.31806  1.0000
  C   C18       1.0  0.47065  0.21403  0.27926  1.0000
  C   C19       1.0  0.00612  0.23226  0.25407  1.0000
  H   H17       1.0  0.01217  0.23478  0.18809  1.0000
  H   H18       1.0  0.45173  0.20329  0.23133  1.0000
  C   C20       1.0  0.45612  0.21987  0.03616  1.0000
  H   H19       1.0  0.50903  0.26253  0.05247  1.0000
  H   H20       1.0  0.46211  0.19940  0.05477  1.0000
  H   H21       1.0  0.44664  0.22739  0.09438  1.0000
  C   C21       1.0  0.07912  0.26554  0.01821  1.0000
  H   H22       1.0  0.05674  0.24858  0.06019  1.0000
  H   H23       1.0  0.10072  0.28381  0.06072  1.0000
  N   N3        1.0  0.06683  0.26769  0.29050  1.0000
  H   H24       1.0  0.07025  0.28052  0.23494  1.0000
  C   C22       1.0  0.16579  0.36463  0.31699  1.0000
  C   C23       1.0  0.13265  0.33363  0.31690  1.0000
  C   C24       1.0  0.12951  0.29997  0.31661  1.0000
  C   C25       1.0  0.16051  0.29783  0.31685  1.0000
  C   C26       1.0  0.19631  0.36150  0.31713  1.0000
  H   H25       1.0  0.15845  0.27359  0.32095  1.0000
  H   H26       1.0  0.22055  0.38368  0.32162  1.0000
  H   H27       1.0  0.11046  0.33568  0.32103  1.0000
  C   C27       1.0  0.16901  0.39802  0.32768  1.0000
  C   C28       1.0  0.09610  0.26980  0.32693  1.0000
  O   O1        1.0  0.25325  0.35124  0.36791  1.0000
  O   O2        1.0  0.14286  0.40082  0.36779  1.0000
  O   O3        1.0  0.09325  0.24082  0.36702  1.0000
  C   C29       1.0  0.31294  0.12693  0.37113  1.0000
  C   C30       1.0  0.35000  0.14770  0.37129  1.0000
  C   C31       1.0  0.36727  0.18483  0.37085  1.0000
  C   C32       1.0  0.34648  0.20111  0.37125  1.0000
  C   C33       1.0  0.29307  0.14419  0.37156  1.0000
  H   H28       1.0  0.35865  0.22795  0.36697  1.0000
  H   H29       1.0  0.26623  0.12953  0.36750  1.0000
  H   H30       1.0  0.36465  0.13553  0.36693  1.0000
  C   C34       1.0  0.29594  0.09011  0.35977  1.0000
  C   C35       1.0  0.40406  0.20464  0.35921  1.0000
  O   O4        1.0  0.25708  0.17987  0.32256  1.0000
  O   O5        1.0  0.31426  0.07604  0.32226  1.0000
  O   O6        1.0  0.41812  0.23706  0.32188  1.0000
  C   C36       1.0  0.25177  0.28005  0.40974  1.0000
  C   C37       1.0  0.26958  0.26194  0.43461  1.0000
  C   C38       1.0  0.28414  0.24962  0.37002  1.0000
  N   N4        1.0  0.26598  0.25041  0.51941  1.0000
  C   C39       1.0  0.24825  0.25646  0.58443  1.0000
  C   C40       1.0  0.23107  0.27543  0.56043  1.0000
  N   N5        1.0  0.23342  0.28558  0.47419  1.0000
  H   H31       1.0  0.22145  0.20868  0.65291  1.0000
  H   H32       1.0  0.28497  0.22458  0.65405  1.0000
  C   C41       1.0  0.20795  0.28215  0.61948  1.0000
  H   H33       1.0  0.18999  0.25821  0.65554  1.0000
  H   H34       1.0  0.19154  0.28921  0.57972  1.0000
  H   H35       1.0  0.24508  0.33703  0.64972  1.0000
  N   N6        1.0  0.30025  0.23107  0.39189  1.0000
  H   H36       1.0  0.31371  0.23731  0.44704  1.0000
  C   C42       1.0  0.21401  0.47052  0.40982  1.0000
  C   C43       1.0  0.23216  0.00646  0.43477  1.0000
  C   C44       1.0  0.24452  0.03332  0.37015  1.0000
  N   N7        1.0  0.24369  0.01434  0.51957  1.0000
  C   C45       1.0  0.23761  0.99054  0.58457  1.0000
  C   C46       1.0  0.21859  0.45440  0.56055  1.0000
  N   N8        1.0  0.20848  0.44664  0.47428  1.0000
  H   H37       1.0  0.28540  0.01142  0.65298  1.0000
  H   H38       1.0  0.26967  0.05915  0.65421  1.0000
  C   C47       1.0  0.21193  0.42454  0.61946  1.0000
  H   H39       1.0  0.23590  0.43052  0.65539  1.0000
  H   H40       1.0  0.20486  0.40109  0.57960  1.0000
  H   H41       1.0  0.15706  0.40675  0.64997  1.0000
  N   N9        1.0  0.26315  0.06796  0.39207  1.0000
  H   H42       1.0  0.25710  0.07530  0.44734  1.0000
  C   C48       1.0  0.02365  0.24244  0.40907  1.0000
  C   C49       1.0  0.48773  0.22465  0.43406  1.0000
  C   C50       1.0  0.46085  0.21006  0.36945  1.0000
  N   N10       1.0  0.47981  0.22827  0.51884  1.0000
  C   C51       1.0  0.50363  0.24603  0.58375  1.0000
  C   C52       1.0  0.03977  0.26318  0.55978  1.0000
  N   N11       1.0  0.04754  0.26082  0.47352  1.0000
  C   C53       1.0  0.48938  0.25249  0.66660  1.0000
  H   H43       1.0  0.48264  0.27282  0.65231  1.0000
  H   H44       1.0  0.43506  0.20930  0.65360  1.0000
  C   C54       1.0  0.06962  0.28638  0.61869  1.0000
  H   H45       1.0  0.06363  0.30435  0.65466  1.0000
  H   H46       1.0  0.09307  0.30278  0.57883  1.0000
  H   H47       1.0  0.08744  0.24932  0.64912  1.0000
  N   N12       1.0  0.42621  0.19397  0.39139  1.0000
  H   H48       1.0  0.41900  0.18054  0.44659  1.0000
  C   C55       1.0  0.19417  0.82835  0.31696  1.0000
  C   C56       1.0  0.22433  0.82511  0.32762  1.0000
  C   C57       1.0  0.30935  0.68125  0.37117  1.0000
  C   C58       1.0  0.28951  0.69823  0.35984  1.0000
  C   C59       1.0  0.24812  0.78601  0.31874  1.0000
  C   C60       1.0  0.28014  0.75544  0.27985  1.0000
  C   C61       1.0  0.26191  0.77269  0.25472  1.0000
  H   H49       1.0  0.25940  0.77624  0.18875  1.0000
  H   H50       1.0  0.29085  0.74725  0.23188  1.0000
  C   C62       1.0  0.24180  0.73574  0.00056  1.0000
  C   C63       1.0  0.27441  0.73506  0.03668  1.0000
  H   H51       1.0  0.23178  0.74535  0.05314  1.0000
  H   H52       1.0  0.29489  0.76151  0.05533  1.0000
  H   H53       1.0  0.26690  0.71805  0.09486  1.0000
  C   C64       1.0  0.22886  0.81249  0.01890  1.0000
  H   H54       1.0  0.24585  0.80707  0.06077  1.0000
  H   H55       1.0  0.21065  0.81587  0.06150  1.0000
  N   N13       1.0  0.22654  0.79803  0.29110  1.0000
  H   H56       1.0  0.21368  0.78855  0.23561  1.0000
  C   C65       1.0  0.20810  0.96092  0.31882  1.0000
  C   C66       1.0  0.23870  0.52351  0.27997  1.0000
  C   C67       1.0  0.22143  0.98804  0.25484  1.0000
  H   H57       1.0  0.21793  0.98198  0.18886  1.0000
  H   H58       1.0  0.24694  0.54243  0.23201  1.0000
  C   C68       1.0  0.25836  0.50478  0.00067  1.0000
  C   C69       1.0  0.25914  0.53811  0.03683  1.0000
  H   H59       1.0  0.24872  0.48515  0.05325  1.0000
  H   H60       1.0  0.23272  0.53221  0.05548  1.0000
  H   H61       1.0  0.27616  0.54757  0.09502  1.0000
  C   C70       1.0  0.18162  0.91507  0.01902  1.0000
  H   H62       1.0  0.18705  0.93744  0.06100  1.0000
  H   H63       1.0  0.17828  0.89346  0.06152  1.0000
  N   N14       1.0  0.19613  0.92732  0.29126  1.0000
  H   H64       1.0  0.20564  0.92395  0.23581  1.0000
  C   C71       1.0  0.03323  0.74610  0.31806  1.0000
  C   C72       1.0  0.47065  0.71403  0.27926  1.0000
  C   C73       1.0  0.00612  0.73227  0.25407  1.0000
  H   H65       1.0  0.01217  0.73478  0.18809  1.0000
  H   H66       1.0  0.45173  0.70329  0.23133  1.0000
  C   C74       1.0  0.45612  0.71987  0.03616  1.0000
  H   H67       1.0  0.50903  0.76253  0.05247  1.0000
  H   H68       1.0  0.46211  0.69940  0.05477  1.0000
  H   H69       1.0  0.44664  0.72739  0.09438  1.0000
  C   C75       1.0  0.07912  0.76555  0.01821  1.0000
  H   H70       1.0  0.05674  0.74858  0.06019  1.0000
  H   H71       1.0  0.10072  0.78381  0.06072  1.0000
  N   N15       1.0  0.06683  0.76769  0.29050  1.0000
  H   H72       1.0  0.07025  0.78052  0.23494  1.0000
  C   C76       1.0  0.16579  0.86463  0.31699  1.0000
  C   C77       1.0  0.13265  0.83363  0.31690  1.0000
  C   C78       1.0  0.12950  0.79997  0.31661  1.0000
  C   C79       1.0  0.16051  0.79783  0.31685  1.0000
  C   C80       1.0  0.19631  0.86150  0.31713  1.0000
  H   H73       1.0  0.15845  0.77359  0.32095  1.0000
  H   H74       1.0  0.22055  0.88368  0.32162  1.0000
  H   H75       1.0  0.11046  0.83568  0.32103  1.0000
  C   C81       1.0  0.16902  0.89802  0.32768  1.0000
  C   C82       1.0  0.09610  0.76980  0.32693  1.0000
  O   O7        1.0  0.25325  0.85124  0.36791  1.0000
  O   O8        1.0  0.14286  0.90082  0.36779  1.0000
  O   O9        1.0  0.09325  0.74082  0.36702  1.0000
  C   C83       1.0  0.31294  0.62693  0.37113  1.0000
  C   C84       1.0  0.35000  0.64770  0.37129  1.0000
  C   C85       1.0  0.36727  0.68483  0.37085  1.0000
  C   C86       1.0  0.34648  0.70111  0.37125  1.0000
  C   C87       1.0  0.29307  0.64419  0.37156  1.0000
  H   H76       1.0  0.35865  0.72795  0.36697  1.0000
  H   H77       1.0  0.26623  0.62952  0.36750  1.0000
  H   H78       1.0  0.36465  0.63553  0.36693  1.0000
  C   C88       1.0  0.29594  0.59011  0.35977  1.0000
  C   C89       1.0  0.40406  0.70464  0.35921  1.0000
  O   O10       1.0  0.25708  0.67987  0.32256  1.0000
  O   O11       1.0  0.31426  0.57604  0.32226  1.0000
  O   O12       1.0  0.41812  0.73706  0.32188  1.0000
  C   C90       1.0  0.25177  0.78005  0.40974  1.0000
  C   C91       1.0  0.26958  0.76194  0.43461  1.0000
  C   C92       1.0  0.28414  0.74962  0.37002  1.0000
  N   N16       1.0  0.26598  0.75040  0.51941  1.0000
  C   C93       1.0  0.24825  0.75646  0.58443  1.0000
  C   C94       1.0  0.23107  0.77543  0.56043  1.0000
  N   N17       1.0  0.23342  0.78558  0.47419  1.0000
  H   H79       1.0  0.22145  0.70868  0.65291  1.0000
  H   H80       1.0  0.28497  0.72458  0.65405  1.0000
  C   C95       1.0  0.20795  0.78215  0.61948  1.0000
  H   H81       1.0  0.18999  0.75820  0.65554  1.0000
  H   H82       1.0  0.19154  0.78921  0.57972  1.0000
  H   H83       1.0  0.24508  0.83703  0.64972  1.0000
  N   N18       1.0  0.30025  0.73107  0.39189  1.0000
  H   H84       1.0  0.31371  0.73731  0.44704  1.0000
  C   C96       1.0  0.21401  0.97052  0.40982  1.0000
  C   C97       1.0  0.23215  0.50646  0.43477  1.0000
  C   C98       1.0  0.24452  0.53332  0.37015  1.0000
  N   N19       1.0  0.24369  0.51434  0.51957  1.0000
  C   C99       1.0  0.23761  0.49054  0.58457  1.0000
  C   C100      1.0  0.21859  0.95440  0.56055  1.0000
  N   N20       1.0  0.20848  0.94664  0.47428  1.0000
  H   H85       1.0  0.28540  0.51142  0.65298  1.0000
  H   H86       1.0  0.26967  0.55915  0.65421  1.0000
  C   C101      1.0  0.21193  0.92454  0.61946  1.0000
  H   H87       1.0  0.23590  0.93052  0.65539  1.0000
  H   H88       1.0  0.20485  0.90109  0.57960  1.0000
  H   H89       1.0  0.15706  0.90675  0.64997  1.0000
  N   N21       1.0  0.26315  0.56796  0.39207  1.0000
  H   H90       1.0  0.25710  0.57530  0.44734  1.0000
  C   C102      1.0  0.02365  0.74243  0.40907  1.0000
  C   C103      1.0  0.48773  0.72465  0.43406  1.0000
  C   C104      1.0  0.46085  0.71005  0.36945  1.0000
  N   N22       1.0  0.47981  0.72827  0.51884  1.0000
  C   C105      1.0  0.50363  0.74603  0.58375  1.0000
  C   C106      1.0  0.03977  0.76318  0.55978  1.0000
  N   N23       1.0  0.04754  0.76082  0.47352  1.0000
  C   C107      1.0  0.48938  0.75249  0.66660  1.0000
  H   H91       1.0  0.48264  0.77282  0.65231  1.0000
  H   H92       1.0  0.43506  0.70930  0.65360  1.0000
  C   C108      1.0  0.06962  0.78638  0.61869  1.0000
  H   H93       1.0  0.06363  0.80435  0.65466  1.0000
  H   H94       1.0  0.09307  0.80278  0.57883  1.0000
  H   H95       1.0  0.08744  0.74932  0.64912  1.0000
  N   N24       1.0  0.42620  0.69397  0.39139  1.0000
  H   H96       1.0  0.41900  0.68054  0.44659  1.0000
  C   C109      1.0  0.69417  0.32835  0.31696  1.0000
  C   C110      1.0  0.72433  0.32511  0.32762  1.0000
  C   C111      1.0  0.80935  0.18125  0.37117  1.0000
  C   C112      1.0  0.78951  0.19823  0.35984  1.0000
  C   C113      1.0  0.74813  0.28602  0.31874  1.0000
  C   C114      1.0  0.78014  0.25544  0.27985  1.0000
  C   C115      1.0  0.76191  0.27269  0.25472  1.0000
  H   H97       1.0  0.75940  0.27624  0.18875  1.0000
  H   H98       1.0  0.79085  0.24725  0.23188  1.0000
  C   C116      1.0  0.74180  0.23574  0.00056  1.0000
  C   C117      1.0  0.77441  0.23506  0.03668  1.0000
  H   H99       1.0  0.73178  0.24535  0.05314  1.0000
  H   H100      1.0  0.79489  0.26151  0.05533  1.0000
  H   H101      1.0  0.76690  0.21805  0.09486  1.0000
  C   C118      1.0  0.72886  0.31249  0.01890  1.0000
  H   H102      1.0  0.74585  0.30707  0.06077  1.0000
  H   H103      1.0  0.71065  0.31587  0.06150  1.0000
  N   N25       1.0  0.72654  0.29803  0.29110  1.0000
  H   H104      1.0  0.71368  0.28855  0.23561  1.0000
  C   C119      1.0  0.70810  0.46092  0.31882  1.0000
  C   C120      1.0  0.73870  0.02352  0.27997  1.0000
  C   C121      1.0  0.72143  0.48804  0.25484  1.0000
  H   H105      1.0  0.71793  0.48198  0.18886  1.0000
  H   H106      1.0  0.74694  0.04242  0.23201  1.0000
  C   C122      1.0  0.75836  0.00477  0.00067  1.0000
  C   C123      1.0  0.75914  0.03811  0.03683  1.0000
  H   H107      1.0  0.74872  0.98514  0.05325  1.0000
  H   H108      1.0  0.73272  0.03221  0.05548  1.0000
  H   H109      1.0  0.77616  0.04757  0.09502  1.0000
  C   C124      1.0  0.68162  0.41507  0.01902  1.0000
  H   H110      1.0  0.68705  0.43744  0.06100  1.0000
  H   H111      1.0  0.67828  0.39346  0.06152  1.0000
  N   N26       1.0  0.69613  0.42732  0.29126  1.0000
  H   H112      1.0  0.70564  0.42395  0.23581  1.0000
  C   C125      1.0  0.53323  0.24610  0.31806  1.0000
  C   C126      1.0  0.97065  0.21403  0.27926  1.0000
  C   C127      1.0  0.50612  0.23226  0.25407  1.0000
  H   H113      1.0  0.51217  0.23478  0.18809  1.0000
  H   H114      1.0  0.95173  0.20329  0.23133  1.0000
  C   C128      1.0  0.95612  0.21987  0.03616  1.0000
  H   H115      1.0  0.00903  0.26253  0.05247  1.0000
  H   H116      1.0  0.96211  0.19940  0.05477  1.0000
  H   H117      1.0  0.94664  0.22739  0.09438  1.0000
  C   C129      1.0  0.57912  0.26554  0.01821  1.0000
  H   H118      1.0  0.55675  0.24858  0.06019  1.0000
  H   H119      1.0  0.60072  0.28381  0.06072  1.0000
  N   N27       1.0  0.56683  0.26769  0.29050  1.0000
  H   H120      1.0  0.57025  0.28052  0.23494  1.0000
  C   C130      1.0  0.66579  0.36463  0.31699  1.0000
  C   C131      1.0  0.63265  0.33363  0.31690  1.0000
  C   C132      1.0  0.62950  0.29997  0.31661  1.0000
  C   C133      1.0  0.66051  0.29783  0.31685  1.0000
  C   C134      1.0  0.69631  0.36150  0.31713  1.0000
  H   H121      1.0  0.65845  0.27359  0.32095  1.0000
  H   H122      1.0  0.72055  0.38368  0.32162  1.0000
  H   H123      1.0  0.61046  0.33568  0.32103  1.0000
  C   C135      1.0  0.66902  0.39802  0.32768  1.0000
  C   C136      1.0  0.59610  0.26980  0.32693  1.0000
  O   O13       1.0  0.75325  0.35124  0.36791  1.0000
  O   O14       1.0  0.64286  0.40082  0.36779  1.0000
  O   O15       1.0  0.59325  0.24082  0.36702  1.0000
  C   C137      1.0  0.81294  0.12693  0.37113  1.0000
  C   C138      1.0  0.85000  0.14770  0.37129  1.0000
  C   C139      1.0  0.86727  0.18483  0.37085  1.0000
  C   C140      1.0  0.84648  0.20111  0.37125  1.0000
  C   C141      1.0  0.79307  0.14419  0.37156  1.0000
  H   H124      1.0  0.85865  0.22795  0.36697  1.0000
  H   H125      1.0  0.76623  0.12953  0.36750  1.0000
  H   H126      1.0  0.86465  0.13553  0.36693  1.0000
  C   C142      1.0  0.79594  0.09011  0.35977  1.0000
  C   C143      1.0  0.90406  0.20464  0.35921  1.0000
  O   O16       1.0  0.75708  0.17987  0.32256  1.0000
  O   O17       1.0  0.81426  0.07604  0.32226  1.0000
  O   O18       1.0  0.91812  0.23706  0.32188  1.0000
  C   C144      1.0  0.75177  0.28005  0.40974  1.0000
  C   C145      1.0  0.76958  0.26194  0.43461  1.0000
  C   C146      1.0  0.78414  0.24962  0.37002  1.0000
  N   N28       1.0  0.76598  0.25041  0.51941  1.0000
  C   C147      1.0  0.74825  0.25646  0.58443  1.0000
  C   C148      1.0  0.73107  0.27543  0.56043  1.0000
  N   N29       1.0  0.73342  0.28558  0.47419  1.0000
  H   H127      1.0  0.72145  0.20868  0.65291  1.0000
  H   H128      1.0  0.78497  0.22458  0.65405  1.0000
  C   C149      1.0  0.70795  0.28215  0.61948  1.0000
  H   H129      1.0  0.68999  0.25821  0.65554  1.0000
  H   H130      1.0  0.69154  0.28921  0.57972  1.0000
  H   H131      1.0  0.74508  0.33703  0.64972  1.0000
  N   N30       1.0  0.80025  0.23107  0.39189  1.0000
  H   H132      1.0  0.81371  0.23731  0.44704  1.0000
  C   C150      1.0  0.71401  0.47052  0.40982  1.0000
  C   C151      1.0  0.73216  0.00646  0.43477  1.0000
  C   C152      1.0  0.74452  0.03332  0.37015  1.0000
  N   N31       1.0  0.74369  0.01434  0.51957  1.0000
  C   C153      1.0  0.73761  0.99054  0.58457  1.0000
  C   C154      1.0  0.71859  0.45440  0.56055  1.0000
  N   N32       1.0  0.70848  0.44664  0.47428  1.0000
  H   H133      1.0  0.78540  0.01142  0.65298  1.0000
  H   H134      1.0  0.76968  0.05915  0.65421  1.0000
  C   C155      1.0  0.71193  0.42454  0.61946  1.0000
  H   H135      1.0  0.73590  0.43052  0.65539  1.0000
  H   H136      1.0  0.70486  0.40109  0.57960  1.0000
  H   H137      1.0  0.65706  0.40675  0.64997  1.0000
  N   N33       1.0  0.76314  0.06796  0.39207  1.0000
  H   H138      1.0  0.75710  0.07530  0.44734  1.0000
  C   C156      1.0  0.52365  0.24244  0.40907  1.0000
  C   C157      1.0  0.98773  0.22465  0.43406  1.0000
  C   C158      1.0  0.96085  0.21006  0.36945  1.0000
  N   N34       1.0  0.97981  0.22827  0.51884  1.0000
  C   C159      1.0  0.00363  0.24603  0.58375  1.0000
  C   C160      1.0  0.53977  0.26318  0.55978  1.0000
  N   N35       1.0  0.54754  0.26082  0.47352  1.0000
  C   C161      1.0  0.98938  0.25249  0.66660  1.0000
  H   H139      1.0  0.98264  0.27282  0.65231  1.0000
  H   H140      1.0  0.93506  0.20930  0.65360  1.0000
  C   C162      1.0  0.56962  0.28638  0.61869  1.0000
  H   H141      1.0  0.56363  0.30435  0.65466  1.0000
  H   H142      1.0  0.59308  0.30278  0.57883  1.0000
  H   H143      1.0  0.58744  0.24932  0.64912  1.0000
  N   N36       1.0  0.92620  0.19397  0.39139  1.0000
  H   H144      1.0  0.91900  0.18054  0.44659  1.0000
  C   C163      1.0  0.69417  0.82835  0.31696  1.0000
  C   C164      1.0  0.72433  0.82511  0.32762  1.0000
  C   C165      1.0  0.80935  0.68125  0.37117  1.0000
  C   C166      1.0  0.78951  0.69823  0.35984  1.0000
  C   C167      1.0  0.74812  0.78601  0.31874  1.0000
  C   C168      1.0  0.78014  0.75544  0.27985  1.0000
  C   C169      1.0  0.76191  0.77269  0.25472  1.0000
  H   H145      1.0  0.75940  0.77624  0.18875  1.0000
  H   H146      1.0  0.79085  0.74725  0.23188  1.0000
  C   C170      1.0  0.74180  0.73574  0.00056  1.0000
  C   C171      1.0  0.77441  0.73506  0.03668  1.0000
  H   H147      1.0  0.73178  0.74535  0.05314  1.0000
  H   H148      1.0  0.79489  0.76151  0.05533  1.0000
  H   H149      1.0  0.76690  0.71805  0.09486  1.0000
  C   C172      1.0  0.72886  0.81249  0.01890  1.0000
  H   H150      1.0  0.74585  0.80707  0.06077  1.0000
  H   H151      1.0  0.71065  0.81587  0.06150  1.0000
  N   N37       1.0  0.72654  0.79803  0.29110  1.0000
  H   H152      1.0  0.71368  0.78855  0.23561  1.0000
  C   C173      1.0  0.70810  0.96092  0.31882  1.0000
  C   C174      1.0  0.73870  0.52351  0.27997  1.0000
  C   C175      1.0  0.72143  0.98804  0.25484  1.0000
  H   H153      1.0  0.71793  0.98198  0.18886  1.0000
  H   H154      1.0  0.74694  0.54243  0.23201  1.0000
  C   C176      1.0  0.75836  0.50478  0.00067  1.0000
  C   C177      1.0  0.75914  0.53811  0.03683  1.0000
  H   H155      1.0  0.74872  0.48515  0.05325  1.0000
  H   H156      1.0  0.73272  0.53221  0.05548  1.0000
  H   H157      1.0  0.77616  0.54757  0.09502  1.0000
  C   C178      1.0  0.68162  0.91507  0.01902  1.0000
  H   H158      1.0  0.68705  0.93744  0.06100  1.0000
  H   H159      1.0  0.67828  0.89346  0.06152  1.0000
  N   N38       1.0  0.69613  0.92732  0.29126  1.0000
  H   H160      1.0  0.70564  0.92395  0.23581  1.0000
  C   C179      1.0  0.53323  0.74610  0.31806  1.0000
  C   C180      1.0  0.97065  0.71403  0.27926  1.0000
  C   C181      1.0  0.50612  0.73227  0.25407  1.0000
  H   H161      1.0  0.51217  0.73478  0.18809  1.0000
  H   H162      1.0  0.95173  0.70329  0.23133  1.0000
  C   C182      1.0  0.95612  0.71987  0.03616  1.0000
  H   H163      1.0  0.00903  0.76253  0.05247  1.0000
  H   H164      1.0  0.96211  0.69940  0.05477  1.0000
  H   H165      1.0  0.94664  0.72739  0.09438  1.0000
  C   C183      1.0  0.57912  0.76555  0.01821  1.0000
  H   H166      1.0  0.55675  0.74858  0.06019  1.0000
  H   H167      1.0  0.60072  0.78381  0.06072  1.0000
  N   N39       1.0  0.56683  0.76769  0.29050  1.0000
  H   H168      1.0  0.57025  0.78052  0.23494  1.0000
  C   C184      1.0  0.66579  0.86463  0.31699  1.0000
  C   C185      1.0  0.63265  0.83363  0.31690  1.0000
  C   C186      1.0  0.62950  0.79997  0.31661  1.0000
  C   C187      1.0  0.66051  0.79783  0.31685  1.0000
  C   C188      1.0  0.69631  0.86150  0.31713  1.0000
  H   H169      1.0  0.65845  0.77359  0.32095  1.0000
  H   H170      1.0  0.72054  0.88368  0.32162  1.0000
  H   H171      1.0  0.61046  0.83568  0.32103  1.0000
  C   C189      1.0  0.66902  0.89802  0.32768  1.0000
  C   C190      1.0  0.59610  0.76980  0.32693  1.0000
  O   O19       1.0  0.75325  0.85124  0.36791  1.0000
  O   O20       1.0  0.64286  0.90082  0.36779  1.0000
  O   O21       1.0  0.59325  0.74082  0.36702  1.0000
  C   C191      1.0  0.81293  0.62693  0.37113  1.0000
  C   C192      1.0  0.85000  0.64770  0.37129  1.0000
  C   C193      1.0  0.86727  0.68483  0.37085  1.0000
  C   C194      1.0  0.84648  0.70111  0.37125  1.0000
  C   C195      1.0  0.79307  0.64419  0.37156  1.0000
  H   H172      1.0  0.85865  0.72795  0.36697  1.0000
  H   H173      1.0  0.76623  0.62952  0.36750  1.0000
  H   H174      1.0  0.86465  0.63553  0.36693  1.0000
  C   C196      1.0  0.79594  0.59011  0.35977  1.0000
  C   C197      1.0  0.90406  0.70464  0.35921  1.0000
  O   O22       1.0  0.75708  0.67987  0.32256  1.0000
  O   O23       1.0  0.81426  0.57604  0.32226  1.0000
  O   O24       1.0  0.91812  0.73706  0.32188  1.0000
  C   C198      1.0  0.75177  0.78005  0.40974  1.0000
  C   C199      1.0  0.76958  0.76194  0.43461  1.0000
  C   C200      1.0  0.78414  0.74962  0.37002  1.0000
  N   N40       1.0  0.76598  0.75040  0.51941  1.0000
  C   C201      1.0  0.74825  0.75646  0.58443  1.0000
  C   C202      1.0  0.73107  0.77543  0.56043  1.0000
  N   N41       1.0  0.73342  0.78558  0.47419  1.0000
  H   H175      1.0  0.72145  0.70868  0.65291  1.0000
  H   H176      1.0  0.78497  0.72458  0.65405  1.0000
  C   C203      1.0  0.70795  0.78215  0.61948  1.0000
  H   H177      1.0  0.68999  0.75820  0.65554  1.0000
  H   H178      1.0  0.69154  0.78921  0.57972  1.0000
  H   H179      1.0  0.74508  0.83703  0.64972  1.0000
  N   N42       1.0  0.80025  0.73107  0.39189  1.0000
  H   H180      1.0  0.81371  0.73731  0.44704  1.0000
  C   C204      1.0  0.71401  0.97052  0.40982  1.0000
  C   C205      1.0  0.73215  0.50646  0.43477  1.0000
  C   C206      1.0  0.74452  0.53332  0.37015  1.0000
  N   N43       1.0  0.74369  0.51434  0.51957  1.0000
  C   C207      1.0  0.73761  0.49054  0.58457  1.0000
  C   C208      1.0  0.71859  0.95440  0.56055  1.0000
  N   N44       1.0  0.70848  0.94664  0.47428  1.0000
  H   H181      1.0  0.78540  0.51142  0.65298  1.0000
  H   H182      1.0  0.76968  0.55915  0.65421  1.0000
  C   C209      1.0  0.71193  0.92454  0.61946  1.0000
  H   H183      1.0  0.73589  0.93052  0.65539  1.0000
  H   H184      1.0  0.70485  0.90109  0.57960  1.0000
  H   H185      1.0  0.65706  0.90675  0.64997  1.0000
  N   N45       1.0  0.76315  0.56796  0.39207  1.0000
  H   H186      1.0  0.75710  0.57530  0.44734  1.0000
  C   C210      1.0  0.52365  0.74243  0.40907  1.0000
  C   C211      1.0  0.98773  0.72465  0.43406  1.0000
  C   C212      1.0  0.96085  0.71005  0.36945  1.0000
  N   N46       1.0  0.97981  0.72827  0.51884  1.0000
  C   C213      1.0  0.00363  0.74603  0.58375  1.0000
  C   C214      1.0  0.53977  0.76318  0.55978  1.0000
  N   N47       1.0  0.54754  0.76082  0.47352  1.0000
  C   C215      1.0  0.98938  0.75249  0.66660  1.0000
  H   H187      1.0  0.98264  0.77282  0.65231  1.0000
  H   H188      1.0  0.93506  0.70930  0.65360  1.0000
  C   C216      1.0  0.56962  0.78638  0.61869  1.0000
  H   H189      1.0  0.56363  0.80435  0.65466  1.0000
  H   H190      1.0  0.59307  0.80278  0.57883  1.0000
  H   H191      1.0  0.58744  0.74932  0.64912  1.0000
  N   N48       1.0  0.92620  0.69397  0.39139  1.0000
  H   H192      1.0  0.91900  0.68054  0.44659  1.0000
