data_image0
_chemical_formula_structural       C3HNO2NHC3HNO2NHC3HNO2NHCNCNCNC18H12C3O3CNCNCNC18H12C3O3C3HNO2NHC3HNO2NHC3HNO2NH
_chemical_formula_sum              "C66 H36 N18 O18"
_cell_length_a       36.7539
_cell_length_b       36.7533
_cell_length_c       15.0887
_cell_angle_alpha    90
_cell_angle_beta     90
_cell_angle_gamma    120

_space_group_name_H-M_alt    "P 1"
_space_group_IT_number       1

loop_
  _space_group_symop_operation_xyz
  'x, y, z'

loop_
  _atom_site_type_symbol
  _atom_site_label
  _atom_site_symmetry_multiplicity
  _atom_site_fract_x
  _atom_site_fract_y
  _atom_site_fract_z
  _atom_site_occupancy
  C   C1        1.0  0.47101  0.51618  0.31083  1.0000
  C   C2        1.0  0.48706  0.50379  0.23887  1.0000
  C   C3        1.0  0.51112  0.48437  0.25660  1.0000
  H   H1        1.0  0.52145  0.47411  0.20452  1.0000
  N   N1        1.0  0.47749  0.50980  0.15108  1.0000
  O   O1        1.0  0.45688  0.47542  0.11099  1.0000
  O   O2        1.0  0.51029  0.53279  0.10757  1.0000
  N   N2        1.0  0.44969  0.53715  0.29649  1.0000
  H   H2        1.0  0.46202  0.56022  0.25396  1.0000
  C   C4        1.0  0.47643  0.95334  0.31090  1.0000
  C   C5        1.0  0.48882  0.98175  0.23886  1.0000
  C   C6        1.0  0.50829  0.02523  0.25650  1.0000
  H   H3        1.0  0.51855  0.04579  0.20436  1.0000
  N   N3        1.0  0.48277  0.96611  0.15111  1.0000
  O   O3        1.0  0.51714  0.97981  0.11101  1.0000
  O   O4        1.0  0.45981  0.97593  0.10757  1.0000
  N   N4        1.0  0.45542  0.91104  0.29668  1.0000
  H   H4        1.0  0.43235  0.90029  0.25414  1.0000
  C   C7        1.0  0.03930  0.52165  0.31087  1.0000
  C   C8        1.0  0.01088  0.50563  0.23884  1.0000
  C   C9        1.0  0.96741  0.48161  0.25650  1.0000
  H   H5        1.0  0.94684  0.47130  0.20436  1.0000
  N   N5        1.0  0.02651  0.51521  0.15109  1.0000
  O   O5        1.0  0.01280  0.53587  0.11098  1.0000
  O   O6        1.0  0.01669  0.48242  0.10756  1.0000
  N   N6        1.0  0.08159  0.54293  0.29662  1.0000
  H   H6        1.0  0.09234  0.53061  0.25410  1.0000
  C   C10       1.0  0.28614  0.64768  0.32007  1.0000
  N   N7        1.0  0.30292  0.62211  0.32019  1.0000
  C   C11       1.0  0.34495  0.63696  0.32004  1.0000
  N   N8        1.0  0.37053  0.67932  0.32023  1.0000
  C   C12       1.0  0.35567  0.70650  0.32010  1.0000
  N   N9        1.0  0.31331  0.68971  0.32025  1.0000
  C   C13       1.0  0.36154  0.60938  0.32203  1.0000
  C   C14       1.0  0.33491  0.56516  0.32130  1.0000
  C   C15       1.0  0.35153  0.53807  0.32535  1.0000
  C   C16       1.0  0.39538  0.55438  0.32889  1.0000
  C   C17       1.0  0.42205  0.59845  0.33017  1.0000
  C   C18       1.0  0.40543  0.62545  0.32666  1.0000
  C   C19       1.0  0.24198  0.63109  0.32209  1.0000
  C   C20       1.0  0.21415  0.58720  0.32675  1.0000
  C   C21       1.0  0.17054  0.57058  0.33027  1.0000
  C   C22       1.0  0.15313  0.59724  0.32901  1.0000
  C   C23       1.0  0.18068  0.64110  0.32545  1.0000
  C   C24       1.0  0.22439  0.65773  0.32136  1.0000
  C   C25       1.0  0.38324  0.75066  0.32217  1.0000
  C   C26       1.0  0.36716  0.77847  0.32687  1.0000
  C   C27       1.0  0.39415  0.82209  0.33037  1.0000
  C   C28       1.0  0.43822  0.83952  0.32909  1.0000
  C   C29       1.0  0.45454  0.81197  0.32553  1.0000
  C   C30       1.0  0.42746  0.76826  0.32142  1.0000
  H   H7        1.0  0.15175  0.53872  0.33618  1.0000
  H   H8        1.0  0.22519  0.56659  0.32879  1.0000
  H   H9        1.0  0.16919  0.66137  0.32467  1.0000
  H   H10       1.0  0.24316  0.68967  0.31838  1.0000
  H   H11       1.0  0.33551  0.76743  0.32884  1.0000
  H   H12       1.0  0.38106  0.84087  0.33624  1.0000
  H   H13       1.0  0.44064  0.74950  0.31843  1.0000
  H   H14       1.0  0.48629  0.82347  0.32472  1.0000
  H   H15       1.0  0.42604  0.65710  0.32866  1.0000
  H   H16       1.0  0.45391  0.61153  0.33600  1.0000
  H   H17       1.0  0.33126  0.50632  0.32457  1.0000
  H   H18       1.0  0.30296  0.55199  0.31834  1.0000
  C   C31       1.0  0.10909  0.58020  0.33519  1.0000
  C   C32       1.0  0.46521  0.88355  0.33523  1.0000
  C   C33       1.0  0.41242  0.52738  0.33504  1.0000
  O   O7        1.0  0.39056  0.49102  0.38091  1.0000
  O   O8        1.0  0.50158  0.89807  0.38105  1.0000
  O   O9        1.0  0.09460  0.60208  0.38102  1.0000
  C   C34       1.0  0.70504  0.34642  0.33448  1.0000
  N   N10       1.0  0.68827  0.37200  0.33439  1.0000
  C   C35       1.0  0.64624  0.35716  0.33459  1.0000
  N   N11       1.0  0.62066  0.31480  0.33441  1.0000
  C   C36       1.0  0.63550  0.28761  0.33450  1.0000
  N   N12       1.0  0.67786  0.30439  0.33432  1.0000
  C   C37       1.0  0.62967  0.38475  0.33268  1.0000
  C   C38       1.0  0.65632  0.42897  0.33348  1.0000
  C   C39       1.0  0.63971  0.45607  0.32955  1.0000
  C   C40       1.0  0.59585  0.43978  0.32610  1.0000
  C   C41       1.0  0.56917  0.39571  0.32481  1.0000
  C   C42       1.0  0.58578  0.36870  0.32812  1.0000
  C   C43       1.0  0.74920  0.36299  0.33248  1.0000
  C   C44       1.0  0.77703  0.40689  0.32785  1.0000
  C   C45       1.0  0.82065  0.42351  0.32444  1.0000
  C   C46       1.0  0.83805  0.39684  0.32581  1.0000
  C   C47       1.0  0.81049  0.35298  0.32932  1.0000
  C   C48       1.0  0.76679  0.33636  0.33328  1.0000
  C   C49       1.0  0.60791  0.24345  0.33252  1.0000
  C   C50       1.0  0.62398  0.21562  0.32793  1.0000
  C   C51       1.0  0.59698  0.17200  0.32453  1.0000
  C   C52       1.0  0.55290  0.15460  0.32587  1.0000
  C   C53       1.0  0.53661  0.18216  0.32935  1.0000
  C   C54       1.0  0.56370  0.22587  0.33331  1.0000
  H   H19       1.0  0.83945  0.45537  0.31865  1.0000
  H   H20       1.0  0.76600  0.42751  0.32584  1.0000
  H   H21       1.0  0.82198  0.33271  0.33017  1.0000
  H   H22       1.0  0.74801  0.30441  0.33626  1.0000
  H   H23       1.0  0.65562  0.22665  0.32587  1.0000
  H   H24       1.0  0.61005  0.15321  0.31867  1.0000
  H   H25       1.0  0.55053  0.24464  0.33627  1.0000
  H   H26       1.0  0.50485  0.17067  0.33018  1.0000
  H   H27       1.0  0.56516  0.33706  0.32606  1.0000
  H   H28       1.0  0.53731  0.38265  0.31892  1.0000
  H   H29       1.0  0.65999  0.48782  0.33035  1.0000
  H   H30       1.0  0.68826  0.44213  0.33639  1.0000
  C   C55       1.0  0.88209  0.41387  0.31981  1.0000
  C   C56       1.0  0.52591  0.11056  0.31980  1.0000
  C   C57       1.0  0.57883  0.46679  0.32003  1.0000
  O   O10       1.0  0.60070  0.50317  0.27421  1.0000
  O   O11       1.0  0.48953  0.09604  0.27400  1.0000
  O   O12       1.0  0.89662  0.39202  0.27399  1.0000
  C   C58       1.0  0.52026  0.47801  0.34432  1.0000
  C   C59       1.0  0.50419  0.49039  0.41628  1.0000
  C   C60       1.0  0.48014  0.50980  0.39854  1.0000
  H   H31       1.0  0.46981  0.52007  0.45063  1.0000
  N   N13       1.0  0.51376  0.48437  0.50406  1.0000
  O   O13       1.0  0.53438  0.51875  0.54417  1.0000
  O   O14       1.0  0.48097  0.46138  0.54756  1.0000
  N   N14       1.0  0.54158  0.45704  0.35865  1.0000
  H   H32       1.0  0.52923  0.43394  0.40111  1.0000
  C   C61       1.0  0.51470  0.04078  0.34416  1.0000
  C   C62       1.0  0.50230  0.01237  0.41621  1.0000
  C   C63       1.0  0.48284  0.96889  0.39858  1.0000
  H   H33       1.0  0.47257  0.94832  0.45071  1.0000
  N   N15       1.0  0.50835  0.02801  0.50396  1.0000
  O   O15       1.0  0.47398  0.01430  0.54407  1.0000
  O   O16       1.0  0.53132  0.01819  0.54749  1.0000
  N   N16       1.0  0.53569  0.08307  0.35841  1.0000
  H   H34       1.0  0.55877  0.09384  0.40089  1.0000
  C   C64       1.0  0.95186  0.47245  0.34417  1.0000
  C   C65       1.0  0.98028  0.48847  0.41620  1.0000
  C   C66       1.0  0.02375  0.51251  0.39855  1.0000
  H   H35       1.0  0.04432  0.52280  0.45067  1.0000
  N   N17       1.0  0.96465  0.47888  0.50395  1.0000
  O   O17       1.0  0.97838  0.45823  0.54404  1.0000
  O   O18       1.0  0.97445  0.51165  0.54750  1.0000
  N   N18       1.0  0.90957  0.45113  0.35842  1.0000
  H   H36       1.0  0.89880  0.46345  0.40091  1.0000
