data_image0
_chemical_formula_structural       CHC2HNO2C3HNO2NCNCNCNC3H3C2NO2NC2NO2NCH2OCNCNOCNCNCNC3H2CNCNCNC3H2NCNONCHC3HNO2NC2NO2NOC3NONC3HNO2NC2HNO2C3HN2H2CN2CNC2H2CNCNC2H2C3HNO2C2HOC3HN2C2NO2NC3HNO2NC3HNO2NCNCNCNC3H3C2HNC2HCHC3HNO2NO2C3HNO2N
_chemical_formula_sum              "C90 H36 N54 O36"
_cell_length_a       47.3555
_cell_length_b       47.3555
_cell_length_c       14.627
_cell_angle_alpha    90
_cell_angle_beta     90
_cell_angle_gamma    120

_space_group_name_H-M_alt    "P 1"
_space_group_IT_number       1

loop_
  _space_group_symop_operation_xyz
  'x, y, z'

loop_
  _atom_site_type_symbol
  _atom_site_label
  _atom_site_symmetry_multiplicity
  _atom_site_fract_x
  _atom_site_fract_y
  _atom_site_fract_z
  _atom_site_occupancy
  C   C1        1.0  0.03856  0.53154  0.28462  1.0000
  H   H1        1.0  0.05245  0.54476  0.23020  1.0000
  C   C2        1.0  0.29134  0.52619  0.35527  1.0000
  C   C3        1.0  0.26064  0.52474  0.35638  1.0000
  H   H2        1.0  0.23966  0.50265  0.35155  1.0000
  N   N1        1.0  0.29033  0.49595  0.34730  1.0000
  O   O1        1.0  0.30322  0.49056  0.41514  1.0000
  O   O2        1.0  0.30434  0.49467  0.27576  1.0000
  C   C4        1.0  0.26136  0.71097  0.36122  1.0000
  C   C5        1.0  0.26038  0.74054  0.35519  1.0000
  C   C6        1.0  0.28962  0.77123  0.35629  1.0000
  H   H3        1.0  0.28851  0.79222  0.35144  1.0000
  N   N2        1.0  0.23114  0.74154  0.34719  1.0000
  O   O3        1.0  0.21287  0.72865  0.41503  1.0000
  O   O4        1.0  0.21586  0.72752  0.27566  1.0000
  N   N3        1.0  0.23284  0.68132  0.35942  1.0000
  C   C7        1.0  0.14397  0.57831  0.35346  1.0000
  N   N4        1.0  0.16816  0.61062  0.35507  1.0000
  C   C8        1.0  0.20043  0.61961  0.36076  1.0000
  N   N5        1.0  0.20727  0.59508  0.36311  1.0000
  C   C9        1.0  0.18496  0.56300  0.36043  1.0000
  N   N6        1.0  0.15302  0.55495  0.35551  1.0000
  C   C10       1.0  0.19695  0.54107  0.36035  1.0000
  C   C11       1.0  0.11121  0.56971  0.34468  1.0000
  C   C12       1.0  0.22878  0.65076  0.36325  1.0000
  H   H4        1.0  0.24976  0.64988  0.36785  1.0000
  H   H5        1.0  0.10635  0.58643  0.32031  1.0000
  H   H6        1.0  0.18142  0.51650  0.35616  1.0000
  C   C13       1.0  0.05429  0.52863  0.36338  1.0000
  C   C14       1.0  0.03425  0.50917  0.43638  1.0000
  N   N7        1.0  0.04951  0.50620  0.51610  1.0000
  O   O5        1.0  0.04282  0.51774  0.58475  1.0000
  O   O6        1.0  0.04099  0.47694  0.53209  1.0000
  N   N8        1.0  0.08702  0.54157  0.36765  1.0000
  C   C15       1.0  0.25832  0.55324  0.36291  1.0000
  C   C16       1.0  0.28732  0.58373  0.36899  1.0000
  N   N9        1.0  0.28539  0.61261  0.37540  1.0000
  O   O7        1.0  0.29786  0.62777  0.44840  1.0000
  O   O8        1.0  0.29943  0.63147  0.30931  1.0000
  N   N10       1.0  0.22966  0.55321  0.36267  1.0000
  C   C17       1.0  0.29274  0.71409  0.36833  1.0000
  H   H7        1.0  0.29530  0.69407  0.37304  1.0000
  H   H8        1.0  0.48816  0.51511  0.22897  1.0000
  O   O9        1.0  0.48477  0.45655  0.17870  1.0000
  C   C18       1.0  0.32091  0.55674  0.36126  1.0000
  N   N11       1.0  0.35056  0.55787  0.35942  1.0000
  C   C19       1.0  0.47512  0.77052  0.36118  1.0000
  N   N12       1.0  0.47400  0.79904  0.35938  1.0000
  O   O10       1.0  0.49773  0.20734  0.42238  1.0000
  C   C20       1.0  0.45358  0.57202  0.35342  1.0000
  N   N13       1.0  0.42127  0.56390  0.35501  1.0000
  C   C21       1.0  0.41227  0.58717  0.36068  1.0000
  N   N14       1.0  0.43679  0.61853  0.36305  1.0000
  C   C22       1.0  0.46888  0.62832  0.36040  1.0000
  N   N15       1.0  0.47694  0.60443  0.35547  1.0000
  C   C23       1.0  0.49080  0.66223  0.36031  1.0000
  C   C24       1.0  0.46220  0.54787  0.34458  1.0000
  C   C25       1.0  0.38112  0.58436  0.36322  1.0000
  H   H9        1.0  0.38200  0.60623  0.36782  1.0000
  H   H10       1.0  0.44554  0.52634  0.31983  1.0000
  C   C26       1.0  0.45986  0.88791  0.35342  1.0000
  N   N16       1.0  0.46798  0.86372  0.35504  1.0000
  C   C27       1.0  0.44470  0.83145  0.36070  1.0000
  N   N17       1.0  0.41334  0.82461  0.36304  1.0000
  C   C28       1.0  0.40356  0.84692  0.36037  1.0000
  N   N18       1.0  0.42746  0.87887  0.35547  1.0000
  C   C29       1.0  0.36965  0.83494  0.36027  1.0000
  C   C30       1.0  0.48403  0.92068  0.34467  1.0000
  C   C31       1.0  0.44751  0.80310  0.36318  1.0000
  H   H11       1.0  0.42564  0.78212  0.36777  1.0000
  H   H12       1.0  0.36060  0.85046  0.35608  1.0000
  N   N19       1.0  0.49030  0.55181  0.36792  1.0000
  C   C32       1.0  0.49984  0.97758  0.36341  1.0000
  N   N20       1.0  0.48219  0.98234  0.51615  1.0000
  O   O11       1.0  0.46145  0.99086  0.53216  1.0000
  N   N21       1.0  0.48006  0.94486  0.36766  1.0000
  C   C33       1.0  0.31780  0.58500  0.36836  1.0000
  H   H13       1.0  0.33781  0.60758  0.37304  1.0000
  C   C34       1.0  0.47863  0.71143  0.36283  1.0000
  C   C35       1.0  0.44814  0.70994  0.36888  1.0000
  C   C36       1.0  0.44686  0.73914  0.36825  1.0000
  H   H14       1.0  0.42429  0.73658  0.37291  1.0000
  N   N22       1.0  0.41926  0.67912  0.37527  1.0000
  O   O12       1.0  0.40409  0.67643  0.44825  1.0000
  O   O13       1.0  0.40040  0.67431  0.30915  1.0000
  N   N23       1.0  0.47866  0.68280  0.36261  1.0000
  C   C37       1.0  0.32044  0.77356  0.36284  1.0000
  C   C38       1.0  0.32194  0.74456  0.36895  1.0000
  N   N24       1.0  0.35275  0.74650  0.37537  1.0000
  O   O14       1.0  0.35545  0.73404  0.44838  1.0000
  O   O15       1.0  0.35757  0.73245  0.30930  1.0000
  N   N25       1.0  0.34907  0.80223  0.36260  1.0000
  O   O16       1.0  0.49973  0.20857  0.28261  1.0000
  C   C39       1.0  0.53509  0.49356  0.35110  1.0000
  C   C40       1.0  0.51625  0.49475  0.27729  1.0000
  C   C41       1.0  0.50094  0.51399  0.28393  1.0000
  N   N26       1.0  0.51390  0.47712  0.19678  1.0000
  O   O17       1.0  0.52600  0.49587  0.12936  1.0000
  N   N27       1.0  0.54796  0.47371  0.34701  1.0000
  C   C42       1.0  0.53833  0.04791  0.35121  1.0000
  C   C43       1.0  0.53775  0.02789  0.27817  1.0000
  C   C44       1.0  0.51848  0.99333  0.28467  1.0000
  H   H15       1.0  0.51782  0.97944  0.23023  1.0000
  N   N28       1.0  0.55600  0.04317  0.19852  1.0000
  O   O18       1.0  0.53780  0.03650  0.12983  1.0000
  O   O19       1.0  0.57674  0.03464  0.18255  1.0000
  N   N29       1.0  0.55817  0.08064  0.34726  1.0000
  C   C45       1.0  0.50568  0.77150  0.35519  1.0000
  C   C46       1.0  0.50712  0.74225  0.35631  1.0000
  H   H16       1.0  0.52922  0.74336  0.35149  1.0000
  N   N30       1.0  0.53592  0.80073  0.34723  1.0000
  O   O20       1.0  0.54130  0.81901  0.41508  1.0000
  O   O21       1.0  0.53720  0.81602  0.27570  1.0000
  C   C47       1.0  0.56305  0.25504  0.35984  1.0000
  C   C48       1.0  0.53245  0.25404  0.35681  1.0000
  C   C49       1.0  0.53107  0.28332  0.35631  1.0000
  H   H17       1.0  0.50893  0.28220  0.35363  1.0000
  N   N31       1.0  0.50211  0.22476  0.35315  1.0000
  N   N32       1.0  0.56414  0.22649  0.35931  1.0000
  H   H18       1.0  0.51537  0.67128  0.35613  1.0000
  H   H19       1.0  0.50560  0.92553  0.32031  1.0000
  C   C50       1.0  0.58483  0.45366  0.36187  1.0000
  N   N33       1.0  0.61713  0.46174  0.36207  1.0000
  N   N34       1.0  0.60159  0.40706  0.35656  1.0000
  C   C51       1.0  0.56951  0.39732  0.35703  1.0000
  N   N35       1.0  0.56146  0.42125  0.35968  1.0000
  C   C52       1.0  0.54755  0.36343  0.35620  1.0000
  C   C53       1.0  0.57622  0.47786  0.36939  1.0000
  H   H20       1.0  0.59296  0.49955  0.39301  1.0000
  H   H21       1.0  0.52294  0.35441  0.35625  1.0000
  C   C54       1.0  0.57821  0.13758  0.36191  1.0000
  N   N36       1.0  0.57014  0.16179  0.36219  1.0000
  C   C55       1.0  0.59345  0.19410  0.35884  1.0000
  N   N37       1.0  0.61062  0.14660  0.35968  1.0000
  C   C56       1.0  0.55400  0.10477  0.36931  1.0000
  C   C57       1.0  0.59067  0.22246  0.35820  1.0000
  H   H22       1.0  0.61258  0.24349  0.35525  1.0000
  H   H23       1.0  0.53226  0.09983  0.39253  1.0000
  C   C58       1.0  0.50322  0.53200  0.36355  1.0000
  C   C59       1.0  0.52206  0.53082  0.43735  1.0000
  C   C60       1.0  0.53739  0.51159  0.43069  1.0000
  H   H24       1.0  0.55014  0.51045  0.48567  1.0000
  N   N38       1.0  0.52439  0.54841  0.51792  1.0000
  O   O22       1.0  0.51229  0.52965  0.58529  1.0000
  O   O23       1.0  0.55352  0.56900  0.53604  1.0000
  C   C61       1.0  0.50042  0.99761  0.43643  1.0000
  C   C62       1.0  0.51967  0.03218  0.42992  1.0000
  H   H25       1.0  0.52036  0.04606  0.48440  1.0000
  O   O24       1.0  0.50042  0.98903  0.58480  1.0000
  C   C63       1.0  0.55965  0.31417  0.35868  1.0000
  C   C64       1.0  0.59019  0.31567  0.36245  1.0000
  C   C65       1.0  0.59141  0.28645  0.36320  1.0000
  H   H26       1.0  0.61401  0.28899  0.36695  1.0000
  N   N39       1.0  0.61914  0.34651  0.36577  1.0000
  N   N40       1.0  0.55964  0.34281  0.35777  1.0000
  C   C66       1.0  0.98397  0.49681  0.35112  1.0000
  C   C67       1.0  0.00400  0.51624  0.27810  1.0000
  N   N41       1.0  0.98873  0.51924  0.19844  1.0000
  O   O25       1.0  0.99541  0.50771  0.12975  1.0000
  O   O26       1.0  0.99727  0.54851  0.18251  1.0000
  N   N42       1.0  0.95124  0.48392  0.34715  1.0000
  C   C68       1.0  0.71746  0.46883  0.35955  1.0000
  C   C69       1.0  0.74707  0.49943  0.35645  1.0000
  C   C70       1.0  0.77774  0.50081  0.35596  1.0000
  H   H27       1.0  0.79875  0.52295  0.35324  1.0000
  N   N43       1.0  0.74813  0.52977  0.35270  1.0000
  O   O27       1.0  0.73510  0.53417  0.42191  1.0000
  O   O28       1.0  0.73431  0.53212  0.28215  1.0000
  N   N44       1.0  0.68783  0.46775  0.35903  1.0000
  C   C71       1.0  0.77684  0.31441  0.35970  1.0000
  C   C72       1.0  0.77783  0.28481  0.35666  1.0000
  C   C73       1.0  0.74855  0.25414  0.35619  1.0000
  H   H28       1.0  0.74968  0.23312  0.35352  1.0000
  N   N45       1.0  0.80712  0.28374  0.35298  1.0000
  O   O29       1.0  0.82454  0.29679  0.42221  1.0000
  O   O30       1.0  0.82330  0.29756  0.28244  1.0000
  N   N46       1.0  0.80539  0.34404  0.35915  1.0000
  C   C74       1.0  0.89430  0.44703  0.36176  1.0000
  N   N47       1.0  0.87008  0.41474  0.36204  1.0000
  C   C75       1.0  0.83777  0.40575  0.35867  1.0000
  N   N48       1.0  0.83095  0.43029  0.35653  1.0000
  C   C76       1.0  0.85330  0.46237  0.35689  1.0000
  N   N49       1.0  0.88528  0.47041  0.35951  1.0000
  C   C77       1.0  0.84136  0.48433  0.35597  1.0000
  C   C78       1.0  0.92711  0.45562  0.36918  1.0000
  C   C79       1.0  0.80941  0.37460  0.35803  1.0000
  H   H29       1.0  0.78838  0.37548  0.35507  1.0000
  H   H30       1.0  0.93204  0.43882  0.39240  1.0000
  H   H31       1.0  0.85696  0.50894  0.35594  1.0000
  C   C80       1.0  0.62613  0.43843  0.35862  1.0000
  C   C81       1.0  0.65727  0.44121  0.35795  1.0000
  H   H32       1.0  0.65640  0.41931  0.35497  1.0000
  N   N50       1.0  0.62482  0.20093  0.35671  1.0000
  C   C82       1.0  0.63455  0.17857  0.35708  1.0000
  C   C83       1.0  0.66845  0.19051  0.35617  1.0000
  H   H33       1.0  0.67746  0.17492  0.35616  1.0000
  C   C84       1.0  0.99969  0.49387  0.42984  1.0000
  H   H34       1.0  0.98580  0.48067  0.48430  1.0000
  C   C85       1.0  0.78000  0.47223  0.35841  1.0000
  C   C86       1.0  0.75097  0.44170  0.36223  1.0000
  C   C87       1.0  0.72051  0.44047  0.36297  1.0000
  H   H35       1.0  0.70046  0.41787  0.36677  1.0000
  N   N51       1.0  0.75285  0.41274  0.36561  1.0000
  O   O31       1.0  0.74037  0.39689  0.43768  1.0000
  O   O32       1.0  0.73878  0.39453  0.29837  1.0000
  N   N52       1.0  0.80865  0.47224  0.35753  1.0000
  O   O33       1.0  0.63500  0.34989  0.43782  1.0000
  O   O34       1.0  0.63734  0.35065  0.29851  1.0000
  C   C88       1.0  0.71771  0.25188  0.35859  1.0000
  C   C89       1.0  0.71620  0.28091  0.36235  1.0000
  C   C90       1.0  0.74543  0.31136  0.36307  1.0000
  H   H36       1.0  0.74288  0.33141  0.36682  1.0000
  N   N53       1.0  0.68536  0.27902  0.36569  1.0000
  O   O35       1.0  0.68199  0.29151  0.43772  1.0000
  O   O36       1.0  0.68122  0.29308  0.29841  1.0000
  N   N54       1.0  0.68907  0.22322  0.35772  1.0000
