data_image0
_chemical_formula_structural       C4HC6HOHOHC4HC6HOHOHCNCHNHCNCHNHCNCHNHCNCHNHC4HC6HOHOHC4HC6HOHOHC4HC6HOHOHC4HC6HOHOHCNCHNHCNCHNHCNCHNHCNCHNHC4HC6HOHOHC4HC6HOHOHC4HC6HOHOHC4HC6HOHOHCNCNCNCNCNCNCNCNCNCNCNCNCNCNCNCNCNCNCNCNCNCNCNCNCNCNCNCNCNCNCNCNCNCNCNCNCNCHNHCNCHNHC4HC6HOHOHC4HC6HOHOHC4HC6HOHOHC4HC6HOHOHCNCHNHCNCHNHCNCHNHCNCHNHC4HC6HOHOHC4HC6HOHOHC4HC6HOHOHC4HC6HOHOHCNCHNHCNCHNHCNCHNHCNCHNH
_chemical_formula_sum              "C252 H108 O36 N72"
_cell_length_a       50.9812
_cell_length_b       50.8194
_cell_length_c       14.9745
_cell_angle_alpha    90
_cell_angle_beta     90
_cell_angle_gamma    90.1873

_space_group_name_H-M_alt    "P 1"
_space_group_IT_number       1

loop_
  _space_group_symop_operation_xyz
  'x, y, z'

loop_
  _atom_site_type_symbol
  _atom_site_label
  _atom_site_symmetry_multiplicity
  _atom_site_fract_x
  _atom_site_fract_y
  _atom_site_fract_z
  _atom_site_occupancy
  C   C1        1.0  0.04824  0.45177  0.32171  1.0000
  C   C2        1.0  0.00831  0.49051  0.32202  1.0000
  C   C3        1.0  0.00138  0.46377  0.30720  1.0000
  C   C4        1.0  0.02161  0.44478  0.30764  1.0000
  H   H1        1.0  0.01679  0.42548  0.29711  1.0000
  C   C5        1.0  0.98867  0.51008  0.32405  1.0000
  C   C6        1.0  0.94985  0.54989  0.33163  1.0000
  C   C7        1.0  0.94290  0.52328  0.31544  1.0000
  C   C8        1.0  0.96193  0.50311  0.31114  1.0000
  C   C9        1.0  0.95516  0.47650  0.29474  1.0000
  C   C10       1.0  0.97476  0.45695  0.29281  1.0000
  H   H2        1.0  0.92360  0.51842  0.30635  1.0000
  O   O1        1.0  0.92968  0.46906  0.28328  1.0000
  H   H3        1.0  0.92618  0.47032  0.21884  1.0000
  O   O2        1.0  0.96738  0.43145  0.27960  1.0000
  H   H4        1.0  0.96813  0.42849  0.21475  1.0000
  C   C11       1.0  0.55041  0.04947  0.32625  1.0000
  C   C12       1.0  0.51146  0.00957  0.31924  1.0000
  C   C13       1.0  0.53821  0.00258  0.30809  1.0000
  C   C14       1.0  0.55731  0.02280  0.31214  1.0000
  H   H5        1.0  0.57663  0.01794  0.30432  1.0000
  C   C15       1.0  0.49176  0.98994  0.31774  1.0000
  C   C16       1.0  0.45169  0.95110  0.31867  1.0000
  C   C17       1.0  0.47832  0.94410  0.30590  1.0000
  C   C18       1.0  0.49862  0.96314  0.30497  1.0000
  C   C19       1.0  0.52526  0.95629  0.29214  1.0000
  C   C20       1.0  0.54494  0.97590  0.29372  1.0000
  H   H6        1.0  0.48310  0.92475  0.29695  1.0000
  O   O3        1.0  0.53258  0.93074  0.28095  1.0000
  H   H7        1.0  0.53207  0.92741  0.21628  1.0000
  O   O4        1.0  0.57044  0.96845  0.28399  1.0000
  H   H8        1.0  0.57422  0.96939  0.21966  1.0000
  C   C21       1.0  0.04924  0.34941  0.31999  1.0000
  N   N1        1.0  0.04472  0.32304  0.32190  1.0000
  C   C22       1.0  0.02645  0.24272  0.33076  1.0000
  H   H9        1.0  0.03352  0.36170  0.31383  1.0000
  N   N2        1.0  0.03312  0.26859  0.32706  1.0000
  H   H10       1.0  0.00700  0.23791  0.32785  1.0000
  C   C23       1.0  0.95102  0.65269  0.34507  1.0000
  N   N3        1.0  0.95589  0.67898  0.34825  1.0000
  C   C24       1.0  0.97492  0.75906  0.34917  1.0000
  H   H11       1.0  0.96637  0.64031  0.33307  1.0000
  N   N4        1.0  0.96805  0.73323  0.35036  1.0000
  H   H12       1.0  0.99417  0.76371  0.33842  1.0000
  C   C25       1.0  0.65224  0.05047  0.33008  1.0000
  N   N5        1.0  0.67845  0.04574  0.33308  1.0000
  C   C26       1.0  0.75843  0.02732  0.33362  1.0000
  H   H13       1.0  0.63998  0.03524  0.31421  1.0000
  N   N6        1.0  0.73263  0.03395  0.33468  1.0000
  H   H14       1.0  0.76318  0.00832  0.31854  1.0000
  C   C27       1.0  0.34896  0.95202  0.32320  1.0000
  N   N7        1.0  0.32274  0.95679  0.32590  1.0000
  C   C28       1.0  0.24292  0.97577  0.33535  1.0000
  H   H15       1.0  0.36143  0.96765  0.31580  1.0000
  N   N8        1.0  0.26862  0.96888  0.33173  1.0000
  H   H16       1.0  0.23840  0.99531  0.33156  1.0000
  C   C29       1.0  0.42456  0.85883  0.32208  1.0000
  C   C30       1.0  0.43586  0.80423  0.32238  1.0000
  C   C31       1.0  0.40932  0.81255  0.31783  1.0000
  C   C32       1.0  0.40418  0.83983  0.31804  1.0000
  H   H17       1.0  0.38509  0.84589  0.31460  1.0000
  C   C33       1.0  0.44180  0.77707  0.32240  1.0000
  C   C34       1.0  0.45454  0.72279  0.31875  1.0000
  C   C35       1.0  0.42808  0.73122  0.31675  1.0000
  C   C36       1.0  0.42128  0.75815  0.31782  1.0000
  C   C37       1.0  0.39488  0.76656  0.31272  1.0000
  C   C38       1.0  0.38892  0.79364  0.31273  1.0000
  H   H18       1.0  0.41339  0.71755  0.31192  1.0000
  O   O5        1.0  0.37472  0.74890  0.30929  1.0000
  H   H19       1.0  0.37151  0.74544  0.24560  1.0000
  O   O6        1.0  0.36326  0.80100  0.30953  1.0000
  H   H20       1.0  0.35893  0.80306  0.24592  1.0000
  C   C39       1.0  0.57576  0.14263  0.33720  1.0000
  C   C40       1.0  0.56425  0.19724  0.33721  1.0000
  C   C41       1.0  0.59074  0.18898  0.32942  1.0000
  C   C42       1.0  0.59599  0.16172  0.32992  1.0000
  H   H21       1.0  0.61504  0.15574  0.32391  1.0000
  C   C43       1.0  0.55826  0.22440  0.33725  1.0000
  C   C44       1.0  0.54548  0.27872  0.33405  1.0000
  C   C45       1.0  0.57189  0.27026  0.32863  1.0000
  C   C46       1.0  0.57870  0.24334  0.32939  1.0000
  C   C47       1.0  0.60503  0.23496  0.32084  1.0000
  C   C48       1.0  0.61103  0.20790  0.32087  1.0000
  H   H22       1.0  0.58652  0.28391  0.32146  1.0000
  O   O7        1.0  0.62510  0.25262  0.31402  1.0000
  H   H23       1.0  0.62751  0.25594  0.24983  1.0000
  O   O8        1.0  0.63665  0.20057  0.31429  1.0000
  H   H24       1.0  0.64021  0.19835  0.25017  1.0000
  C   C49       1.0  0.85788  0.57691  0.33522  1.0000
  C   C50       1.0  0.80335  0.56573  0.33111  1.0000
  C   C51       1.0  0.81194  0.59227  0.32487  1.0000
  C   C52       1.0  0.83918  0.59737  0.32740  1.0000
  H   H25       1.0  0.84545  0.61646  0.32274  1.0000
  C   C53       1.0  0.77621  0.55986  0.32942  1.0000
  C   C54       1.0  0.72198  0.54725  0.32311  1.0000
  C   C55       1.0  0.73070  0.57373  0.31890  1.0000
  C   C56       1.0  0.75760  0.58046  0.32126  1.0000
  C   C57       1.0  0.76630  0.60686  0.31418  1.0000
  C   C58       1.0  0.79335  0.61274  0.31602  1.0000
  H   H26       1.0  0.71726  0.58847  0.31154  1.0000
  O   O9        1.0  0.74895  0.62710  0.30724  1.0000
  H   H27       1.0  0.74599  0.62977  0.24297  1.0000
  O   O10       1.0  0.80098  0.63843  0.31102  1.0000
  H   H28       1.0  0.80358  0.64222  0.24722  1.0000
  C   C59       1.0  0.14131  0.42653  0.32562  1.0000
  C   C60       1.0  0.19598  0.43740  0.32784  1.0000
  C   C61       1.0  0.18727  0.41100  0.31780  1.0000
  C   C62       1.0  0.16002  0.40609  0.31709  1.0000
  H   H29       1.0  0.15378  0.38707  0.30957  1.0000
  C   C63       1.0  0.22318  0.44301  0.32908  1.0000
  C   C64       1.0  0.27759  0.45504  0.32824  1.0000
  C   C65       1.0  0.26864  0.42872  0.32090  1.0000
  C   C66       1.0  0.24166  0.42229  0.32039  1.0000
  C   C67       1.0  0.23281  0.39605  0.30973  1.0000
  C   C68       1.0  0.20573  0.39043  0.30840  1.0000
  H   H30       1.0  0.28197  0.41390  0.31303  1.0000
  O   O11       1.0  0.25003  0.37571  0.30216  1.0000
  H   H31       1.0  0.25346  0.37361  0.23792  1.0000
  O   O12       1.0  0.19794  0.36486  0.29986  1.0000
  H   H32       1.0  0.19581  0.36171  0.23546  1.0000
  C   C69       1.0  0.15831  0.04149  0.34519  1.0000
  N   N9        1.0  0.14386  0.06389  0.35125  1.0000
  C   C70       1.0  0.09584  0.13059  0.34038  1.0000
  H   H33       1.0  0.17103  0.03947  0.29293  1.0000
  N   N10       1.0  0.11194  0.10946  0.34885  1.0000
  H   H34       1.0  0.09891  0.14340  0.28876  1.0000
  C   C71       1.0  0.87570  0.98178  0.27959  1.0000
  N   N11       1.0  0.88861  0.95865  0.27866  1.0000
  C   C72       1.0  0.93623  0.89418  0.28652  1.0000
  H   H35       1.0  0.88454  0.99760  0.24983  1.0000
  N   N12       1.0  0.91925  0.91447  0.28266  1.0000
  H   H36       1.0  0.95428  0.89664  0.25786  1.0000
  C   C73       1.0  0.96147  0.15832  0.34280  1.0000
  N   N13       1.0  0.93888  0.14406  0.34763  1.0000
  C   C74       1.0  0.87136  0.09718  0.33183  1.0000
  H   H37       1.0  0.96333  0.17214  0.29360  1.0000
  N   N14       1.0  0.89282  0.11284  0.34217  1.0000
  H   H38       1.0  0.85837  0.10134  0.28183  1.0000
  C   C75       1.0  0.04087  0.84497  0.33568  1.0000
  N   N15       1.0  0.06322  0.85941  0.34503  1.0000
  C   C76       1.0  0.13059  0.90685  0.34381  1.0000
  H   H39       1.0  0.03984  0.83125  0.28586  1.0000
  N   N16       1.0  0.10907  0.89105  0.34916  1.0000
  H   H40       1.0  0.14431  0.90302  0.29580  1.0000
  C   C77       1.0  0.34865  0.51804  0.27439  1.0000
  C   C78       1.0  0.37671  0.56584  0.26002  1.0000
  C   C79       1.0  0.38173  0.54536  0.19776  1.0000
  C   C80       1.0  0.36741  0.52170  0.20597  1.0000
  H   H41       1.0  0.37156  0.50637  0.16388  1.0000
  C   C81       1.0  0.39260  0.58873  0.25952  1.0000
  C   C82       1.0  0.42729  0.63204  0.27106  1.0000
  C   C83       1.0  0.43064  0.61268  0.20431  1.0000
  C   C84       1.0  0.41351  0.59094  0.19713  1.0000
  C   C85       1.0  0.41751  0.57107  0.13240  1.0000
  C   C86       1.0  0.40162  0.54835  0.13261  1.0000
  H   H42       1.0  0.44628  0.61412  0.16160  1.0000
  O   O13       1.0  0.43765  0.57249  0.07275  1.0000
  H   H43       1.0  0.43078  0.58198  0.02056  1.0000
  O   O14       1.0  0.40717  0.52881  0.07325  1.0000
  H   H44       1.0  0.39574  0.53184  0.02138  1.0000
  C   C87       1.0  0.65128  0.48340  0.27138  1.0000
  C   C88       1.0  0.62296  0.43556  0.26400  1.0000
  C   C89       1.0  0.61790  0.45536  0.19922  1.0000
  C   C90       1.0  0.63241  0.47899  0.20376  1.0000
  H   H45       1.0  0.62826  0.49383  0.15972  1.0000
  C   C91       1.0  0.60706  0.41269  0.26653  1.0000
  C   C92       1.0  0.57253  0.36936  0.28307  1.0000
  C   C93       1.0  0.56913  0.38799  0.21401  1.0000
  C   C94       1.0  0.58618  0.40972  0.20431  1.0000
  C   C95       1.0  0.58218  0.42885  0.13707  1.0000
  C   C96       1.0  0.59772  0.45181  0.13542  1.0000
  H   H46       1.0  0.55350  0.38604  0.17149  1.0000
  O   O15       1.0  0.56222  0.42659  0.07699  1.0000
  H   H47       1.0  0.56935  0.41664  0.02622  1.0000
  O   O16       1.0  0.59271  0.47035  0.07190  1.0000
  H   H48       1.0  0.57938  0.48211  0.09735  1.0000
  C   C97       1.0  0.51795  0.65228  0.26396  1.0000
  C   C98       1.0  0.56574  0.62446  0.25282  1.0000
  C   C99       1.0  0.54545  0.61884  0.19050  1.0000
  C   C100      1.0  0.52181  0.63304  0.19710  1.0000
  H   H49       1.0  0.50666  0.62848  0.15486  1.0000
  C   C101      1.0  0.58859  0.60872  0.25403  1.0000
  C   C102      1.0  0.63180  0.57434  0.26921  1.0000
  C   C103      1.0  0.61265  0.57040  0.20225  1.0000
  C   C104      1.0  0.59095  0.58735  0.19332  1.0000
  C   C105      1.0  0.57127  0.58273  0.12852  1.0000
  C   C106      1.0  0.54859  0.59847  0.12698  1.0000
  H   H50       1.0  0.61417  0.55443  0.16085  1.0000
  O   O17       1.0  0.57283  0.56212  0.07053  1.0000
  H   H51       1.0  0.58236  0.56874  0.01798  1.0000
  O   O18       1.0  0.52923  0.59232  0.06773  1.0000
  H   H52       1.0  0.53233  0.60341  0.01493  1.0000
  C   C107      1.0  0.48185  0.34916  0.28137  1.0000
  C   C108      1.0  0.43402  0.37689  0.26932  1.0000
  C   C109      1.0  0.45407  0.38187  0.20546  1.0000
  C   C110      1.0  0.47773  0.36773  0.21256  1.0000
  H   H53       1.0  0.49273  0.37187  0.16920  1.0000
  C   C111      1.0  0.41116  0.39263  0.26965  1.0000
  C   C112      1.0  0.36795  0.42713  0.28241  1.0000
  C   C113      1.0  0.38686  0.43036  0.21425  1.0000
  C   C114      1.0  0.40854  0.41334  0.20646  1.0000
  C   C115      1.0  0.42796  0.41728  0.14027  1.0000
  C   C116      1.0  0.45066  0.40156  0.13970  1.0000
  H   H54       1.0  0.38516  0.44587  0.17094  1.0000
  O   O19       1.0  0.42616  0.43726  0.07988  1.0000
  H   H55       1.0  0.41644  0.43009  0.02861  1.0000
  O   O20       1.0  0.46977  0.40708  0.07882  1.0000
  H   H56       1.0  0.46646  0.39544  0.02757  1.0000
  C   C117      1.0  0.11385  0.42073  0.32523  1.0000
  N   N17       1.0  0.09446  0.43911  0.32423  1.0000
  C   C118      1.0  0.06847  0.43237  0.32298  1.0000
  N   N18       1.0  0.06229  0.40619  0.32329  1.0000
  C   C119      1.0  0.08079  0.38701  0.32482  1.0000
  N   N19       1.0  0.10607  0.39521  0.32566  1.0000
  C   C120      1.0  0.88530  0.58267  0.33832  1.0000
  N   N20       1.0  0.90435  0.56405  0.33409  1.0000
  C   C121      1.0  0.93046  0.57010  0.33655  1.0000
  N   N21       1.0  0.93722  0.59604  0.34378  1.0000
  C   C122      1.0  0.91900  0.61552  0.34880  1.0000
  N   N22       1.0  0.89349  0.60796  0.34560  1.0000
  C   C123      1.0  0.58174  0.11518  0.33741  1.0000
  N   N23       1.0  0.56335  0.09574  0.33262  1.0000
  C   C124      1.0  0.56988  0.06969  0.33139  1.0000
  N   N24       1.0  0.59589  0.06349  0.33561  1.0000
  C   C125      1.0  0.61507  0.08203  0.34130  1.0000
  N   N25       1.0  0.60715  0.10746  0.34177  1.0000
  C   C126      1.0  0.41878  0.88631  0.32245  1.0000
  N   N26       1.0  0.43738  0.90551  0.32024  1.0000
  C   C127      1.0  0.43138  0.93167  0.32072  1.0000
  N   N27       1.0  0.40546  0.93837  0.32385  1.0000
  C   C128      1.0  0.38596  0.91999  0.32628  1.0000
  N   N28       1.0  0.39353  0.89444  0.32543  1.0000
  C   C129      1.0  0.00847  0.16210  0.38419  1.0000
  N   N29       1.0  0.01420  0.18756  0.36355  1.0000
  C   C130      1.0  0.03952  0.19592  0.35246  1.0000
  N   N30       1.0  0.05908  0.17781  0.36208  1.0000
  C   C131      1.0  0.05410  0.15229  0.38229  1.0000
  N   N31       1.0  0.02874  0.14516  0.39344  1.0000
  C   C132      1.0  0.99349  0.84078  0.36880  1.0000
  N   N32       1.0  0.98749  0.81472  0.36865  1.0000
  C   C133      1.0  0.96226  0.80621  0.35745  1.0000
  N   N33       1.0  0.94313  0.82469  0.34603  1.0000
  C   C134      1.0  0.94858  0.85086  0.34383  1.0000
  N   N34       1.0  0.97384  0.85827  0.35649  1.0000
  C   C135      1.0  0.84057  0.00958  0.33756  1.0000
  N   N35       1.0  0.81443  0.01508  0.33842  1.0000
  C   C136      1.0  0.80541  0.04015  0.35075  1.0000
  N   N36       1.0  0.82353  0.05965  0.36353  1.0000
  C   C137      1.0  0.84962  0.05476  0.36490  1.0000
  N   N37       1.0  0.85756  0.02970  0.35216  1.0000
  C   C138      1.0  0.16290  0.99462  0.38813  1.0000
  N   N38       1.0  0.18822  0.98860  0.36841  1.0000
  C   C139      1.0  0.19607  0.96310  0.35719  1.0000
  N   N39       1.0  0.17759  0.94370  0.36588  1.0000
  C   C140      1.0  0.15217  0.94898  0.38541  1.0000
  N   N40       1.0  0.14558  0.97452  0.39644  1.0000
  C   C141      1.0  0.49236  0.66204  0.27953  1.0000
  N   N41       1.0  0.48646  0.68756  0.29797  1.0000
  C   C142      1.0  0.46110  0.69561  0.30917  1.0000
  N   N42       1.0  0.44168  0.67714  0.30170  1.0000
  C   C143      1.0  0.44684  0.65154  0.28357  1.0000
  N   N43       1.0  0.47223  0.64472  0.27223  1.0000
  C   C144      1.0  0.50749  0.33947  0.29657  1.0000
  N   N44       1.0  0.51346  0.31396  0.31494  1.0000
  C   C145      1.0  0.53887  0.30591  0.32485  1.0000
  N   N45       1.0  0.55826  0.32438  0.31598  1.0000
  C   C146      1.0  0.55301  0.34997  0.29788  1.0000
  N   N46       1.0  0.52758  0.35679  0.28773  1.0000
  C   C147      1.0  0.66123  0.50916  0.28473  1.0000
  N   N47       1.0  0.68665  0.51518  0.30369  1.0000
  C   C148      1.0  0.69486  0.54070  0.31277  1.0000
  N   N48       1.0  0.67663  0.56015  0.30274  1.0000
  C   C149      1.0  0.65113  0.55486  0.28401  1.0000
  N   N49       1.0  0.64416  0.52931  0.27488  1.0000
  C   C150      1.0  0.33871  0.49247  0.29108  1.0000
  N   N50       1.0  0.31317  0.48671  0.30887  1.0000
  C   C151      1.0  0.30483  0.46132  0.32007  1.0000
  N   N51       1.0  0.32303  0.44171  0.31295  1.0000
  C   C152      1.0  0.34866  0.44677  0.29543  1.0000
  N   N52       1.0  0.35577  0.47220  0.28412  1.0000
  C   C153      1.0  0.05361  0.47883  0.33488  1.0000
  N   N53       1.0  0.03397  0.49679  0.33504  1.0000
  C   C154      1.0  0.97690  0.55530  0.34294  1.0000
  H   H57       1.0  0.07229  0.48542  0.34583  1.0000
  N   N54       1.0  0.99490  0.53572  0.33921  1.0000
  H   H58       1.0  0.98349  0.57396  0.35513  1.0000
  C   C155      1.0  0.52334  0.05492  0.33560  1.0000
  N   N55       1.0  0.50527  0.03528  0.33234  1.0000
  C   C156      1.0  0.44638  0.97822  0.32991  1.0000
  H   H59       1.0  0.51681  0.07364  0.34637  1.0000
  N   N56       1.0  0.46609  0.99623  0.32948  1.0000
  H   H60       1.0  0.42771  0.98483  0.33981  1.0000
  C   C157      1.0  0.07506  0.35949  0.32619  1.0000
  C   C158      1.0  0.06403  0.30475  0.32986  1.0000
  C   C159      1.0  0.09045  0.31343  0.33668  1.0000
  C   C160      1.0  0.09546  0.34075  0.33440  1.0000
  H   H61       1.0  0.11448  0.34704  0.33965  1.0000
  C   C161      1.0  0.05825  0.27752  0.33214  1.0000
  C   C162      1.0  0.04589  0.22310  0.34057  1.0000
  C   C163      1.0  0.07225  0.23195  0.34449  1.0000
  C   C164      1.0  0.07885  0.25894  0.34118  1.0000
  C   C165      1.0  0.10513  0.26774  0.34846  1.0000
  C   C166      1.0  0.11091  0.29488  0.34624  1.0000
  H   H62       1.0  0.08699  0.21856  0.35257  1.0000
  O   O21       1.0  0.12535  0.25041  0.35628  1.0000
  H   H63       1.0  0.12790  0.24758  0.42068  1.0000
  O   O22       1.0  0.13649  0.30261  0.35180  1.0000
  H   H64       1.0  0.14012  0.30531  0.41566  1.0000
  C   C167      1.0  0.92522  0.64287  0.35560  1.0000
  C   C168      1.0  0.93702  0.69741  0.36240  1.0000
  C   C169      1.0  0.91071  0.68897  0.37512  1.0000
  C   C170      1.0  0.90532  0.66173  0.37151  1.0000
  H   H65       1.0  0.88637  0.65559  0.38029  1.0000
  C   C171      1.0  0.94306  0.72459  0.36307  1.0000
  C   C172      1.0  0.95577  0.77891  0.35991  1.0000
  C   C173      1.0  0.92961  0.77039  0.37359  1.0000
  C   C174      1.0  0.92285  0.74341  0.37599  1.0000
  C   C175      1.0  0.89676  0.73483  0.39045  1.0000
  C   C176      1.0  0.89071  0.70773  0.39014  1.0000
  H   H66       1.0  0.91520  0.78408  0.38295  1.0000
  O   O23       1.0  0.87687  0.75236  0.40199  1.0000
  H   H67       1.0  0.87578  0.75564  0.46661  1.0000
  O   O24       1.0  0.86523  0.70025  0.40126  1.0000
  H   H68       1.0  0.86284  0.69741  0.46571  1.0000
  C   C177      1.0  0.64235  0.07600  0.34635  1.0000
  C   C178      1.0  0.69672  0.06448  0.35247  1.0000
  C   C179      1.0  0.68817  0.09049  0.37101  1.0000
  C   C180      1.0  0.66102  0.09577  0.36730  1.0000
  H   H69       1.0  0.65478  0.11449  0.38052  1.0000
  C   C181      1.0  0.72381  0.05858  0.35342  1.0000
  C   C182      1.0  0.77808  0.04629  0.35194  1.0000
  C   C183      1.0  0.76930  0.07206  0.37191  1.0000
  C   C184      1.0  0.74240  0.07863  0.37319  1.0000
  C   C185      1.0  0.73374  0.10439  0.39325  1.0000
  C   C186      1.0  0.70674  0.11031  0.39209  1.0000
  H   H70       1.0  0.78273  0.08646  0.38606  1.0000
  O   O25       1.0  0.75110  0.12415  0.41112  1.0000
  H   H71       1.0  0.75386  0.12393  0.47612  1.0000
  O   O26       1.0  0.69918  0.13553  0.40876  1.0000
  H   H72       1.0  0.69602  0.13659  0.47345  1.0000
  C   C187      1.0  0.35863  0.92604  0.32970  1.0000
  C   C188      1.0  0.30423  0.93761  0.33514  1.0000
  C   C189      1.0  0.31251  0.91106  0.34264  1.0000
  C   C190      1.0  0.33965  0.90579  0.33955  1.0000
  H   H73       1.0  0.34563  0.88667  0.34513  1.0000
  C   C191      1.0  0.27717  0.94363  0.33774  1.0000
  C   C192      1.0  0.22309  0.95646  0.34596  1.0000
  C   C193      1.0  0.23154  0.92997  0.35100  1.0000
  C   C194      1.0  0.25836  0.92314  0.34777  1.0000
  C   C195      1.0  0.26677  0.89673  0.35587  1.0000
  C   C196      1.0  0.29373  0.89072  0.35335  1.0000
  H   H74       1.0  0.21798  0.91531  0.35969  1.0000
  O   O27       1.0  0.24922  0.87661  0.36455  1.0000
  H   H75       1.0  0.24644  0.87425  0.42907  1.0000
  O   O28       1.0  0.30108  0.86501  0.35949  1.0000
  H   H76       1.0  0.30385  0.86151  0.42339  1.0000
  C   C197      1.0  0.45049  0.84910  0.32598  1.0000
  N   N57       1.0  0.45513  0.82278  0.32616  1.0000
  C   C198      1.0  0.47389  0.74277  0.32422  1.0000
  H   H77       1.0  0.46620  0.86159  0.32924  1.0000
  N   N58       1.0  0.46704  0.76856  0.32570  1.0000
  H   H78       1.0  0.49340  0.73828  0.32548  1.0000
  C   C199      1.0  0.54985  0.15228  0.34395  1.0000
  N   N59       1.0  0.54511  0.17860  0.34399  1.0000
  C   C200      1.0  0.52622  0.25875  0.34250  1.0000
  H   H79       1.0  0.53425  0.13972  0.34960  1.0000
  N   N60       1.0  0.53308  0.23294  0.34370  1.0000
  H   H80       1.0  0.50674  0.26325  0.34628  1.0000
  C   C201      1.0  0.84789  0.55096  0.34015  1.0000
  N   N61       1.0  0.82162  0.54638  0.33830  1.0000
  C   C202      1.0  0.74165  0.52783  0.33203  1.0000
  H   H81       1.0  0.86017  0.53520  0.34614  1.0000
  N   N62       1.0  0.76743  0.53461  0.33470  1.0000
  H   H82       1.0  0.73697  0.50829  0.33509  1.0000
  C   C203      1.0  0.15139  0.45234  0.33465  1.0000
  N   N63       1.0  0.17772  0.45677  0.33565  1.0000
  C   C204      1.0  0.25806  0.47460  0.33740  1.0000
  H   H83       1.0  0.13912  0.46808  0.34130  1.0000
  N   N64       1.0  0.23219  0.46810  0.33746  1.0000
  H   H84       1.0  0.26294  0.49405  0.34266  1.0000
  C   C205      1.0  0.15322  0.02030  0.40362  1.0000
  C   C206      1.0  0.12492  0.06788  0.41402  1.0000
  C   C207      1.0  0.12005  0.04782  0.47812  1.0000
  C   C208      1.0  0.13452  0.02430  0.47198  1.0000
  H   H85       1.0  0.13043  0.00923  0.51530  1.0000
  C   C209      1.0  0.10885  0.09052  0.41241  1.0000
  C   C210      1.0  0.07379  0.13318  0.39671  1.0000
  C   C211      1.0  0.07054  0.11430  0.46511  1.0000
  C   C212      1.0  0.08786  0.09289  0.47441  1.0000
  C   C213      1.0  0.08399  0.07347  0.54085  1.0000
  C   C214      1.0  0.10009  0.05101  0.54284  1.0000
  H   H86       1.0  0.05485  0.11583  0.50750  1.0000
  O   O29       1.0  0.06376  0.07502  0.60009  1.0000
  H   H87       1.0  0.07047  0.08502  0.65150  1.0000
  O   O30       1.0  0.09464  0.03184  0.60379  1.0000
  H   H88       1.0  0.10596  0.03544  0.65556  1.0000
  C   C215      1.0  0.85142  0.98419  0.32448  1.0000
  C   C216      1.0  0.87930  0.93652  0.31823  1.0000
  C   C217      1.0  0.85458  0.93699  0.36186  1.0000
  C   C218      1.0  0.84062  0.96114  0.36309  1.0000
  H   H89       1.0  0.82342  0.96246  0.39806  1.0000
  C   C219      1.0  0.89502  0.91379  0.31995  1.0000
  C   C220      1.0  0.92938  0.87068  0.33143  1.0000
  C   C221      1.0  0.90383  0.86900  0.36827  1.0000
  C   C222      1.0  0.88640  0.89071  0.36473  1.0000
  C   C223      1.0  0.86144  0.89088  0.40657  1.0000
  C   C224      1.0  0.84571  0.91383  0.40535  1.0000
  H   H90       1.0  0.89857  0.85245  0.40296  1.0000
  O   O31       1.0  0.85228  0.86906  0.44935  1.0000
  H   H91       1.0  0.85802  0.87063  0.51183  1.0000
  O   O32       1.0  0.82196  0.91328  0.44698  1.0000
  H   H92       1.0  0.82522  0.91844  0.50932  1.0000
  C   C225      1.0  0.98287  0.15198  0.39855  1.0000
  C   C226      1.0  0.93493  0.12402  0.40662  1.0000
  C   C227      1.0  0.95522  0.11771  0.46800  1.0000
  C   C228      1.0  0.97891  0.13204  0.46309  1.0000
  H   H93       1.0  0.99403  0.12706  0.50476  1.0000
  C   C229      1.0  0.91202  0.10826  0.40345  1.0000
  C   C230      1.0  0.86873  0.07411  0.38349  1.0000
  C   C231      1.0  0.88793  0.06911  0.44918  1.0000
  C   C232      1.0  0.90963  0.08608  0.46084  1.0000
  C   C233      1.0  0.92931  0.08077  0.52491  1.0000
  C   C234      1.0  0.95200  0.09662  0.52875  1.0000
  H   H94       1.0  0.88643  0.05241  0.48723  1.0000
  O   O33       1.0  0.92765  0.05951  0.58011  1.0000
  H   H95       1.0  0.91812  0.06548  0.63343  1.0000
  O   O34       1.0  0.97132  0.08987  0.58723  1.0000
  H   H96       1.0  0.96829  0.10042  0.64129  1.0000
  C   C235      1.0  0.01865  0.85101  0.38778  1.0000
  C   C236      1.0  0.06606  0.87928  0.40544  1.0000
  C   C237      1.0  0.04474  0.88526  0.46314  1.0000
  C   C238      1.0  0.02118  0.87093  0.45297  1.0000
  H   H97       1.0  0.00523  0.87576  0.49115  1.0000
  C   C239      1.0  0.08894  0.89510  0.40736  1.0000
  C   C240      1.0  0.13247  0.92956  0.39778  1.0000
  C   C241      1.0  0.11233  0.93374  0.46107  1.0000
  C   C242      1.0  0.09043  0.91680  0.46706  1.0000
  C   C243      1.0  0.06974  0.92172  0.52777  1.0000
  C   C244      1.0  0.04695  0.90600  0.52576  1.0000
  H   H98       1.0  0.11327  0.94988  0.50192  1.0000
  O   O35       1.0  0.07049  0.94261  0.58479  1.0000
  H   H99       1.0  0.07920  0.93629  0.63928  1.0000
  O   O36       1.0  0.02670  0.91238  0.58100  1.0000
  H   H100      1.0  0.02894  0.90160  0.63498  1.0000
  C   C245      1.0  0.34342  0.53961  0.33090  1.0000
  N   N65       1.0  0.35775  0.56212  0.32300  1.0000
  C   C246      1.0  0.40531  0.62955  0.32782  1.0000
  H   H101      1.0  0.33058  0.53786  0.38301  1.0000
  N   N66       1.0  0.38938  0.60811  0.32137  1.0000
  H   H102      1.0  0.40217  0.64270  0.37830  1.0000
  C   C247      1.0  0.65643  0.46250  0.33084  1.0000
  N   N67       1.0  0.64203  0.43995  0.32610  1.0000
  C   C248      1.0  0.59447  0.37254  0.33962  1.0000
  H   H103      1.0  0.66940  0.46477  0.38232  1.0000
  N   N68       1.0  0.61031  0.39397  0.33068  1.0000
  H   H104      1.0  0.59761  0.35998  0.39181  1.0000
  C   C249      1.0  0.53931  0.65801  0.32074  1.0000
  N   N69       1.0  0.56183  0.64383  0.31434  1.0000
  C   C250      1.0  0.62915  0.59671  0.32429  1.0000
  H   H105      1.0  0.53746  0.67126  0.37169  1.0000
  N   N70       1.0  0.60778  0.61249  0.31609  1.0000
  H   H106      1.0  0.64214  0.60031  0.37485  1.0000
  C   C251      1.0  0.46071  0.34398  0.33972  1.0000
  N   N71       1.0  0.43818  0.35813  0.33279  1.0000
  C   C252      1.0  0.37080  0.40534  0.34000  1.0000
  H   H107      1.0  0.46279  0.33126  0.39206  1.0000
  N   N72       1.0  0.39218  0.38951  0.33289  1.0000
  H   H108      1.0  0.35801  0.40230  0.39157  1.0000
