data_image0
_chemical_formula_structural       C6H2C3HCOH3NHC2H2C3HCOH3NHC2H2C3HCOH3NHCN2CNC2O3CN2CNC2O3C7H3COH3NHC7H3COH3NHC7H3COH3NH
_chemical_formula_sum              "C54 H42 O12 N12"
_cell_length_a       29.1306
_cell_length_b       29.1313
_cell_length_c       15.0427
_cell_angle_alpha    90
_cell_angle_beta     90
_cell_angle_gamma    120

_space_group_name_H-M_alt    "P 1"
_space_group_IT_number       1

loop_
  _space_group_symop_operation_xyz
  'x, y, z'

loop_
  _atom_site_type_symbol
  _atom_site_label
  _atom_site_symmetry_multiplicity
  _atom_site_fract_x
  _atom_site_fract_y
  _atom_site_fract_z
  _atom_site_occupancy
  C   C1        1.0  0.36693  0.64770  0.41127  1.0000
  C   C2        1.0  0.36609  0.77330  0.40841  1.0000
  C   C3        1.0  0.63377  0.35531  0.24460  1.0000
  C   C4        1.0  0.61805  0.22226  0.25207  1.0000
  C   C5        1.0  0.45680  0.51323  0.28791  1.0000
  C   C6        1.0  0.42074  0.53098  0.30307  1.0000
  H   H1        1.0  0.45245  0.49146  0.23182  1.0000
  H   H2        1.0  0.39150  0.52240  0.25738  1.0000
  C   C7        1.0  0.59151  0.45414  0.28973  1.0000
  C   C8        1.0  0.60567  0.50431  0.25371  1.0000
  C   C9        1.0  0.57634  0.52999  0.27239  1.0000
  H   H3        1.0  0.63711  0.52136  0.21088  1.0000
  C   C10       1.0  0.59130  0.58249  0.23161  1.0000
  O   O1        1.0  0.63909  0.60724  0.18003  1.0000
  H   H4        1.0  0.59461  0.61018  0.28376  1.0000
  H   H5        1.0  0.55937  0.57697  0.18702  1.0000
  H   H6        1.0  0.66931  0.61871  0.22088  1.0000
  N   N1        1.0  0.62124  0.43096  0.27017  1.0000
  H   H7        1.0  0.65956  0.45447  0.26822  1.0000
  C   C11       1.0  0.48315  0.94281  0.28734  1.0000
  C   C12       1.0  0.46535  0.88898  0.30248  1.0000
  H   H8        1.0  0.50487  0.96020  0.23119  1.0000
  H   H9        1.0  0.47384  0.86829  0.25673  1.0000
  C   C13       1.0  0.54241  0.13666  0.28932  1.0000
  C   C14       1.0  0.49218  0.10069  0.25345  1.0000
  C   C15       1.0  0.46648  0.04567  0.27210  1.0000
  H   H10       1.0  0.47508  0.11510  0.21077  1.0000
  C   C16       1.0  0.41392  0.00817  0.23149  1.0000
  O   O2        1.0  0.38913  0.03123  0.18011  1.0000
  H   H11       1.0  0.38628  0.98379  0.28373  1.0000
  H   H12       1.0  0.41935  0.98174  0.18682  1.0000
  H   H13       1.0  0.37774  0.05001  0.22107  1.0000
  N   N2        1.0  0.56556  0.18958  0.26984  1.0000
  H   H14       1.0  0.54206  0.20439  0.26808  1.0000
  C   C17       1.0  0.05364  0.53963  0.28802  1.0000
  C   C18       1.0  0.10743  0.57568  0.30335  1.0000
  H   H15       1.0  0.03628  0.54400  0.23187  1.0000
  H   H16       1.0  0.12814  0.60494  0.25771  1.0000
  C   C19       1.0  0.85982  0.40501  0.28934  1.0000
  C   C20       1.0  0.89584  0.39085  0.25336  1.0000
  C   C21       1.0  0.95084  0.42015  0.27218  1.0000
  H   H17       1.0  0.88148  0.35945  0.21047  1.0000
  C   C22       1.0  0.98839  0.40520  0.23145  1.0000
  O   O3        1.0  0.96539  0.35745  0.17977  1.0000
  H   H18       1.0  0.01273  0.40184  0.28364  1.0000
  H   H19       1.0  0.01485  0.43716  0.18695  1.0000
  H   H20       1.0  0.94659  0.32721  0.22055  1.0000
  N   N3        1.0  0.80692  0.37528  0.26970  1.0000
  H   H21       1.0  0.79211  0.33697  0.26772  1.0000
  C   C23       1.0  0.27786  0.62945  0.41153  1.0000
  N   N4        1.0  0.31395  0.61292  0.41135  1.0000
  N   N5        1.0  0.38346  0.70032  0.41104  1.0000
  C   C24       1.0  0.34868  0.71852  0.41121  1.0000
  N   N6        1.0  0.29606  0.68243  0.41129  1.0000
  C   C25       1.0  0.40430  0.63028  0.40858  1.0000
  C   C26       1.0  0.22307  0.59209  0.40905  1.0000
  O   O4        1.0  0.32847  0.78756  0.41435  1.0000
  O   O5        1.0  0.20880  0.54020  0.41481  1.0000
  O   O6        1.0  0.45619  0.66792  0.41425  1.0000
  C   C27       1.0  0.71871  0.36273  0.24434  1.0000
  N   N7        1.0  0.68748  0.38508  0.24523  1.0000
  N   N8        1.0  0.61142  0.30173  0.24526  1.0000
  C   C28       1.0  0.64118  0.27779  0.24438  1.0000
  N   N9        1.0  0.69476  0.30901  0.24503  1.0000
  C   C29       1.0  0.60141  0.37847  0.25245  1.0000
  C   C30       1.0  0.77424  0.39511  0.25205  1.0000
  O   O7        1.0  0.65076  0.20200  0.24324  1.0000
  O   O8        1.0  0.79449  0.44810  0.24359  1.0000
  O   O9        1.0  0.54841  0.34575  0.24388  1.0000
  C   C31       1.0  0.42559  0.56161  0.37878  1.0000
  C   C32       1.0  0.46610  0.57213  0.44087  1.0000
  C   C33       1.0  0.50270  0.55425  0.42752  1.0000
  C   C34       1.0  0.49812  0.52499  0.34894  1.0000
  C   C35       1.0  0.53178  0.50413  0.33014  1.0000
  C   C36       1.0  0.51877  0.45506  0.36927  1.0000
  C   C37       1.0  0.54861  0.43066  0.34988  1.0000
  H   H22       1.0  0.48724  0.43644  0.41185  1.0000
  H   H23       1.0  0.53885  0.39561  0.38052  1.0000
  H   H24       1.0  0.46856  0.59281  0.49742  1.0000
  C   C38       1.0  0.54406  0.56756  0.49684  1.0000
  O   O10       1.0  0.51918  0.54083  0.57779  1.0000
  H   H25       1.0  0.57315  0.55625  0.47729  1.0000
  H   H26       1.0  0.56554  0.61048  0.50752  1.0000
  H   H27       1.0  0.54709  0.55121  0.62299  1.0000
  N   N10       1.0  0.39027  0.57895  0.39149  1.0000
  H   H28       1.0  0.35343  0.55415  0.37613  1.0000
  C   C39       1.0  0.43479  0.86325  0.37828  1.0000
  C   C40       1.0  0.42438  0.89327  0.44045  1.0000
  C   C41       1.0  0.44231  0.94777  0.42711  1.0000
  C   C42       1.0  0.47151  0.97241  0.34846  1.0000
  C   C43       1.0  0.49240  0.02694  0.32965  1.0000
  C   C44       1.0  0.54154  0.06297  0.36863  1.0000
  C   C45       1.0  0.56594  0.11720  0.34927  1.0000
  H   H29       1.0  0.56020  0.05003  0.41107  1.0000
  H   H30       1.0  0.60104  0.14247  0.37980  1.0000
  H   H31       1.0  0.40375  0.87508  0.49704  1.0000
  C   C46       1.0  0.42913  0.97586  0.49653  1.0000
  O   O11       1.0  0.45592  0.97767  0.57738  1.0000
  H   H32       1.0  0.44049  0.01628  0.47701  1.0000
  H   H33       1.0  0.38622  0.95448  0.50731  1.0000
  H   H34       1.0  0.44561  0.99523  0.62265  1.0000
  N   N11       1.0  0.41738  0.81057  0.39097  1.0000
  H   H35       1.0  0.44219  0.79854  0.37554  1.0000
  C   C47       1.0  0.13312  0.57082  0.37917  1.0000
  C   C48       1.0  0.10306  0.53028  0.44118  1.0000
  C   C49       1.0  0.04859  0.49368  0.42765  1.0000
  C   C50       1.0  0.02401  0.49829  0.34898  1.0000
  C   C51       1.0  0.96949  0.46466  0.33003  1.0000
  C   C52       1.0  0.93341  0.47766  0.36911  1.0000
  C   C53       1.0  0.87920  0.44786  0.34958  1.0000
  H   H36       1.0  0.94630  0.50916  0.41175  1.0000
  H   H37       1.0  0.85389  0.45760  0.38019  1.0000
  H   H38       1.0  0.12122  0.52780  0.49780  1.0000
  C   C54       1.0  0.02047  0.45229  0.49690  1.0000
  O   O12       1.0  0.01850  0.47714  0.57781  1.0000
  H   H39       1.0  0.98009  0.42320  0.47721  1.0000
  H   H40       1.0  0.04190  0.43082  0.50768  1.0000
  H   H41       1.0  0.00092  0.44920  0.62297  1.0000
  N   N12       1.0  0.18577  0.60614  0.39209  1.0000
  H   H42       1.0  0.19776  0.64296  0.37659  1.0000
