data_image0
_chemical_formula_structural       C2HC3HNH2NH2C2HC3HNH2NH2C2HC3HNH2NH2CNCNCNC18H12CNCNCNC18H12C7H2N2O4C7H2N2O4C7H2N2O4
_chemical_formula_sum              "C78 H48 N18 O12"
_cell_length_a       36.9719
_cell_length_b       36.972
_cell_length_c       14.9473
_cell_angle_alpha    90
_cell_angle_beta     90
_cell_angle_gamma    120

_space_group_name_H-M_alt    "P 1"
_space_group_IT_number       1

loop_
  _space_group_symop_operation_xyz
  'x, y, z'

loop_
  _atom_site_type_symbol
  _atom_site_label
  _atom_site_symmetry_multiplicity
  _atom_site_fract_x
  _atom_site_fract_y
  _atom_site_fract_z
  _atom_site_occupancy
  C   C1        1.0  0.55522  0.50895  0.29088  1.0000
  C   C2        1.0  0.57511  0.48468  0.29243  1.0000
  H   H1        1.0  0.60204  0.49474  0.25634  1.0000
  C   C3        1.0  0.44856  0.55931  0.33454  1.0000
  C   C4        1.0  0.45214  0.53961  0.25583  1.0000
  C   C5        1.0  0.47484  0.51814  0.26042  1.0000
  H   H2        1.0  0.47754  0.50388  0.20404  1.0000
  N   N1        1.0  0.57360  0.54548  0.24421  1.0000
  H   H3        1.0  0.59991  0.55505  0.21277  1.0000
  H   H4        1.0  0.56240  0.56428  0.24442  1.0000
  N   N2        1.0  0.43549  0.54132  0.17576  1.0000
  H   H5        1.0  0.43889  0.52813  0.12253  1.0000
  H   H6        1.0  0.42099  0.55693  0.16801  1.0000
  C   C6        1.0  0.49545  0.04716  0.29091  1.0000
  C   C7        1.0  0.51972  0.09131  0.29245  1.0000
  H   H7        1.0  0.50966  0.10818  0.25638  1.0000
  C   C8        1.0  0.44510  0.89013  0.33454  1.0000
  C   C9        1.0  0.46480  0.91341  0.25584  1.0000
  C   C10       1.0  0.48628  0.95759  0.26042  1.0000
  H   H8        1.0  0.50054  0.97455  0.20405  1.0000
  N   N3        1.0  0.45892  0.02900  0.24424  1.0000
  H   H9        1.0  0.44938  0.04573  0.21267  1.0000
  H   H10       1.0  0.44015  0.99899  0.24427  1.0000
  N   N4        1.0  0.46310  0.89505  0.17577  1.0000
  H   H11       1.0  0.47630  0.91164  0.12255  1.0000
  H   H12       1.0  0.44750  0.86495  0.16802  1.0000
  C   C11       1.0  0.95725  0.44919  0.29088  1.0000
  C   C12       1.0  0.91310  0.42930  0.29242  1.0000
  H   H13       1.0  0.89623  0.40237  0.25633  1.0000
  C   C13       1.0  0.11428  0.55585  0.33454  1.0000
  C   C14       1.0  0.09100  0.55227  0.25583  1.0000
  C   C15       1.0  0.04682  0.52956  0.26042  1.0000
  H   H14       1.0  0.02986  0.52687  0.20404  1.0000
  N   N5        1.0  0.97541  0.43081  0.24420  1.0000
  H   H15       1.0  0.95867  0.40450  0.21277  1.0000
  H   H16       1.0  0.00541  0.44200  0.24441  1.0000
  N   N6        1.0  0.10936  0.56892  0.17576  1.0000
  H   H17       1.0  0.09277  0.56552  0.12253  1.0000
  H   H18       1.0  0.13946  0.58342  0.16801  1.0000
  C   C16       1.0  0.35727  0.71159  0.34082  1.0000
  N   N7        1.0  0.37779  0.68962  0.34075  1.0000
  C   C17       1.0  0.35785  0.64714  0.34081  1.0000
  N   N8        1.0  0.31535  0.62662  0.34075  1.0000
  C   C18       1.0  0.29282  0.64656  0.34082  1.0000
  N   N9        1.0  0.31479  0.68906  0.34075  1.0000
  C   C19       1.0  0.38047  0.62513  0.34020  1.0000
  C   C20       1.0  0.42461  0.64653  0.34796  1.0000
  C   C21       1.0  0.44698  0.62494  0.34675  1.0000
  C   C22       1.0  0.42594  0.58110  0.33673  1.0000
  C   C23       1.0  0.38197  0.55937  0.32961  1.0000
  C   C24       1.0  0.35968  0.58104  0.33143  1.0000
  C   C25       1.0  0.37928  0.75622  0.34020  1.0000
  C   C26       1.0  0.42337  0.77952  0.33144  1.0000
  C   C27       1.0  0.44504  0.82349  0.32962  1.0000
  C   C28       1.0  0.42330  0.84571  0.33674  1.0000
  C   C29       1.0  0.37947  0.82293  0.34676  1.0000
  C   C30       1.0  0.35787  0.77896  0.34797  1.0000
  C   C31       1.0  0.24819  0.62394  0.34020  1.0000
  C   C32       1.0  0.22488  0.64473  0.33142  1.0000
  C   C33       1.0  0.18092  0.62244  0.32962  1.0000
  C   C34       1.0  0.15869  0.57847  0.33673  1.0000
  C   C35       1.0  0.18148  0.55743  0.34676  1.0000
  C   C36       1.0  0.22545  0.57979  0.34795  1.0000
  H   H19       1.0  0.47687  0.83919  0.32293  1.0000
  H   H20       1.0  0.44041  0.76476  0.32546  1.0000
  H   H21       1.0  0.36287  0.83819  0.35208  1.0000
  H   H22       1.0  0.32609  0.76378  0.35480  1.0000
  H   H23       1.0  0.23965  0.67653  0.32548  1.0000
  H   H24       1.0  0.16522  0.63856  0.32293  1.0000
  H   H25       1.0  0.24063  0.56319  0.35479  1.0000
  H   H26       1.0  0.16621  0.52555  0.35206  1.0000
  H   H27       1.0  0.32788  0.56400  0.32546  1.0000
  H   H28       1.0  0.36585  0.52754  0.32293  1.0000
  H   H29       1.0  0.47885  0.64154  0.35207  1.0000
  H   H30       1.0  0.44121  0.67831  0.35479  1.0000
  C   C37       1.0  0.64756  0.29199  0.33797  1.0000
  N   N10       1.0  0.62745  0.31435  0.33802  1.0000
  C   C38       1.0  0.64795  0.35685  0.33796  1.0000
  N   N11       1.0  0.69044  0.37696  0.33801  1.0000
  C   C39       1.0  0.71242  0.35646  0.33797  1.0000
  N   N12       1.0  0.69005  0.31397  0.33802  1.0000
  C   C40       1.0  0.62585  0.37932  0.33849  1.0000
  C   C41       1.0  0.58271  0.35940  0.31775  1.0000
  C   C42       1.0  0.56093  0.38159  0.31812  1.0000
  C   C43       1.0  0.58121  0.42444  0.34088  1.0000
  C   C44       1.0  0.62432  0.44449  0.36132  1.0000
  C   C45       1.0  0.64621  0.42242  0.35982  1.0000
  C   C46       1.0  0.62509  0.24741  0.33851  1.0000
  C   C47       1.0  0.58199  0.22467  0.35987  1.0000
  C   C48       1.0  0.55992  0.18071  0.36137  1.0000
  C   C49       1.0  0.57996  0.15765  0.34088  1.0000
  C   C50       1.0  0.62282  0.18022  0.31812  1.0000
  C   C51       1.0  0.64501  0.22420  0.31775  1.0000
  C   C52       1.0  0.75699  0.37855  0.33850  1.0000
  C   C53       1.0  0.77974  0.35820  0.35984  1.0000
  C   C54       1.0  0.82370  0.38009  0.36134  1.0000
  C   C55       1.0  0.84676  0.42320  0.34087  1.0000
  C   C56       1.0  0.82418  0.44348  0.31816  1.0000
  C   C57       1.0  0.78021  0.42170  0.31775  1.0000
  H   H31       1.0  0.52899  0.16561  0.37871  1.0000
  H   H32       1.0  0.56615  0.23988  0.37609  1.0000
  H   H33       1.0  0.63826  0.16478  0.30056  1.0000
  H   H34       1.0  0.67592  0.23904  0.30047  1.0000
  H   H35       1.0  0.76453  0.32715  0.37605  1.0000
  H   H36       1.0  0.83880  0.36427  0.37866  1.0000
  H   H37       1.0  0.76536  0.43776  0.30050  1.0000
  H   H38       1.0  0.83963  0.47437  0.30058  1.0000
  H   H39       1.0  0.67725  0.43826  0.37605  1.0000
  H   H40       1.0  0.64014  0.47542  0.37868  1.0000
  H   H41       1.0  0.53003  0.36614  0.30058  1.0000
  H   H42       1.0  0.56664  0.32848  0.30049  1.0000
  C   C58       1.0  0.55913  0.44706  0.34169  1.0000
  C   C59       1.0  0.52176  0.43338  0.39134  1.0000
  C   C60       1.0  0.50133  0.45709  0.38904  1.0000
  C   C61       1.0  0.51739  0.49459  0.33963  1.0000
  C   C62       1.0  0.49448  0.51626  0.34001  1.0000
  C   C63       1.0  0.49074  0.53583  0.41822  1.0000
  C   C64       1.0  0.46792  0.55716  0.41434  1.0000
  H   H43       1.0  0.46536  0.57115  0.47128  1.0000
  H   H44       1.0  0.47422  0.44665  0.42465  1.0000
  N   N13       1.0  0.51034  0.53424  0.49837  1.0000
  N   N14       1.0  0.50600  0.39703  0.44508  1.0000
  O   O1        1.0  0.48414  0.51638  0.55987  1.0000
  O   O2        1.0  0.46970  0.36997  0.42187  1.0000
  O   O3        1.0  0.53705  0.57015  0.52440  1.0000
  O   O4        1.0  0.50550  0.40531  0.52646  1.0000
  C   C65       1.0  0.55734  0.11295  0.34170  1.0000
  C   C66       1.0  0.57103  0.08926  0.39132  1.0000
  C   C67       1.0  0.54732  0.04512  0.38902  1.0000
  C   C68       1.0  0.50982  0.02368  0.33963  1.0000
  C   C69       1.0  0.48815  0.97910  0.34001  1.0000
  C   C70       1.0  0.46857  0.95579  0.41821  1.0000
  C   C71       1.0  0.44724  0.91165  0.41433  1.0000
  H   H45       1.0  0.43325  0.89509  0.47128  1.0000
  H   H46       1.0  0.55777  0.02845  0.42461  1.0000
  N   N15       1.0  0.47015  0.97698  0.49836  1.0000
  N   N16       1.0  0.60739  0.10985  0.44504  1.0000
  O   O5        1.0  0.48801  0.96864  0.55987  1.0000
  O   O6        1.0  0.63445  0.10061  0.42181  1.0000
  O   O7        1.0  0.43423  0.96778  0.52438  1.0000
  O   O8        1.0  0.59912  0.10107  0.52642  1.0000
  C   C72       1.0  0.89146  0.44528  0.34169  1.0000
  C   C73       1.0  0.91514  0.48264  0.39134  1.0000
  C   C74       1.0  0.95929  0.50307  0.38903  1.0000
  C   C75       1.0  0.98072  0.48702  0.33963  1.0000
  C   C76       1.0  0.02531  0.50993  0.34001  1.0000
  C   C77       1.0  0.04862  0.51367  0.41821  1.0000
  C   C78       1.0  0.09276  0.53648  0.41434  1.0000
  H   H47       1.0  0.10931  0.53904  0.47128  1.0000
  H   H48       1.0  0.97596  0.53018  0.42465  1.0000
  N   N17       1.0  0.02743  0.49407  0.49837  1.0000
  N   N18       1.0  0.89456  0.49841  0.44508  1.0000
  O   O9        1.0  0.03577  0.52027  0.55987  1.0000
  O   O10       1.0  0.90380  0.53471  0.42188  1.0000
  O   O11       1.0  0.03663  0.46735  0.52440  1.0000
  O   O12       1.0  0.90334  0.49891  0.52646  1.0000
