data_image0
_chemical_formula_structural       C15H12C8H3NO2C8H3NO2C2NC2NC5NC3NC17H14C2HC2HC2H4C2HC2HC2H4
_chemical_formula_sum              "C72 H44 N6 O4"
_cell_length_a       25.7067
_cell_length_b       25.7067
_cell_length_c       14.9389
_cell_angle_alpha    90
_cell_angle_beta     90
_cell_angle_gamma    90

_space_group_name_H-M_alt    "P 1"
_space_group_IT_number       1

loop_
  _space_group_symop_operation_xyz
  'x, y, z'

loop_
  _atom_site_type_symbol
  _atom_site_label
  _atom_site_symmetry_multiplicity
  _atom_site_fract_x
  _atom_site_fract_y
  _atom_site_fract_z
  _atom_site_occupancy
  C   C1        1.0  0.89224  0.95339  0.33890  1.0000
  C   C2        1.0  0.05253  0.89059  0.34076  1.0000
  C   C3        1.0  0.00072  0.13841  0.34306  1.0000
  C   C4        1.0  0.95158  0.11323  0.34222  1.0000
  C   C5        1.0  0.86532  0.09958  0.34205  1.0000
  C   C6        1.0  0.90309  0.13773  0.34150  1.0000
  C   C7        1.0  0.72854  0.00447  0.25413  1.0000
  C   C8        1.0  0.78328  0.00480  0.25618  1.0000
  C   C9        1.0  0.00098  0.19390  0.34117  1.0000
  C   C10       1.0  0.00465  0.27525  0.25635  1.0000
  C   C11       1.0  0.00477  0.22053  0.25880  1.0000
  C   C12       1.0  0.22111  0.02142  0.26350  1.0000
  C   C13       1.0  0.27581  0.02257  0.26080  1.0000
  C   C14       1.0  0.02070  0.78258  0.25890  1.0000
  C   C15       1.0  0.02132  0.72786  0.25656  1.0000
  H   H1        1.0  0.03628  0.71038  0.20073  1.0000
  H   H2        1.0  0.03410  0.80281  0.20455  1.0000
  H   H3        1.0  0.89895  0.82835  0.32124  1.0000
  H   H4        1.0  0.20064  0.03460  0.20923  1.0000
  H   H5        1.0  0.29303  0.03767  0.20486  1.0000
  H   H6        1.0  0.10472  0.17597  0.35758  1.0000
  H   H7        1.0  0.82617  0.10653  0.34127  1.0000
  H   H8        1.0  0.89575  0.17681  0.34108  1.0000
  H   H9        1.0  0.00764  0.20025  0.20002  1.0000
  H   H10       1.0  0.00813  0.29317  0.19548  1.0000
  H   H11       1.0  0.80343  0.00786  0.19729  1.0000
  H   H12       1.0  0.71044  0.00797  0.19341  1.0000
  C   C16       1.0  0.00256  0.64162  0.32642  1.0000
  C   C17       1.0  0.99355  0.61430  0.24575  1.0000
  C   C18       1.0  0.99379  0.55924  0.24082  1.0000
  C   C19       1.0  0.00052  0.52916  0.32019  1.0000
  C   C20       1.0  0.00059  0.47277  0.32216  1.0000
  C   C21       1.0  0.96942  0.44204  0.26453  1.0000
  C   C22       1.0  0.96984  0.38742  0.26871  1.0000
  C   C23       1.0  0.00038  0.36075  0.33260  1.0000
  H   H13       1.0  0.94405  0.45892  0.22077  1.0000
  H   H14       1.0  0.94617  0.36722  0.22596  1.0000
  H   H15       1.0  0.98685  0.63460  0.18803  1.0000
  N   N1        1.0  0.99138  0.53509  0.15560  1.0000
  O   O1        1.0  0.95043  0.54654  0.11399  1.0000
  O   O2        1.0  0.02985  0.54682  0.10768  1.0000
  C   C24       1.0  0.36234  0.00370  0.32934  1.0000
  C   C25       1.0  0.38919  0.99450  0.24827  1.0000
  C   C26       1.0  0.44422  0.99451  0.24247  1.0000
  C   C27       1.0  0.47474  0.00127  0.32132  1.0000
  C   C28       1.0  0.53114  0.00114  0.32243  1.0000
  C   C29       1.0  0.56149  0.96986  0.26435  1.0000
  C   C30       1.0  0.61615  0.97010  0.26774  1.0000
  C   C31       1.0  0.64322  0.00054  0.33124  1.0000
  H   H16       1.0  0.54433  0.94453  0.22088  1.0000
  H   H17       1.0  0.63606  0.94634  0.22473  1.0000
  H   H18       1.0  0.36855  0.98778  0.19090  1.0000
  N   N2        1.0  0.46789  0.99188  0.15686  1.0000
  O   O3        1.0  0.45608  0.95089  0.11566  1.0000
  O   O4        1.0  0.45603  0.03030  0.10893  1.0000
  C   C32       1.0  0.90620  0.86718  0.32896  1.0000
  C   C33       1.0  0.86810  0.90497  0.33017  1.0000
  N   N3        1.0  0.94395  0.94305  0.34367  1.0000
  C   C34       1.0  0.95461  0.89144  0.33796  1.0000
  C   C35       1.0  0.00341  0.86510  0.33896  1.0000
  N   N4        1.0  0.06238  0.94231  0.34156  1.0000
  C   C36       1.0  0.11399  0.95271  0.34114  1.0000
  C   C37       1.0  0.13884  0.90439  0.33934  1.0000
  C   C38       1.0  0.10112  0.86627  0.34100  1.0000
  C   C39       1.0  0.13894  0.00210  0.34233  1.0000
  C   C40       1.0  0.11207  0.05058  0.34472  1.0000
  N   N5        1.0  0.06028  0.06064  0.34112  1.0000
  C   C41       1.0  0.04951  0.11227  0.34495  1.0000
  C   C42       1.0  0.09775  0.13696  0.35196  1.0000
  C   C43       1.0  0.13593  0.09925  0.35258  1.0000
  N   N6        1.0  0.94186  0.06155  0.34267  1.0000
  C   C44       1.0  0.89029  0.05132  0.34234  1.0000
  C   C45       1.0  0.86560  0.00193  0.34074  1.0000
  C   C46       1.0  0.81012  0.00125  0.33839  1.0000
  C   C47       1.0  0.78110  0.99745  0.41835  1.0000
  C   C48       1.0  0.72634  0.99731  0.41603  1.0000
  C   C49       1.0  0.69893  0.00076  0.33393  1.0000
  C   C50       1.0  0.99731  0.22310  0.42096  1.0000
  C   C51       1.0  0.99732  0.27786  0.41822  1.0000
  C   C52       1.0  0.00084  0.30506  0.33590  1.0000
  C   C53       1.0  0.19464  0.00312  0.34012  1.0000
  C   C54       1.0  0.30635  0.00416  0.33333  1.0000
  C   C55       1.0  0.27923  0.98571  0.40974  1.0000
  C   C56       1.0  0.22450  0.98585  0.41372  1.0000
  C   C57       1.0  0.00315  0.80939  0.33571  1.0000
  C   C58       1.0  0.98529  0.77984  0.40926  1.0000
  C   C59       1.0  0.98462  0.72511  0.40565  1.0000
  C   C60       1.0  0.00294  0.69764  0.32952  1.0000
  H   H19       1.0  0.96972  0.70554  0.45945  1.0000
  H   H20       1.0  0.97195  0.79807  0.46572  1.0000
  H   H21       1.0  0.82920  0.89765  0.32365  1.0000
  H   H22       1.0  0.97005  0.96934  0.35241  1.0000
  H   H23       1.0  0.03422  0.03427  0.33278  1.0000
  H   H24       1.0  0.10876  0.82727  0.34076  1.0000
  H   H25       1.0  0.17790  0.89717  0.33800  1.0000
  H   H26       1.0  0.20651  0.97219  0.47016  1.0000
  H   H27       1.0  0.29906  0.97090  0.46334  1.0000
  H   H28       1.0  0.17477  0.10692  0.35862  1.0000
  H   H29       1.0  0.99433  0.20467  0.48149  1.0000
  H   H30       1.0  0.99364  0.29773  0.47722  1.0000
  H   H31       1.0  0.70664  0.99365  0.47521  1.0000
  H   H32       1.0  0.79966  0.99473  0.47881  1.0000
  C   C61       1.0  0.01216  0.55627  0.40110  1.0000
  C   C62       1.0  0.01282  0.61125  0.40332  1.0000
  H   H33       1.0  0.02204  0.62936  0.46220  1.0000
  C   C63       1.0  0.02904  0.39116  0.39421  1.0000
  C   C64       1.0  0.02884  0.44618  0.39037  1.0000
  H   H34       1.0  0.05105  0.37306  0.44208  1.0000
  C   C65       1.0  0.05679  0.47698  0.45971  1.0000
  C   C66       1.0  0.02516  0.52637  0.48373  1.0000
  H   H35       1.0  0.09481  0.48825  0.43326  1.0000
  H   H36       1.0  0.06312  0.45436  0.52077  1.0000
  H   H37       1.0  0.04781  0.54964  0.53104  1.0000
  H   H38       1.0  0.98890  0.51511  0.51677  1.0000
  C   C67       1.0  0.44810  0.01302  0.40265  1.0000
  C   C68       1.0  0.39314  0.01390  0.40574  1.0000
  H   H39       1.0  0.37536  0.02317  0.46490  1.0000
  C   C69       1.0  0.61320  0.02937  0.39320  1.0000
  C   C70       1.0  0.55817  0.02936  0.39016  1.0000
  H   H40       1.0  0.63159  0.05133  0.44080  1.0000
  C   C71       1.0  0.52781  0.05743  0.45994  1.0000
  C   C72       1.0  0.47847  0.02596  0.48478  1.0000
  H   H41       1.0  0.51650  0.09547  0.43358  1.0000
  H   H42       1.0  0.55077  0.06375  0.52062  1.0000
  H   H43       1.0  0.45552  0.04870  0.53243  1.0000
  H   H44       1.0  0.48980  0.98968  0.51769  1.0000
