data_image0
_chemical_formula_structural       C13H9C13H9C13H9C13H9C2NC2OHC2NC2OHC2NC2OHNCHNCHNCHC17H12C17H12C17H12C17H12NCHNCHNCHC2NC2OHC2NC2OHC2NC2OH
_chemical_formula_sum              "C150 H96 N12 O6"
_cell_length_a       56.9472
_cell_length_b       56.9305
_cell_length_c       14.9847
_cell_angle_alpha    90
_cell_angle_beta     90
_cell_angle_gamma    120.005

_space_group_name_H-M_alt    "P 1"
_space_group_IT_number       1

loop_
  _space_group_symop_operation_xyz
  'x, y, z'

loop_
  _atom_site_type_symbol
  _atom_site_label
  _atom_site_symmetry_multiplicity
  _atom_site_fract_x
  _atom_site_fract_y
  _atom_site_fract_z
  _atom_site_occupancy
  C   C1        1.0  0.91333  0.83727  0.33006  1.0000
  C   C2        1.0  0.94003  0.89539  0.32718  1.0000
  C   C3        1.0  0.91357  0.87949  0.29236  1.0000
  C   C4        1.0  0.90050  0.85098  0.29371  1.0000
  C   C5        1.0  0.95276  0.92356  0.32296  1.0000
  C   C6        1.0  0.06612  0.02484  0.33351  1.0000
  C   C7        1.0  0.10984  0.02839  0.35645  1.0000
  C   C8        1.0  0.15181  0.07200  0.33815  1.0000
  C   C9        1.0  0.13833  0.04397  0.35805  1.0000
  C   C10       1.0  0.96550  0.04360  0.32859  1.0000
  C   C11       1.0  0.92275  0.04198  0.29773  1.0000
  C   C12       1.0  0.91729  0.08119  0.33361  1.0000
  C   C13       1.0  0.90699  0.05471  0.29849  1.0000
  H   H1        1.0  0.88124  0.84030  0.26862  1.0000
  H   H2        1.0  0.90347  0.88853  0.26590  1.0000
  H   H3        1.0  0.91462  0.02285  0.27173  1.0000
  H   H4        1.0  0.10071  0.00803  0.36955  1.0000
  H   H5        1.0  0.14915  0.03442  0.37102  1.0000
  H   H6        1.0  0.88766  0.04418  0.27383  1.0000
  H   H7        1.0  0.05838  0.00971  0.28955  1.0000
  H   H8        1.0  0.95053  0.93168  0.26696  1.0000
  H   H9        1.0  0.98148  0.05190  0.28812  1.0000
  C   C14       1.0  0.52641  0.36429  0.32441  1.0000
  C   C15       1.0  0.48351  0.30917  0.32393  1.0000
  C   C16       1.0  0.50898  0.31651  0.28587  1.0000
  C   C17       1.0  0.53007  0.34365  0.28597  1.0000
  C   C18       1.0  0.46362  0.28196  0.32500  1.0000
  C   C19       1.0  0.35199  0.18094  0.33767  1.0000
  C   C20       1.0  0.30849  0.17772  0.31120  1.0000
  C   C21       1.0  0.26600  0.13431  0.32701  1.0000
  C   C22       1.0  0.28000  0.16239  0.30729  1.0000
  C   C23       1.0  0.45581  0.17103  0.33887  1.0000
  C   C24       1.0  0.49525  0.17672  0.26042  1.0000
  C   C25       1.0  0.52170  0.15636  0.31652  1.0000
  C   C26       1.0  0.51765  0.17276  0.25421  1.0000
  H   H10       1.0  0.54842  0.34806  0.25959  1.0000
  H   H11       1.0  0.51263  0.30208  0.25915  1.0000
  H   H12       1.0  0.49372  0.18957  0.21602  1.0000
  H   H13       1.0  0.31789  0.19796  0.29602  1.0000
  H   H14       1.0  0.26957  0.17208  0.29081  1.0000
  H   H15       1.0  0.53172  0.18332  0.20598  1.0000
  H   H16       1.0  0.36096  0.19273  0.28497  1.0000
  H   H17       1.0  0.46086  0.27147  0.26892  1.0000
  H   H18       1.0  0.44403  0.16817  0.28611  1.0000
  C   C27       1.0  0.62370  0.16267  0.32606  1.0000
  C   C28       1.0  0.67888  0.17523  0.32455  1.0000
  C   C29       1.0  0.67143  0.19352  0.28859  1.0000
  C   C30       1.0  0.64425  0.18730  0.28922  1.0000
  C   C31       1.0  0.70611  0.18267  0.32479  1.0000
  C   C32       1.0  0.80516  0.16932  0.33708  1.0000
  C   C33       1.0  0.80819  0.12847  0.32389  1.0000
  C   C34       1.0  0.85234  0.13062  0.32623  1.0000
  C   C35       1.0  0.82373  0.11553  0.31993  1.0000
  C   C36       1.0  0.81765  0.28560  0.33729  1.0000
  C   C37       1.0  0.81220  0.31954  0.25902  1.0000
  C   C38       1.0  0.83235  0.36623  0.31629  1.0000
  C   C39       1.0  0.81614  0.34592  0.25331  1.0000
  H   H19       1.0  0.63972  0.20132  0.26428  1.0000
  H   H20       1.0  0.68579  0.21183  0.26299  1.0000
  H   H21       1.0  0.79945  0.30524  0.21421  1.0000
  H   H22       1.0  0.78753  0.11690  0.31882  1.0000
  H   H23       1.0  0.81388  0.09488  0.31332  1.0000
  H   H24       1.0  0.80571  0.34953  0.20488  1.0000
  H   H25       1.0  0.79161  0.16457  0.28841  1.0000
  H   H26       1.0  0.71650  0.19060  0.26868  1.0000
  H   H27       1.0  0.82061  0.27678  0.28447  1.0000
  C   C40       1.0  0.82591  0.46186  0.32686  1.0000
  C   C41       1.0  0.81314  0.50434  0.32550  1.0000
  C   C42       1.0  0.79488  0.47854  0.28980  1.0000
  C   C43       1.0  0.80120  0.45765  0.29035  1.0000
  C   C44       1.0  0.80562  0.52407  0.32559  1.0000
  C   C45       1.0  0.82075  0.63674  0.33792  1.0000
  C   C46       1.0  0.86159  0.68087  0.34009  1.0000
  C   C47       1.0  0.85910  0.72252  0.32571  1.0000
  C   C48       1.0  0.87441  0.70935  0.33619  1.0000
  C   C49       1.0  0.70289  0.53238  0.33549  1.0000
  C   C50       1.0  0.66913  0.49275  0.25782  1.0000
  C   C51       1.0  0.62238  0.46624  0.31442  1.0000
  C   C52       1.0  0.64279  0.47026  0.25205  1.0000
  H   H28       1.0  0.78722  0.43906  0.26557  1.0000
  H   H29       1.0  0.77654  0.47452  0.26439  1.0000
  H   H30       1.0  0.68349  0.49425  0.21339  1.0000
  H   H31       1.0  0.87332  0.67198  0.34650  1.0000
  H   H32       1.0  0.89513  0.72038  0.33911  1.0000
  H   H33       1.0  0.63929  0.45614  0.20403  1.0000
  H   H34       1.0  0.82689  0.62806  0.29312  1.0000
  H   H35       1.0  0.79764  0.52642  0.26941  1.0000
  H   H36       1.0  0.71177  0.54394  0.28226  1.0000
  C   C53       1.0  0.23715  0.11867  0.32401  1.0000
  C   C54       1.0  0.18051  0.08753  0.33584  1.0000
  N   N1        1.0  0.19309  0.10370  0.26448  1.0000
  C   C55       1.0  0.22047  0.11918  0.25398  1.0000
  C   C56       1.0  0.23039  0.13317  0.17451  1.0000
  O   O1        1.0  0.21481  0.13221  0.11655  1.0000
  H   H37       1.0  0.24749  0.13488  0.15116  1.0000
  C   C57       1.0  0.86825  0.11774  0.32303  1.0000
  C   C58       1.0  0.90116  0.09393  0.33265  1.0000
  N   N2        1.0  0.88260  0.08791  0.26663  1.0000
  C   C59       1.0  0.86606  0.09866  0.25745  1.0000
  C   C60       1.0  0.84905  0.09141  0.18387  1.0000
  O   O2        1.0  0.84865  0.07497  0.13041  1.0000
  H   H38       1.0  0.84623  0.10569  0.15679  1.0000
  C   C61       1.0  0.87227  0.75131  0.32218  1.0000
  C   C62       1.0  0.89987  0.80832  0.33002  1.0000
  N   N3        1.0  0.88153  0.79411  0.26490  1.0000
  C   C63       1.0  0.86736  0.76662  0.25741  1.0000
  C   C64       1.0  0.85115  0.75622  0.18278  1.0000
  O   O3        1.0  0.83263  0.76106  0.17513  1.0000
  H   H39       1.0  0.84712  0.73805  0.16201  1.0000
  N   N4        1.0  0.58655  0.16068  0.24846  1.0000
  C   C65       1.0  0.56210  0.15896  0.23941  1.0000
  H   H40       1.0  0.55641  0.16178  0.17758  1.0000
  N   N5        1.0  0.82819  0.42692  0.24888  1.0000
  C   C66       1.0  0.82992  0.40419  0.23961  1.0000
  H   H41       1.0  0.82726  0.39581  0.17762  1.0000
  N   N6        1.0  0.56177  0.40134  0.24666  1.0000
  C   C67       1.0  0.58458  0.42575  0.23760  1.0000
  H   H42       1.0  0.59306  0.43144  0.17572  1.0000
  C   C68       1.0  0.93999  0.85335  0.36373  1.0000
  C   C69       1.0  0.95317  0.88186  0.36190  1.0000
  C   C70       1.0  0.96700  0.94022  0.39041  1.0000
  C   C71       1.0  0.97947  0.96820  0.38468  1.0000
  C   C72       1.0  0.96399  0.98132  0.38110  1.0000
  C   C73       1.0  0.97664  0.00995  0.37903  1.0000
  C   C74       1.0  0.00533  0.02535  0.38172  1.0000
  C   C75       1.0  0.02127  0.01270  0.38423  1.0000
  C   C76       1.0  0.00803  0.98404  0.38708  1.0000
  C   C77       1.0  0.04938  0.02852  0.38760  1.0000
  C   C78       1.0  0.09410  0.04062  0.33726  1.0000
  C   C79       1.0  0.10748  0.06865  0.31768  1.0000
  C   C80       1.0  0.13599  0.08408  0.31727  1.0000
  C   C81       1.0  0.96073  0.02220  0.37948  1.0000
  C   C82       1.0  0.94948  0.05554  0.33142  1.0000
  C   C83       1.0  0.96014  0.08208  0.36527  1.0000
  C   C84       1.0  0.94420  0.09461  0.36686  1.0000
  H   H43       1.0  0.95054  0.84451  0.38774  1.0000
  H   H44       1.0  0.97264  0.89265  0.38517  1.0000
  H   H45       1.0  0.01932  0.97460  0.39145  1.0000
  H   H46       1.0  0.94323  0.96985  0.38094  1.0000
  H   H47       1.0  0.01477  0.04611  0.38240  1.0000
  H   H48       1.0  0.14511  0.10432  0.30250  1.0000
  H   H49       1.0  0.09660  0.07797  0.30204  1.0000
  H   H50       1.0  0.95288  0.11405  0.39031  1.0000
  H   H51       1.0  0.97960  0.09254  0.38899  1.0000
  H   H52       1.0  0.05729  0.04376  0.43119  1.0000
  H   H53       1.0  0.96931  0.93250  0.44709  1.0000
  H   H54       1.0  0.94456  0.01418  0.41934  1.0000
  C   C85       1.0  0.50075  0.35704  0.36088  1.0000
  C   C86       1.0  0.47955  0.32982  0.36072  1.0000
  C   C87       1.0  0.45179  0.26837  0.40043  1.0000
  C   C88       1.0  0.43788  0.24031  0.40302  1.0000
  C   C89       1.0  0.45274  0.22655  0.40648  1.0000
  C   C90       1.0  0.43944  0.19795  0.40816  1.0000
  C   C91       1.0  0.41080  0.18302  0.40799  1.0000
  C   C92       1.0  0.39555  0.19642  0.40499  1.0000
  C   C93       1.0  0.40927  0.22512  0.40296  1.0000
  C   C94       1.0  0.36749  0.18128  0.40595  1.0000
  C   C95       1.0  0.32385  0.16555  0.33676  1.0000
  C   C96       1.0  0.30992  0.13755  0.35739  1.0000
  C   C97       1.0  0.28143  0.12225  0.35340  1.0000
  C   C98       1.0  0.45497  0.18543  0.40868  1.0000
  C   C99       1.0  0.47611  0.16452  0.32972  1.0000
  C   C100      1.0  0.47952  0.14767  0.39125  1.0000
  C   C101      1.0  0.50201  0.14374  0.38473  1.0000
  H   H55       1.0  0.49728  0.37155  0.38774  1.0000
  H   H56       1.0  0.46126  0.32517  0.38807  1.0000
  H   H57       1.0  0.39838  0.23502  0.40129  1.0000
  H   H58       1.0  0.47355  0.23754  0.40632  1.0000
  H   H59       1.0  0.40103  0.16223  0.40946  1.0000
  H   H60       1.0  0.27206  0.10200  0.36808  1.0000
  H   H61       1.0  0.32040  0.12796  0.37470  1.0000
  H   H62       1.0  0.50409  0.13187  0.43174  1.0000
  H   H63       1.0  0.46613  0.13880  0.44280  1.0000
  H   H64       1.0  0.35879  0.16958  0.45896  1.0000
  H   H65       1.0  0.45618  0.27811  0.45854  1.0000
  H   H66       1.0  0.46859  0.19060  0.45736  1.0000
  C   C102      1.0  0.63106  0.14411  0.36051  1.0000
  C   C103      1.0  0.65833  0.15032  0.35988  1.0000
  C   C104      1.0  0.71985  0.18406  0.39947  1.0000
  C   C105      1.0  0.74791  0.19820  0.40134  1.0000
  C   C106      1.0  0.76169  0.22681  0.40486  1.0000
  C   C107      1.0  0.79029  0.24211  0.40538  1.0000
  C   C108      1.0  0.80517  0.22835  0.40390  1.0000
  C   C109      1.0  0.79178  0.19968  0.40086  1.0000
  C   C110      1.0  0.76306  0.18474  0.40017  1.0000
  C   C111      1.0  0.80701  0.18680  0.40085  1.0000
  C   C112      1.0  0.82080  0.15685  0.33571  1.0000
  C   C113      1.0  0.84939  0.17198  0.34253  1.0000
  C   C114      1.0  0.86489  0.15900  0.33871  1.0000
  C   C115      1.0  0.80281  0.27016  0.40616  1.0000
  C   C116      1.0  0.82415  0.31243  0.32864  1.0000
  C   C117      1.0  0.84081  0.33256  0.39088  1.0000
  C   C118      1.0  0.84475  0.35899  0.38475  1.0000
  H   H67       1.0  0.61660  0.12591  0.38620  1.0000
  H   H68       1.0  0.66308  0.13656  0.38565  1.0000
  H   H69       1.0  0.75312  0.16396  0.39866  1.0000
  H   H70       1.0  0.75072  0.23665  0.40552  1.0000
  H   H71       1.0  0.82596  0.23937  0.40455  1.0000
  H   H72       1.0  0.88555  0.17060  0.34328  1.0000
  H   H73       1.0  0.85922  0.19262  0.34963  1.0000
  H   H74       1.0  0.85647  0.37283  0.43226  1.0000
  H   H75       1.0  0.84953  0.32791  0.44259  1.0000
  H   H76       1.0  0.82060  0.19168  0.44942  1.0000
  H   H77       1.0  0.71023  0.17841  0.45772  1.0000
  H   H78       1.0  0.79758  0.27860  0.45477  1.0000
  C   C119      1.0  0.84443  0.48782  0.36112  1.0000
  C   C120      1.0  0.83812  0.50883  0.36056  1.0000
  C   C121      1.0  0.80419  0.53647  0.40010  1.0000
  C   C122      1.0  0.79013  0.55047  0.40166  1.0000
  C   C123      1.0  0.76152  0.53568  0.40516  1.0000
  C   C124      1.0  0.74627  0.54903  0.40469  1.0000
  C   C125      1.0  0.76006  0.57767  0.40194  1.0000
  C   C126      1.0  0.78874  0.59295  0.39886  1.0000
  C   C127      1.0  0.80361  0.57908  0.39948  1.0000
  C   C128      1.0  0.80160  0.62110  0.39759  1.0000
  C   C129      1.0  0.83304  0.66481  0.33595  1.0000
  C   C130      1.0  0.81765  0.67792  0.32655  1.0000
  C   C131      1.0  0.83051  0.70639  0.32200  1.0000
  C   C132      1.0  0.71822  0.53351  0.40542  1.0000
  C   C133      1.0  0.67609  0.51198  0.32684  1.0000
  C   C134      1.0  0.65586  0.50856  0.38856  1.0000
  C   C135      1.0  0.62947  0.48601  0.38238  1.0000
  H   H79       1.0  0.86267  0.49164  0.38661  1.0000
  H   H80       1.0  0.85185  0.52737  0.38612  1.0000
  H   H81       1.0  0.82439  0.58986  0.39807  1.0000
  H   H82       1.0  0.75166  0.51487  0.40650  1.0000
  H   H83       1.0  0.74904  0.58744  0.40163  1.0000
  H   H84       1.0  0.81874  0.71524  0.31670  1.0000
  H   H85       1.0  0.79694  0.66685  0.32264  1.0000
  H   H86       1.0  0.61554  0.48395  0.42945  1.0000
  H   H87       1.0  0.66039  0.52203  0.43985  1.0000
  H   H88       1.0  0.79543  0.62992  0.44185  1.0000
  H   H89       1.0  0.81004  0.53274  0.45837  1.0000
  H   H90       1.0  0.70978  0.52010  0.45472  1.0000
  N   N7        1.0  0.22447  0.10218  0.39496  1.0000
  C   C136      1.0  0.19722  0.08651  0.40326  1.0000
  H   H91       1.0  0.18929  0.07490  0.45917  1.0000
  N   N8        1.0  0.88686  0.12398  0.38911  1.0000
  C   C137      1.0  0.90324  0.11316  0.39631  1.0000
  H   H92       1.0  0.91624  0.11866  0.44919  1.0000
  N   N9        1.0  0.89063  0.76537  0.38740  1.0000
  C   C138      1.0  0.90446  0.79279  0.39381  1.0000
  H   H93       1.0  0.91746  0.80157  0.44609  1.0000
  C   C139      1.0  0.59654  0.15739  0.32699  1.0000
  C   C140      1.0  0.54587  0.15456  0.31580  1.0000
  N   N10       1.0  0.55588  0.15093  0.39390  1.0000
  C   C141      1.0  0.57987  0.15136  0.40391  1.0000
  C   C142      1.0  0.58723  0.14929  0.49004  1.0000
  O   O4        1.0  0.57121  0.12982  0.53453  1.0000
  H   H94       1.0  0.60659  0.15589  0.50330  1.0000
  C   C143      1.0  0.83130  0.44005  0.32761  1.0000
  C   C144      1.0  0.83410  0.39219  0.31597  1.0000
  N   N11       1.0  0.83756  0.40569  0.39428  1.0000
  C   C145      1.0  0.83708  0.42921  0.40457  1.0000
  C   C146      1.0  0.83908  0.43860  0.49077  1.0000
  O   O5        1.0  0.85820  0.44153  0.53611  1.0000
  H   H95       1.0  0.83277  0.45161  0.50383  1.0000
  C   C147      1.0  0.54848  0.39138  0.32519  1.0000
  C   C148      1.0  0.59643  0.44202  0.31393  1.0000
  N   N12       1.0  0.58277  0.43209  0.39205  1.0000
  C   C149      1.0  0.55921  0.40810  0.40199  1.0000
  C   C150      1.0  0.54972  0.40094  0.48805  1.0000
  O   O6        1.0  0.54237  0.41544  0.52408  1.0000
  H   H96       1.0  0.53838  0.38142  0.50229  1.0000
