data_image0
_chemical_formula_structural       C2H2C3NC2NC4NC4NC35H23C21H18C16H16C2H6C2H6C4H6C2H6C2H6C4H6C18H17C3NC3NC2NC5NC34H24C3NC3NC5NC5NC36H26C4NC2NCHCHC4NC2NCHCHC2NC2NCHCHC4NC2NCHCHC4NC2NCHCHC2NC2NCHCH
_chemical_formula_sum              "C264 H174 N24"
_cell_length_a       58.6847
_cell_length_b       58.6847
_cell_length_c       14.975
_cell_angle_alpha    89.7736
_cell_angle_beta     90.2264
_cell_angle_gamma    120

_space_group_name_H-M_alt    "P 1"
_space_group_IT_number       1

loop_
  _space_group_symop_operation_xyz
  'x, y, z'

loop_
  _atom_site_type_symbol
  _atom_site_label
  _atom_site_symmetry_multiplicity
  _atom_site_fract_x
  _atom_site_fract_y
  _atom_site_fract_z
  _atom_site_occupancy
  C   C1        1.0  0.01124  0.50416  0.33098  1.0000
  C   C2        1.0  0.01125  0.60239  0.32865  1.0000
  H   H1        1.0  0.00842  0.46579  0.32554  1.0000
  H   H2        1.0  0.00859  0.63803  0.32214  1.0000
  C   C3        1.0  0.01981  0.48584  0.32720  1.0000
  C   C4        1.0  0.04697  0.49941  0.32531  1.0000
  C   C5        1.0  0.05563  0.52632  0.32877  1.0000
  N   N1        1.0  0.03345  0.52805  0.33174  1.0000
  C   C6        1.0  0.98447  0.49780  0.33374  1.0000
  C   C7        1.0  0.97580  0.51648  0.33403  1.0000
  N   N2        1.0  0.99066  0.54300  0.33092  1.0000
  C   C8        1.0  0.97578  0.55466  0.33157  1.0000
  C   C9        1.0  0.94966  0.53425  0.33529  1.0000
  C   C10       1.0  0.94967  0.51075  0.33674  1.0000
  C   C11       1.0  0.98444  0.58200  0.32910  1.0000
  N   N3        1.0  0.03343  0.60065  0.33174  1.0000
  C   C12       1.0  0.05564  0.62455  0.33106  1.0000
  C   C13       1.0  0.04707  0.64287  0.32715  1.0000
  C   C14       1.0  0.01991  0.62931  0.32513  1.0000
  C   C15       1.0  0.08242  0.63091  0.33403  1.0000
  N   N4        1.0  0.07622  0.58571  0.33123  1.0000
  C   C16       1.0  0.09110  0.57406  0.33186  1.0000
  C   C17       1.0  0.11723  0.59446  0.33564  1.0000
  C   C18       1.0  0.11722  0.61796  0.33716  1.0000
  C   C19       1.0  0.08244  0.54671  0.32929  1.0000
  C   C20       1.0  0.10222  0.53937  0.32682  1.0000
  C   C21       1.0  0.11542  0.54105  0.24627  1.0000
  C   C22       1.0  0.13625  0.53569  0.24500  1.0000
  C   C23       1.0  0.14430  0.52826  0.32386  1.0000
  C   C24       1.0  0.16647  0.52443  0.32365  1.0000
  C   C25       1.0  0.21285  0.54043  0.28783  1.0000
  C   C26       1.0  0.19051  0.54338  0.28458  1.0000
  C   C27       1.0  0.10215  0.65801  0.33673  1.0000
  C   C28       1.0  0.11272  0.67233  0.25703  1.0000
  C   C29       1.0  0.13316  0.69872  0.26004  1.0000
  C   C30       1.0  0.14371  0.71148  0.34255  1.0000
  C   C31       1.0  0.16543  0.73781  0.34536  1.0000
  C   C32       1.0  0.16644  0.75775  0.28908  1.0000
  C   C33       1.0  0.18836  0.78339  0.28972  1.0000
  C   C34       1.0  0.20998  0.79001  0.34708  1.0000
  C   C35       1.0  0.96468  0.58938  0.32676  1.0000
  C   C36       1.0  0.92306  0.60117  0.32378  1.0000
  C   C37       1.0  0.93075  0.59356  0.24501  1.0000
  C   C38       1.0  0.95136  0.58786  0.24629  1.0000
  C   C39       1.0  0.90122  0.60554  0.32347  1.0000
  C   C40       1.0  0.87696  0.58694  0.28455  1.0000
  C   C41       1.0  0.85496  0.59046  0.28765  1.0000
  C   C42       1.0  0.85644  0.61278  0.32921  1.0000
  C   C43       1.0  0.96471  0.47070  0.33641  1.0000
  C   C44       1.0  0.95384  0.45657  0.25669  1.0000
  C   C45       1.0  0.93319  0.43028  0.25970  1.0000
  C   C46       1.0  0.92270  0.41744  0.34222  1.0000
  C   C47       1.0  0.90066  0.39128  0.34504  1.0000
  C   C48       1.0  0.85541  0.33952  0.34667  1.0000
  C   C49       1.0  0.87682  0.34583  0.28909  1.0000
  C   C50       1.0  0.89908  0.37125  0.28847  1.0000
  H   H3        1.0  0.87637  0.33191  0.24700  1.0000
  H   H4        1.0  0.91423  0.37497  0.24627  1.0000
  H   H5        1.0  0.92518  0.42093  0.20063  1.0000
  H   H6        1.0  0.96049  0.46551  0.19599  1.0000
  H   H7        1.0  0.05829  0.49070  0.32240  1.0000
  H   H8        1.0  0.03347  0.54438  0.33609  1.0000
  H   H9        1.0  0.03341  0.58432  0.33622  1.0000
  H   H10       1.0  0.93313  0.49260  0.33935  1.0000
  H   H11       1.0  0.93311  0.53585  0.33714  1.0000
  H   H12       1.0  0.95625  0.58210  0.18844  1.0000
  H   H13       1.0  0.92135  0.59204  0.18576  1.0000
  H   H14       1.0  0.05845  0.66292  0.32557  1.0000
  H   H15       1.0  0.13376  0.63611  0.33979  1.0000
  H   H16       1.0  0.10597  0.66349  0.19631  1.0000
  H   H17       1.0  0.14091  0.70824  0.20095  1.0000
  H   H18       1.0  0.18840  0.79724  0.24784  1.0000
  H   H19       1.0  0.15112  0.75381  0.24706  1.0000
  H   H20       1.0  0.19228  0.56008  0.25615  1.0000
  H   H21       1.0  0.23008  0.55507  0.26149  1.0000
  H   H22       1.0  0.14561  0.53739  0.18574  1.0000
  H   H23       1.0  0.11034  0.54678  0.18841  1.0000
  H   H24       1.0  0.87479  0.57012  0.25624  1.0000
  H   H25       1.0  0.83755  0.57607  0.26145  1.0000
  C   C51       1.0  0.54492  0.51995  0.33450  1.0000
  C   C52       1.0  0.56532  0.51421  0.33814  1.0000
  C   C53       1.0  0.58883  0.53773  0.33966  1.0000
  C   C54       1.0  0.55857  0.67335  0.24893  1.0000
  C   C55       1.0  0.56393  0.69955  0.24760  1.0000
  C   C56       1.0  0.55923  0.77136  0.29012  1.0000
  C   C57       1.0  0.55626  0.74607  0.28696  1.0000
  C   C58       1.0  0.42728  0.53932  0.25935  1.0000
  C   C59       1.0  0.40089  0.53336  0.26211  1.0000
  C   C60       1.0  0.34183  0.50751  0.29071  1.0000
  C   C61       1.0  0.31619  0.50378  0.29100  1.0000
  C   C62       1.0  0.30952  0.51869  0.34799  1.0000
  C   C63       1.0  0.50604  0.43620  0.24791  1.0000
  C   C64       1.0  0.51173  0.46251  0.24919  1.0000
  C   C65       1.0  0.51270  0.38898  0.28755  1.0000
  C   C66       1.0  0.50920  0.36346  0.29062  1.0000
  C   C67       1.0  0.64300  0.59632  0.25940  1.0000
  C   C68       1.0  0.66929  0.60196  0.26220  1.0000
  C   C69       1.0  0.76010  0.61475  0.34798  1.0000
  C   C70       1.0  0.75375  0.63003  0.29086  1.0000
  C   C71       1.0  0.72832  0.62686  0.29066  1.0000
  H   H26       1.0  0.76763  0.64363  0.24877  1.0000
  H   H27       1.0  0.72457  0.63842  0.24873  1.0000
  H   H28       1.0  0.67864  0.60352  0.20304  1.0000
  H   H29       1.0  0.63405  0.59422  0.19876  1.0000
  H   H30       1.0  0.60698  0.53933  0.34225  1.0000
  H   H31       1.0  0.51751  0.47328  0.19137  1.0000
  H   H32       1.0  0.50758  0.42845  0.18867  1.0000
  H   H33       1.0  0.46155  0.46940  0.32527  1.0000
  H   H34       1.0  0.43615  0.54148  0.19873  1.0000
  H   H35       1.0  0.39139  0.53164  0.20293  1.0000
  H   H36       1.0  0.30238  0.49002  0.24909  1.0000
  H   H37       1.0  0.34581  0.49618  0.24894  1.0000
  H   H38       1.0  0.53957  0.73120  0.25845  1.0000
  H   H39       1.0  0.54459  0.77400  0.26380  1.0000
  H   H40       1.0  0.56225  0.70732  0.18829  1.0000
  H   H41       1.0  0.55283  0.66265  0.19111  1.0000
  H   H42       1.0  0.52952  0.40369  0.25928  1.0000
  H   H43       1.0  0.52360  0.36051  0.26443  1.0000
  C   C72       1.0  0.42638  0.98427  0.25012  1.0000
  C   C73       1.0  0.40019  0.96343  0.24827  1.0000
  C   C74       1.0  0.32836  0.88676  0.28940  1.0000
  C   C75       1.0  0.35365  0.90910  0.28678  1.0000
  C   C76       1.0  0.56030  0.98692  0.26202  1.0000
  C   C77       1.0  0.56628  0.96650  0.26483  1.0000
  C   C78       1.0  0.59213  0.93325  0.29362  1.0000
  C   C79       1.0  0.59586  0.91134  0.29391  1.0000
  C   C80       1.0  0.66322  0.16872  0.24862  1.0000
  C   C81       1.0  0.63692  0.14811  0.25046  1.0000
  C   C82       1.0  0.71052  0.22255  0.28711  1.0000
  C   C83       1.0  0.73604  0.24456  0.28958  1.0000
  C   C84       1.0  0.50327  0.14564  0.26176  1.0000
  C   C85       1.0  0.49762  0.16628  0.26457  1.0000
  C   C86       1.0  0.46960  0.22265  0.29324  1.0000
  C   C87       1.0  0.47276  0.20039  0.29301  1.0000
  H   H44       1.0  0.45602  0.22304  0.25112  1.0000
  H   H45       1.0  0.46121  0.18518  0.25102  1.0000
  H   H46       1.0  0.49611  0.17422  0.20543  1.0000
  H   H47       1.0  0.50538  0.13893  0.20111  1.0000
  H   H48       1.0  0.62605  0.14315  0.19283  1.0000
  H   H49       1.0  0.67088  0.17806  0.18919  1.0000
  H   H50       1.0  0.55814  0.99375  0.20137  1.0000
  H   H51       1.0  0.56798  0.95882  0.20568  1.0000
  H   H52       1.0  0.60961  0.91136  0.25204  1.0000
  H   H53       1.0  0.60346  0.94864  0.25186  1.0000
  H   H54       1.0  0.36858  0.90737  0.25862  1.0000
  H   H55       1.0  0.32577  0.86956  0.26299  1.0000
  H   H56       1.0  0.39252  0.95415  0.18881  1.0000
  H   H57       1.0  0.43717  0.98941  0.19249  1.0000
  H   H58       1.0  0.69574  0.22470  0.25927  1.0000
  H   H59       1.0  0.73894  0.26195  0.26339  1.0000
  C   C88       1.0  0.25045  0.51992  0.25846  1.0000
  C   C89       1.0  0.27433  0.51981  0.26285  1.0000
  H   H60       1.0  0.28515  0.52358  0.20567  1.0000
  H   H61       1.0  0.24450  0.52317  0.19785  1.0000
  H   H62       1.0  0.23304  0.51708  0.03615  1.0000
  H   H63       1.0  0.21564  0.48240  0.01968  1.0000
  H   H64       1.0  0.26257  0.49695  0.05548  1.0000
  H   H65       1.0  0.29385  0.51732  0.00772  1.0000
  C   C90       1.0  0.57974  0.82955  0.26106  1.0000
  C   C91       1.0  0.57982  0.85351  0.26556  1.0000
  H   H66       1.0  0.57611  0.86072  0.20837  1.0000
  H   H67       1.0  0.57653  0.82050  0.20039  1.0000
  H   H68       1.0  0.58233  0.81452  0.03877  1.0000
  H   H69       1.0  0.61702  0.83185  0.02244  1.0000
  H   H70       1.0  0.60245  0.86413  0.05831  1.0000
  H   H71       1.0  0.58211  0.87517  0.01053  1.0000
  C   C92       1.0  0.23293  0.81548  0.34452  1.0000
  C   C93       1.0  0.28183  0.86440  0.33627  1.0000
  C   C94       1.0  0.27024  0.84917  0.25880  1.0000
  C   C95       1.0  0.24627  0.82528  0.26268  1.0000
  H   H72       1.0  0.23920  0.81451  0.20535  1.0000
  H   H73       1.0  0.27945  0.85518  0.19840  1.0000
  H   H74       1.0  0.28424  0.86615  0.03674  1.0000
  H   H75       1.0  0.26693  0.88356  0.02001  1.0000
  H   H76       1.0  0.23456  0.83662  0.05506  1.0000
  H   H77       1.0  0.22366  0.80538  0.00710  1.0000
  C   C96       1.0  0.81824  0.61214  0.25820  1.0000
  C   C97       1.0  0.79466  0.61282  0.26270  1.0000
  H   H78       1.0  0.78379  0.60935  0.20555  1.0000
  H   H79       1.0  0.82393  0.60876  0.19757  1.0000
  H   H80       1.0  0.83584  0.61459  0.03588  1.0000
  H   H81       1.0  0.85386  0.64928  0.01918  1.0000
  H   H82       1.0  0.80722  0.63568  0.05522  1.0000
  H   H83       1.0  0.77574  0.61590  0.00762  1.0000
  C   C98       1.0  0.48755  0.30513  0.26088  1.0000
  C   C99       1.0  0.48685  0.28086  0.26528  1.0000
  H   H84       1.0  0.49037  0.27361  0.20815  1.0000
  H   H85       1.0  0.49097  0.31436  0.20032  1.0000
  H   H86       1.0  0.48482  0.31983  0.03855  1.0000
  H   H87       1.0  0.45014  0.30319  0.02167  1.0000
  H   H88       1.0  0.46374  0.27008  0.05767  1.0000
  H   H89       1.0  0.48353  0.25849  0.01013  1.0000
  C   C100      1.0  0.83213  0.31431  0.34412  1.0000
  C   C101      1.0  0.78263  0.26600  0.33601  1.0000
  C   C102      1.0  0.79430  0.28125  0.25853  1.0000
  C   C103      1.0  0.81857  0.30483  0.26234  1.0000
  H   H90       1.0  0.82571  0.31563  0.20498  1.0000
  H   H91       1.0  0.78495  0.27548  0.19818  1.0000
  H   H92       1.0  0.78047  0.26415  0.03660  1.0000
  H   H93       1.0  0.79712  0.24616  0.01941  1.0000
  H   H94       1.0  0.83021  0.29290  0.05465  1.0000
  H   H95       1.0  0.84169  0.32430  0.00658  1.0000
  C   C104      1.0  0.09108  0.61223  0.33442  1.0000
  C   C105      1.0  0.13056  0.52603  0.40393  1.0000
  C   C106      1.0  0.10991  0.53169  0.40561  1.0000
  C   C107      1.0  0.16545  0.50218  0.36473  1.0000
  C   C108      1.0  0.18774  0.49907  0.36700  1.0000
  C   C109      1.0  0.21194  0.51831  0.32958  1.0000
  C   C110      1.0  0.13273  0.69696  0.42208  1.0000
  C   C111      1.0  0.11222  0.67062  0.41937  1.0000
  C   C112      1.0  0.20902  0.77016  0.40344  1.0000
  C   C113      1.0  0.18711  0.74456  0.40276  1.0000
  C   C114      1.0  0.95730  0.59718  0.40550  1.0000
  C   C115      1.0  0.93687  0.60317  0.40381  1.0000
  C   C116      1.0  0.88087  0.63166  0.36643  1.0000
  C   C117      1.0  0.90282  0.62800  0.36425  1.0000
  C   C118      1.0  0.95475  0.45798  0.41904  1.0000
  C   C119      1.0  0.93402  0.43174  0.42175  1.0000
  C   C120      1.0  0.87918  0.38485  0.40262  1.0000
  C   C121      1.0  0.85694  0.35947  0.40331  1.0000
  H   H96       1.0  0.84147  0.35594  0.44366  1.0000
  H   H97       1.0  0.87907  0.39890  0.44262  1.0000
  H   H98       1.0  0.92721  0.42316  0.48281  1.0000
  H   H99       1.0  0.96219  0.46789  0.47773  1.0000
  H   H100      1.0  0.96642  0.59810  0.46487  1.0000
  H   H101      1.0  0.93148  0.60800  0.46252  1.0000
  H   H102      1.0  0.13378  0.59286  0.33752  1.0000
  H   H103      1.0  0.10497  0.66059  0.47804  1.0000
  H   H104      1.0  0.13958  0.70548  0.48314  1.0000
  H   H105      1.0  0.18763  0.73061  0.44254  1.0000
  H   H106      1.0  0.22467  0.77395  0.44367  1.0000
  H   H107      1.0  0.10091  0.53070  0.46506  1.0000
  H   H108      1.0  0.13621  0.52135  0.46273  1.0000
  H   H109      1.0  0.18613  0.48258  0.39651  1.0000
  H   H110      1.0  0.14834  0.48788  0.39284  1.0000
  H   H111      1.0  0.92010  0.64206  0.39219  1.0000
  H   H112      1.0  0.88289  0.64829  0.39576  1.0000
  C   C122      1.0  0.61374  0.63280  0.33014  1.0000
  C   C123      1.0  0.60017  0.64639  0.32820  1.0000
  C   C124      1.0  0.57326  0.62813  0.33165  1.0000
  N   N5        1.0  0.57153  0.60422  0.33467  1.0000
  C   C125      1.0  0.59543  0.60590  0.33392  1.0000
  C   C126      1.0  0.60179  0.58548  0.33671  1.0000
  C   C127      1.0  0.58310  0.55814  0.33703  1.0000
  N   N6        1.0  0.55658  0.54648  0.33392  1.0000
  C   C128      1.0  0.51757  0.50126  0.33205  1.0000
  C   C129      1.0  0.49719  0.50769  0.33164  1.0000
  N   N7        1.0  0.49892  0.53160  0.33467  1.0000
  C   C130      1.0  0.47503  0.52992  0.33393  1.0000
  C   C131      1.0  0.45670  0.50303  0.33014  1.0000
  C   C132      1.0  0.47027  0.48944  0.32822  1.0000
  C   C133      1.0  0.46866  0.55033  0.33672  1.0000
  C   C134      1.0  0.48735  0.57767  0.33706  1.0000
  N   N8        1.0  0.51386  0.58933  0.33402  1.0000
  C   C135      1.0  0.52552  0.61587  0.33458  1.0000
  C   C136      1.0  0.50512  0.62159  0.33820  1.0000
  C   C137      1.0  0.48162  0.59807  0.33967  1.0000
  C   C138      1.0  0.55287  0.63456  0.33209  1.0000
  C   C139      1.0  0.56021  0.66168  0.32954  1.0000
  C   C140      1.0  0.57135  0.71489  0.32642  1.0000
  C   C141      1.0  0.57354  0.70322  0.40656  1.0000
  C   C142      1.0  0.56790  0.67691  0.40830  1.0000
  C   C143      1.0  0.57520  0.74089  0.32614  1.0000
  C   C144      1.0  0.59743  0.76203  0.36730  1.0000
  C   C145      1.0  0.60053  0.78742  0.36958  1.0000
  C   C146      1.0  0.58131  0.79247  0.33207  1.0000
  C   C147      1.0  0.44156  0.54296  0.33919  1.0000
  C   C148      1.0  0.38808  0.53102  0.34449  1.0000
  C   C149      1.0  0.40255  0.53444  0.42415  1.0000
  C   C150      1.0  0.42890  0.54029  0.42170  1.0000
  C   C151      1.0  0.36173  0.52636  0.34701  1.0000
  C   C152      1.0  0.32932  0.53750  0.40440  1.0000
  C   C153      1.0  0.35493  0.54122  0.40404  1.0000
  C   C154      1.0  0.51020  0.47413  0.32968  1.0000
  C   C155      1.0  0.50237  0.45877  0.40839  1.0000
  C   C156      1.0  0.49640  0.43237  0.40669  1.0000
  C   C157      1.0  0.49841  0.42073  0.32666  1.0000
  C   C158      1.0  0.49407  0.39453  0.32634  1.0000
  C   C159      1.0  0.48686  0.34251  0.33200  1.0000
  C   C160      1.0  0.46795  0.34796  0.36914  1.0000
  C   C161      1.0  0.47159  0.37356  0.36700  1.0000
  C   C162      1.0  0.62888  0.59282  0.33922  1.0000
  C   C163      1.0  0.64163  0.59534  0.42175  1.0000
  C   C164      1.0  0.68216  0.60408  0.34461  1.0000
  C   C165      1.0  0.66788  0.60086  0.42425  1.0000
  C   C166      1.0  0.70833  0.60823  0.34717  1.0000
  C   C167      1.0  0.71481  0.59303  0.40436  1.0000
  C   C168      1.0  0.74020  0.59617  0.40462  1.0000
  H   H113      1.0  0.74376  0.58411  0.44467  1.0000
  H   H114      1.0  0.70080  0.57875  0.44431  1.0000
  H   H115      1.0  0.67647  0.60244  0.48524  1.0000
  H   H116      1.0  0.63173  0.59267  0.48051  1.0000
  H   H117      1.0  0.63378  0.64145  0.32848  1.0000
  H   H118      1.0  0.60888  0.66643  0.32526  1.0000
  H   H119      1.0  0.55520  0.58790  0.33902  1.0000
  H   H120      1.0  0.51526  0.54791  0.33882  1.0000
  H   H121      1.0  0.56372  0.49606  0.34003  1.0000
  H   H122      1.0  0.50146  0.46686  0.46777  1.0000
  H   H123      1.0  0.49157  0.42203  0.46540  1.0000
  H   H124      1.0  0.43665  0.49437  0.32857  1.0000
  H   H125      1.0  0.50672  0.63974  0.33998  1.0000
  H   H126      1.0  0.46346  0.59646  0.34216  1.0000
  H   H127      1.0  0.43890  0.54299  0.48047  1.0000
  H   H128      1.0  0.39401  0.53268  0.48513  1.0000
  H   H129      1.0  0.36884  0.55561  0.44394  1.0000
  H   H130      1.0  0.32550  0.54929  0.44443  1.0000
  H   H131      1.0  0.56884  0.66877  0.46779  1.0000
  H   H132      1.0  0.57823  0.71345  0.46532  1.0000
  H   H133      1.0  0.61701  0.80224  0.39921  1.0000
  H   H134      1.0  0.61171  0.75915  0.39551  1.0000
  H   H135      1.0  0.45751  0.37672  0.39488  1.0000
  H   H136      1.0  0.45130  0.33327  0.39836  1.0000
  C   C169      1.0  0.46678  0.07975  0.33235  1.0000
  C   C170      1.0  0.45319  0.05259  0.33026  1.0000
  C   C171      1.0  0.47145  0.04393  0.33371  1.0000
  N   N9        1.0  0.49536  0.06611  0.33693  1.0000
  C   C172      1.0  0.49367  0.08832  0.33621  1.0000
  C   C173      1.0  0.51409  0.11509  0.33904  1.0000
  C   C174      1.0  0.54143  0.12375  0.33933  1.0000
  N   N10       1.0  0.55309  0.10890  0.33619  1.0000
  C   C175      1.0  0.57962  0.12377  0.33665  1.0000
  C   C176      1.0  0.58536  0.14990  0.34026  1.0000
  C   C177      1.0  0.56184  0.14989  0.34190  1.0000
  C   C178      1.0  0.59831  0.11512  0.33408  1.0000
  C   C179      1.0  0.59189  0.08831  0.33378  1.0000
  N   N11       1.0  0.56798  0.06613  0.33707  1.0000
  C   C180      1.0  0.56967  0.04391  0.33637  1.0000
  C   C181      1.0  0.59655  0.05249  0.33239  1.0000
  C   C182      1.0  0.61014  0.07965  0.33022  1.0000
  C   C183      1.0  0.54926  0.01713  0.33928  1.0000
  C   C184      1.0  0.52192  0.00847  0.33950  1.0000
  N   N12       1.0  0.51026  0.02334  0.33633  1.0000
  C   C185      1.0  0.48373  0.00846  0.33669  1.0000
  C   C186      1.0  0.47800  0.98233  0.34032  1.0000
  C   C187      1.0  0.50152  0.98233  0.34202  1.0000
  C   C188      1.0  0.46503  0.01711  0.33399  1.0000
  C   C189      1.0  0.43792  0.99734  0.33096  1.0000
  C   C190      1.0  0.38473  0.95527  0.32681  1.0000
  C   C191      1.0  0.39626  0.96888  0.40719  1.0000
  C   C192      1.0  0.42256  0.98954  0.40945  1.0000
  C   C193      1.0  0.35873  0.93310  0.32598  1.0000
  C   C194      1.0  0.33751  0.93407  0.36664  1.0000
  C   C195      1.0  0.31211  0.91177  0.36830  1.0000
  C   C196      1.0  0.30715  0.88762  0.33072  1.0000
  C   C197      1.0  0.55663  0.99740  0.34182  1.0000
  C   C198      1.0  0.56859  0.95586  0.34724  1.0000
  C   C199      1.0  0.56514  0.96674  0.42687  1.0000
  C   C200      1.0  0.55928  0.98724  0.42435  1.0000
  C   C201      1.0  0.57325  0.93417  0.34982  1.0000
  C   C202      1.0  0.58092  0.88962  0.35084  1.0000
  C   C203      1.0  0.56210  0.89050  0.40722  1.0000
  C   C204      1.0  0.55839  0.91239  0.40685  1.0000
  C   C205      1.0  0.62543  0.13488  0.33120  1.0000
  C   C206      1.0  0.64092  0.14234  0.40962  1.0000
  C   C207      1.0  0.66732  0.16278  0.40737  1.0000
  C   C208      1.0  0.67883  0.17650  0.32706  1.0000
  C   C209      1.0  0.70502  0.19834  0.32616  1.0000
  C   C210      1.0  0.75706  0.24313  0.33058  1.0000
  C   C211      1.0  0.75168  0.21875  0.36793  1.0000
  C   C212      1.0  0.72607  0.19679  0.36640  1.0000
  C   C213      1.0  0.50674  0.13485  0.34157  1.0000
  C   C214      1.0  0.50422  0.14490  0.42410  1.0000
  C   C215      1.0  0.49549  0.17686  0.34698  1.0000
  C   C216      1.0  0.49870  0.16562  0.42662  1.0000
  C   C217      1.0  0.49136  0.19889  0.34957  1.0000
  C   C218      1.0  0.50655  0.22044  0.40687  1.0000
  C   C219      1.0  0.50343  0.24269  0.40712  1.0000
  C   C220      1.0  0.48487  0.24415  0.35043  1.0000
  H   H137      1.0  0.51546  0.25821  0.44729  1.0000
  H   H138      1.0  0.52081  0.22060  0.44686  1.0000
  H   H139      1.0  0.49711  0.17250  0.48761  1.0000
  H   H140      1.0  0.50686  0.13753  0.48286  1.0000
  H   H141      1.0  0.45812  0.09113  0.33070  1.0000
  H   H142      1.0  0.43315  0.04126  0.32720  1.0000
  H   H143      1.0  0.51168  0.06609  0.34109  1.0000
  H   H144      1.0  0.55167  0.06614  0.34158  1.0000
  H   H145      1.0  0.56024  0.16643  0.34445  1.0000
  H   H146      1.0  0.60351  0.16645  0.34206  1.0000
  H   H147      1.0  0.63294  0.13329  0.46918  1.0000
  H   H148      1.0  0.67777  0.16823  0.46586  1.0000
  H   H149      1.0  0.63017  0.09097  0.32702  1.0000
  H   H150      1.0  0.60521  0.04111  0.33064  1.0000
  H   H151      1.0  0.45985  0.96577  0.34194  1.0000
  H   H152      1.0  0.50313  0.96579  0.34453  1.0000
  H   H153      1.0  0.55657  0.99443  0.48310  1.0000
  H   H154      1.0  0.56687  0.95982  0.48786  1.0000
  H   H155      1.0  0.54395  0.91181  0.44656  1.0000
  H   H156      1.0  0.55026  0.87478  0.44708  1.0000
  H   H157      1.0  0.43060  0.99847  0.46910  1.0000
  H   H158      1.0  0.38593  0.96317  0.46575  1.0000
  H   H159      1.0  0.29723  0.91335  0.39751  1.0000
  H   H160      1.0  0.34032  0.95115  0.39484  1.0000
  H   H161      1.0  0.72295  0.17953  0.39442  1.0000
  H   H162      1.0  0.76641  0.21675  0.39688  1.0000
  C   C221      1.0  0.28405  0.51617  0.34497  1.0000
  C   C222      1.0  0.26869  0.51194  0.42268  1.0000
  C   C223      1.0  0.24450  0.51194  0.41805  1.0000
  C   C224      1.0  0.23515  0.51619  0.33567  1.0000
  N   N13       1.0  0.23128  0.50857  0.49578  1.0000
  C   C225      1.0  0.23910  0.50457  0.57698  1.0000
  C   C226      1.0  0.26298  0.50405  0.58127  1.0000
  N   N14       1.0  0.27647  0.50785  0.50393  1.0000
  C   C227      1.0  0.22226  0.50120  0.65472  1.0000
  H   H163      1.0  0.20476  0.50207  0.63506  1.0000
  C   C228      1.0  0.27473  0.49991  0.66288  1.0000
  H   H164      1.0  0.27702  0.48271  0.65407  1.0000
  C   C229      1.0  0.58340  0.86666  0.34775  1.0000
  C   C230      1.0  0.58761  0.85534  0.42543  1.0000
  C   C231      1.0  0.58761  0.83116  0.42071  1.0000
  C   C232      1.0  0.58342  0.81777  0.33826  1.0000
  N   N15       1.0  0.59094  0.82111  0.49843  1.0000
  C   C233      1.0  0.59489  0.83272  0.57969  1.0000
  C   C234      1.0  0.59541  0.85712  0.58406  1.0000
  N   N16       1.0  0.59166  0.86701  0.50674  1.0000
  C   C235      1.0  0.59823  0.81907  0.65740  1.0000
  H   H165      1.0  0.59737  0.80075  0.63767  1.0000
  C   C236      1.0  0.59953  0.87282  0.66573  1.0000
  H   H166      1.0  0.61673  0.89233  0.65706  1.0000
  C   C237      1.0  0.24406  0.83077  0.42246  1.0000
  C   C238      1.0  0.26825  0.85497  0.41836  1.0000
  N   N17       1.0  0.27811  0.86812  0.49629  1.0000
  C   C239      1.0  0.26631  0.86022  0.57724  1.0000
  C   C240      1.0  0.24191  0.83633  0.58101  1.0000
  N   N18       1.0  0.23220  0.82291  0.50347  1.0000
  C   C241      1.0  0.27979  0.87698  0.65527  1.0000
  H   H167      1.0  0.29814  0.89450  0.63600  1.0000
  C   C242      1.0  0.22603  0.82451  0.66228  1.0000
  H   H168      1.0  0.20653  0.82220  0.65304  1.0000
  C   C243      1.0  0.78530  0.61667  0.34483  1.0000
  C   C244      1.0  0.80072  0.62050  0.42247  1.0000
  C   C245      1.0  0.82459  0.61990  0.41776  1.0000
  C   C246      1.0  0.83357  0.61546  0.33535  1.0000
  N   N19       1.0  0.83786  0.62290  0.49543  1.0000
  C   C247      1.0  0.83038  0.62706  0.57666  1.0000
  C   C248      1.0  0.80683  0.62819  0.58103  1.0000
  N   N20       1.0  0.79328  0.62476  0.50375  1.0000
  C   C249      1.0  0.84723  0.62998  0.65433  1.0000
  H   H169      1.0  0.86444  0.62868  0.63461  1.0000
  C   C250      1.0  0.79548  0.63260  0.66267  1.0000
  H   H170      1.0  0.79363  0.65008  0.65383  1.0000
  C   C251      1.0  0.48295  0.26743  0.34737  1.0000
  C   C252      1.0  0.47907  0.27882  0.42502  1.0000
  C   C253      1.0  0.47968  0.30331  0.42039  1.0000
  C   C254      1.0  0.48418  0.31695  0.33806  1.0000
  N   N21       1.0  0.47663  0.31338  0.49808  1.0000
  C   C255      1.0  0.47242  0.30154  0.57924  1.0000
  C   C256      1.0  0.47130  0.27685  0.58353  1.0000
  N   N22       1.0  0.47477  0.26692  0.50624  1.0000
  C   C257      1.0  0.46946  0.31527  0.65693  1.0000
  H   H171      1.0  0.47076  0.33383  0.63727  1.0000
  C   C258      1.0  0.46684  0.26089  0.66510  1.0000
  H   H172      1.0  0.44937  0.24159  0.65613  1.0000
  C   C259      1.0  0.82091  0.29898  0.42208  1.0000
  C   C260      1.0  0.79643  0.27509  0.41804  1.0000
  N   N23       1.0  0.78651  0.26190  0.49599  1.0000
  C   C261      1.0  0.79851  0.26948  0.57688  1.0000
  C   C262      1.0  0.82318  0.29307  0.58059  1.0000
  N   N24       1.0  0.83296  0.30653  0.50303  1.0000
  C   C263      1.0  0.78495  0.25272  0.65493  1.0000
  H   H173      1.0  0.76636  0.23546  0.63572  1.0000
  C   C264      1.0  0.83929  0.30455  0.66182  1.0000
  H   H174      1.0  0.85858  0.30640  0.65254  1.0000
