data_image0
_chemical_formula_structural       C12H6CH2C2O2C12H6CH2C2O2C12H6CH2C2O2CNC2O2HNHCNC2O2HNHCNC2O2HNHCNC2O2HNHCNC2O2HNHCNC2O2HNHC12H6C2H2C2O2C12H6C2H2C2O2C12H6C2H2C2O2NC3O2HNHNC3O2HNHNC3O2HNHNC3O2HNHNC3O2HNHNC3O2HNH
_chemical_formula_sum              "C129 H72 O36 N24"
_cell_length_a       34.2221
_cell_length_b       34.2221
_cell_length_c       15.0656
_cell_angle_alpha    90
_cell_angle_beta     90
_cell_angle_gamma    120

_space_group_name_H-M_alt    "P 1"
_space_group_IT_number       1

loop_
  _space_group_symop_operation_xyz
  'x, y, z'

loop_
  _atom_site_type_symbol
  _atom_site_label
  _atom_site_symmetry_multiplicity
  _atom_site_fract_x
  _atom_site_fract_y
  _atom_site_fract_z
  _atom_site_occupancy
  C   C1        1.0  0.96662  0.50939  0.27446  1.0000
  C   C2        1.0  0.96870  0.51109  0.18017  1.0000
  C   C3        1.0  0.02484  0.48457  0.18017  1.0000
  C   C4        1.0  0.02688  0.48624  0.27446  1.0000
  C   C5        1.0  0.05974  0.47865  0.31618  1.0000
  C   C6        1.0  0.09000  0.47063  0.26627  1.0000
  C   C7        1.0  0.08407  0.46504  0.17358  1.0000
  C   C8        1.0  0.05192  0.47209  0.13090  1.0000
  C   C9        1.0  0.94158  0.52352  0.13088  1.0000
  C   C10       1.0  0.90942  0.53055  0.17355  1.0000
  C   C11       1.0  0.90349  0.52497  0.26624  1.0000
  C   C12       1.0  0.93377  0.51699  0.31617  1.0000
  H   H1        1.0  0.06352  0.58042  0.27459  1.0000
  H   H2        1.0  0.92997  0.41523  0.27453  1.0000
  H   H3        1.0  0.10455  0.45797  0.13549  1.0000
  H   H4        1.0  0.05029  0.47057  0.06298  1.0000
  H   H5        1.0  0.94326  0.52511  0.06297  1.0000
  H   H6        1.0  0.88897  0.53767  0.13546  1.0000
  C   C13       1.0  0.99677  0.49783  0.12864  1.0000
  H   H7        1.0  0.01916  0.52627  0.08613  1.0000
  H   H8        1.0  0.97437  0.46938  0.08615  1.0000
  C   C14       1.0  0.86543  0.52355  0.30645  1.0000
  C   C15       1.0  0.12807  0.47208  0.30648  1.0000
  O   O1        1.0  0.12144  0.67011  0.27276  1.0000
  O   O2        1.0  0.87202  0.32548  0.27271  1.0000
  C   C16       1.0  0.48512  0.45609  0.27449  1.0000
  C   C17       1.0  0.48347  0.45649  0.18020  1.0000
  C   C18       1.0  0.50994  0.53914  0.18025  1.0000
  C   C19       1.0  0.50829  0.53951  0.27455  1.0000
  C   C20       1.0  0.51590  0.57997  0.31630  1.0000
  C   C21       1.0  0.52385  0.61823  0.26639  1.0000
  C   C22       1.0  0.52946  0.61791  0.17371  1.0000
  C   C23       1.0  0.52236  0.57869  0.13099  1.0000
  C   C24       1.0  0.47104  0.41695  0.13090  1.0000
  C   C25       1.0  0.46401  0.37775  0.17355  1.0000
  C   C26       1.0  0.46956  0.37738  0.26624  1.0000
  C   C27       1.0  0.47751  0.41563  0.31619  1.0000
  H   H9        1.0  0.41413  0.48202  0.27462  1.0000
  H   H10       1.0  0.57931  0.51363  0.27459  1.0000
  H   H11       1.0  0.53649  0.64544  0.13561  1.0000
  H   H12       1.0  0.52394  0.57860  0.06308  1.0000
  H   H13       1.0  0.46947  0.41705  0.06299  1.0000
  H   H14       1.0  0.45691  0.35020  0.13545  1.0000
  C   C28       1.0  0.49670  0.49782  0.12870  1.0000
  H   H15       1.0  0.46825  0.49176  0.08621  1.0000
  H   H16       1.0  0.52515  0.50390  0.08618  1.0000
  C   C29       1.0  0.47100  0.34075  0.30645  1.0000
  C   C30       1.0  0.52239  0.65484  0.30662  1.0000
  O   O3        1.0  0.32443  0.45029  0.27277  1.0000
  O   O4        1.0  0.66901  0.54538  0.27275  1.0000
  C   C31       1.0  0.53844  0.02797  0.27447  1.0000
  C   C32       1.0  0.53807  0.02594  0.18018  1.0000
  C   C33       1.0  0.45543  0.96974  0.18015  1.0000
  C   C34       1.0  0.45504  0.96768  0.27443  1.0000
  C   C35       1.0  0.41459  0.93481  0.31613  1.0000
  C   C36       1.0  0.37631  0.90455  0.26621  1.0000
  C   C37       1.0  0.37666  0.91048  0.17352  1.0000
  C   C38       1.0  0.41590  0.94258  0.13085  1.0000
  C   C39       1.0  0.57761  0.05310  0.13092  1.0000
  C   C40       1.0  0.61682  0.08522  0.17362  1.0000
  C   C41       1.0  0.61713  0.09116  0.26630  1.0000
  C   C42       1.0  0.57889  0.06082  0.31623  1.0000
  H   H17       1.0  0.51258  0.93108  0.27456  1.0000
  H   H18       1.0  0.48094  0.06461  0.27453  1.0000
  H   H19       1.0  0.34913  0.89000  0.13540  1.0000
  H   H20       1.0  0.41598  0.94428  0.06294  1.0000
  H   H21       1.0  0.57754  0.05140  0.06301  1.0000
  H   H22       1.0  0.64435  0.10574  0.13552  1.0000
  C   C43       1.0  0.49676  0.99783  0.12863  1.0000
  H   H23       1.0  0.50284  0.97545  0.08617  1.0000
  H   H24       1.0  0.49068  0.02019  0.08609  1.0000
  C   C44       1.0  0.65373  0.12923  0.30654  1.0000
  C   C45       1.0  0.33968  0.86649  0.30641  1.0000
  O   O5        1.0  0.54439  0.87314  0.27277  1.0000
  O   O6        1.0  0.44922  0.12260  0.27270  1.0000
  C   C46       1.0  0.20748  0.49525  0.29544  1.0000
  N   N1        1.0  0.27604  0.49500  0.27347  1.0000
  C   C47       1.0  0.24011  0.49558  0.23701  1.0000
  C   C48       1.0  0.23632  0.49464  0.14527  1.0000
  O   O7        1.0  0.24034  0.46565  0.10582  1.0000
  O   O8        1.0  0.24890  0.52999  0.10327  1.0000
  H   H25       1.0  0.25118  0.55506  0.12535  1.0000
  N   N2        1.0  0.16925  0.49401  0.26615  1.0000
  H   H26       1.0  0.17183  0.50953  0.21035  1.0000
  C   C49       1.0  0.49930  0.71113  0.29553  1.0000
  N   N3        1.0  0.49973  0.78003  0.27352  1.0000
  C   C50       1.0  0.49910  0.74350  0.23708  1.0000
  C   C51       1.0  0.50000  0.74062  0.14542  1.0000
  O   O9        1.0  0.52845  0.77372  0.10527  1.0000
  O   O10       1.0  0.46482  0.71759  0.10306  1.0000
  H   H27       1.0  0.43978  0.69473  0.12509  1.0000
  N   N4        1.0  0.50047  0.67409  0.26629  1.0000
  H   H28       1.0  0.48495  0.66116  0.21051  1.0000
  C   C52       1.0  0.28340  0.78709  0.29538  1.0000
  N   N5        1.0  0.21453  0.71858  0.27350  1.0000
  C   C53       1.0  0.25104  0.75448  0.23700  1.0000
  C   C54       1.0  0.25388  0.75823  0.14533  1.0000
  O   O11       1.0  0.22075  0.75353  0.10521  1.0000
  O   O12       1.0  0.27693  0.74609  0.10296  1.0000
  H   H29       1.0  0.29981  0.74395  0.12497  1.0000
  N   N6        1.0  0.32040  0.82531  0.26608  1.0000
  H   H30       1.0  0.33332  0.82272  0.21029  1.0000
  C   C55       1.0  0.78603  0.50048  0.29537  1.0000
  N   N7        1.0  0.71746  0.50071  0.27342  1.0000
  C   C56       1.0  0.75340  0.50015  0.23696  1.0000
  C   C57       1.0  0.75716  0.50103  0.14522  1.0000
  O   O13       1.0  0.75312  0.53000  0.10571  1.0000
  O   O14       1.0  0.74453  0.46564  0.10330  1.0000
  H   H31       1.0  0.74226  0.44059  0.12544  1.0000
  N   N8        1.0  0.82426  0.50170  0.26607  1.0000
  H   H32       1.0  0.82166  0.48618  0.21027  1.0000
  C   C58       1.0  0.49416  0.28450  0.29540  1.0000
  N   N9        1.0  0.49394  0.21570  0.27342  1.0000
  C   C59       1.0  0.49450  0.25220  0.23697  1.0000
  C   C60       1.0  0.49358  0.25507  0.14523  1.0000
  O   O15       1.0  0.46460  0.22206  0.10576  1.0000
  O   O16       1.0  0.52894  0.27784  0.10325  1.0000
  H   H33       1.0  0.55401  0.30063  0.12535  1.0000
  N   N10       1.0  0.49291  0.32149  0.26611  1.0000
  H   H34       1.0  0.50843  0.33442  0.21031  1.0000
  C   C61       1.0  0.71000  0.20862  0.29545  1.0000
  N   N11       1.0  0.77891  0.27708  0.27343  1.0000
  C   C62       1.0  0.74237  0.24118  0.23700  1.0000
  C   C63       1.0  0.73950  0.23739  0.14534  1.0000
  O   O17       1.0  0.77260  0.24203  0.10520  1.0000
  O   O18       1.0  0.71647  0.24954  0.10296  1.0000
  H   H35       1.0  0.69362  0.25173  0.12497  1.0000
  N   N12       1.0  0.67297  0.17041  0.26622  1.0000
  H   H36       1.0  0.66003  0.17300  0.21043  1.0000
  C   C64       1.0  0.96672  0.45606  0.38370  1.0000
  C   C65       1.0  0.96872  0.45645  0.47800  1.0000
  C   C66       1.0  0.02473  0.53915  0.47803  1.0000
  C   C67       1.0  0.02677  0.53955  0.38374  1.0000
  C   C68       1.0  0.05183  0.57871  0.52733  1.0000
  C   C69       1.0  0.08390  0.61795  0.48464  1.0000
  C   C70       1.0  0.08973  0.61834  0.39193  1.0000
  C   C71       1.0  0.05952  0.58005  0.34201  1.0000
  C   C72       1.0  0.93403  0.41555  0.34191  1.0000
  C   C73       1.0  0.90375  0.37727  0.39181  1.0000
  C   C74       1.0  0.90956  0.37765  0.48454  1.0000
  C   C75       1.0  0.94163  0.41688  0.52726  1.0000
  H   H37       1.0  0.88902  0.35011  0.52260  1.0000
  H   H38       1.0  0.94319  0.41701  0.59519  1.0000
  H   H39       1.0  0.05018  0.57859  0.59524  1.0000
  H   H40       1.0  0.10437  0.64552  0.52270  1.0000
  H   H41       1.0  0.06377  0.48233  0.38358  1.0000
  H   H42       1.0  0.92970  0.51325  0.38356  1.0000
  C   C76       1.0  0.99675  0.49781  0.32910  1.0000
  C   C77       1.0  0.99671  0.49780  0.52955  1.0000
  H   H43       1.0  0.97426  0.50380  0.57201  1.0000
  H   H44       1.0  0.01912  0.49180  0.57209  1.0000
  C   C78       1.0  0.12769  0.65504  0.35163  1.0000
  C   C79       1.0  0.86577  0.34062  0.35151  1.0000
  O   O19       1.0  0.12208  0.45113  0.38573  1.0000
  O   O20       1.0  0.87143  0.54448  0.38572  1.0000
  C   C80       1.0  0.53845  0.50949  0.38377  1.0000
  C   C81       1.0  0.53805  0.51110  0.47807  1.0000
  C   C82       1.0  0.45537  0.48448  0.47808  1.0000
  C   C83       1.0  0.45497  0.48608  0.38378  1.0000
  C   C84       1.0  0.41582  0.47209  0.52735  1.0000
  C   C85       1.0  0.37659  0.46492  0.48465  1.0000
  C   C86       1.0  0.37620  0.47032  0.39191  1.0000
  C   C87       1.0  0.41446  0.47829  0.34201  1.0000
  C   C88       1.0  0.57893  0.51723  0.34201  1.0000
  C   C89       1.0  0.61723  0.52529  0.39189  1.0000
  C   C90       1.0  0.61685  0.53069  0.48462  1.0000
  C   C91       1.0  0.57760  0.52348  0.52734  1.0000
  H   H45       1.0  0.64441  0.53776  0.52268  1.0000
  H   H46       1.0  0.57750  0.52503  0.59526  1.0000
  H   H47       1.0  0.41592  0.47054  0.59527  1.0000
  H   H48       1.0  0.34903  0.45786  0.52270  1.0000
  H   H49       1.0  0.51216  0.58027  0.38368  1.0000
  H   H50       1.0  0.48124  0.41529  0.38358  1.0000
  C   C92       1.0  0.49671  0.49780  0.32915  1.0000
  C   C93       1.0  0.49671  0.49778  0.52961  1.0000
  H   H51       1.0  0.49069  0.46935  0.57209  1.0000
  H   H52       1.0  0.50274  0.52621  0.57212  1.0000
  C   C94       1.0  0.33955  0.47165  0.35160  1.0000
  C   C95       1.0  0.65391  0.52401  0.35158  1.0000
  O   O21       1.0  0.54336  0.66980  0.38584  1.0000
  O   O22       1.0  0.45006  0.32580  0.38570  1.0000
  C   C96       1.0  0.48499  0.02783  0.38370  1.0000
  C   C97       1.0  0.48335  0.02581  0.47799  1.0000
  C   C98       1.0  0.51006  0.96981  0.47802  1.0000
  C   C99       1.0  0.50846  0.96781  0.38372  1.0000
  C   C100      1.0  0.52251  0.94271  0.52730  1.0000
  C   C101      1.0  0.52976  0.91069  0.48460  1.0000
  C   C102      1.0  0.52431  0.90486  0.39189  1.0000
  C   C103      1.0  0.51626  0.93510  0.34197  1.0000
  C   C104      1.0  0.47720  0.06055  0.34191  1.0000
  C   C105      1.0  0.46924  0.09085  0.39183  1.0000
  C   C106      1.0  0.46381  0.08504  0.48456  1.0000
  C   C107      1.0  0.47089  0.05292  0.52726  1.0000
  H   H53       1.0  0.45680  0.10558  0.52262  1.0000
  H   H54       1.0  0.46946  0.05135  0.59519  1.0000
  H   H55       1.0  0.52402  0.94434  0.59522  1.0000
  H   H56       1.0  0.53677  0.89017  0.52269  1.0000
  H   H57       1.0  0.41424  0.93078  0.38354  1.0000
  H   H58       1.0  0.57917  0.06490  0.38360  1.0000
  C   C108      1.0  0.49673  0.99782  0.32908  1.0000
  C   C109      1.0  0.49670  0.99782  0.52953  1.0000
  H   H59       1.0  0.52513  0.02025  0.57204  1.0000
  H   H60       1.0  0.46828  0.97539  0.57203  1.0000
  C   C110      1.0  0.52302  0.86689  0.35159  1.0000
  C   C111      1.0  0.47058  0.12884  0.35153  1.0000
  O   O23       1.0  0.32473  0.87250  0.38566  1.0000
  O   O24       1.0  0.66871  0.12323  0.38575  1.0000
  N   N13       1.0  0.21556  0.49669  0.38399  1.0000
  C   C112      1.0  0.25214  0.49740  0.42038  1.0000
  C   C113      1.0  0.28358  0.49530  0.36206  1.0000
  C   C114      1.0  0.25596  0.49848  0.51205  1.0000
  O   O25       1.0  0.22305  0.47141  0.55459  1.0000
  O   O26       1.0  0.27997  0.53446  0.55130  1.0000
  H   H61       1.0  0.30289  0.55873  0.52714  1.0000
  N   N14       1.0  0.32051  0.49392  0.39142  1.0000
  H   H62       1.0  0.33369  0.50972  0.44684  1.0000
  N   N15       1.0  0.49785  0.71778  0.38407  1.0000
  C   C115      1.0  0.49726  0.75373  0.42045  1.0000
  C   C116      1.0  0.49942  0.78727  0.36211  1.0000
  C   C117      1.0  0.49607  0.75648  0.51213  1.0000
  O   O27       1.0  0.52358  0.75095  0.55385  1.0000
  O   O28       1.0  0.46007  0.74398  0.55151  1.0000
  H   H63       1.0  0.43569  0.74245  0.52753  1.0000
  N   N16       1.0  0.50079  0.82559  0.39144  1.0000
  H   H64       1.0  0.48497  0.82297  0.44685  1.0000
  N   N17       1.0  0.27678  0.77902  0.38395  1.0000
  C   C118      1.0  0.24088  0.74247  0.42038  1.0000
  C   C119      1.0  0.20731  0.71106  0.36211  1.0000
  C   C120      1.0  0.23818  0.73868  0.51206  1.0000
  O   O29       1.0  0.24407  0.77161  0.55458  1.0000
  O   O30       1.0  0.25013  0.71464  0.55129  1.0000
  H   H65       1.0  0.25145  0.69171  0.52714  1.0000
  N   N18       1.0  0.16898  0.67414  0.39151  1.0000
  H   H66       1.0  0.17161  0.66097  0.44695  1.0000
  N   N19       1.0  0.77796  0.49905  0.38393  1.0000
  C   C121      1.0  0.74139  0.49836  0.42032  1.0000
  C   C122      1.0  0.70993  0.50042  0.36202  1.0000
  C   C123      1.0  0.73757  0.49726  0.51200  1.0000
  O   O31       1.0  0.77047  0.52433  0.55455  1.0000
  O   O32       1.0  0.71357  0.46126  0.55122  1.0000
  H   H67       1.0  0.69067  0.43698  0.52705  1.0000
  N   N20       1.0  0.67298  0.50177  0.39138  1.0000
  H   H68       1.0  0.65981  0.48596  0.44681  1.0000
  N   N21       1.0  0.49559  0.27785  0.38395  1.0000
  C   C124      1.0  0.49630  0.24197  0.42034  1.0000
  C   C125      1.0  0.49423  0.20846  0.36201  1.0000
  C   C126      1.0  0.49736  0.23923  0.51200  1.0000
  O   O33       1.0  0.47028  0.24505  0.55454  1.0000
  O   O34       1.0  0.53335  0.25121  0.55127  1.0000
  H   H69       1.0  0.55763  0.25257  0.52712  1.0000
  N   N22       1.0  0.49285  0.17014  0.39136  1.0000
  H   H70       1.0  0.50864  0.17275  0.44679  1.0000
  N   N23       1.0  0.71665  0.21672  0.38400  1.0000
  C   C127      1.0  0.75260  0.25325  0.42037  1.0000
  C   C128      1.0  0.78615  0.28463  0.36202  1.0000
  C   C129      1.0  0.75537  0.25719  0.51206  1.0000
  O   O35       1.0  0.74982  0.22415  0.55375  1.0000
  O   O36       1.0  0.74288  0.28070  0.55144  1.0000
  H   H71       1.0  0.74136  0.30356  0.52747  1.0000
  N   N24       1.0  0.82447  0.32157  0.39135  1.0000
  H   H72       1.0  0.82185  0.33479  0.44673  1.0000
