data_image0
_chemical_formula_structural       C14H12C7NC12H12C2NC3NC3NC15H14NCHNCHNCHNCHNCHNCHC3NC2NC5NC3NC17H14CNC2NC4NC18H14C2NC19H12C2NC2O2C2H5C2NC2O2C2H5C2NC2O2C2H5C2NC2O2C2H5C2NC2O2C2H5C2NC2O2C2H5
_chemical_formula_sum              "C174 H114 N24 O12"
_cell_length_a       41.6267
_cell_length_b       41.6267
_cell_length_c       14.9771
_cell_angle_alpha    90.0374
_cell_angle_beta     89.9626
_cell_angle_gamma    120

_space_group_name_H-M_alt    "P 1"
_space_group_IT_number       1

loop_
  _space_group_symop_operation_xyz
  'x, y, z'

loop_
  _atom_site_type_symbol
  _atom_site_label
  _atom_site_symmetry_multiplicity
  _atom_site_fract_x
  _atom_site_fract_y
  _atom_site_fract_z
  _atom_site_occupancy
  C   C1        1.0  0.95233  0.55155  0.32016  1.0000
  C   C2        1.0  0.09837  0.53547  0.33056  1.0000
  C   C3        1.0  0.11097  0.57379  0.31942  1.0000
  C   C4        1.0  0.14843  0.63505  0.30171  1.0000
  C   C5        1.0  0.14733  0.60139  0.30059  1.0000
  C   C6        1.0  0.16596  0.75660  0.28299  1.0000
  C   C7        1.0  0.13598  0.71999  0.27823  1.0000
  C   C8        1.0  0.12588  0.52472  0.33428  1.0000
  C   C9        1.0  0.16769  0.50847  0.25754  1.0000
  C   C10       1.0  0.13686  0.51383  0.25615  1.0000
  C   C11       1.0  0.92767  0.40541  0.27815  1.0000
  C   C12       1.0  0.89784  0.36872  0.28277  1.0000
  C   C13       1.0  0.92650  0.61165  0.25673  1.0000
  C   C14       1.0  0.89557  0.61684  0.25815  1.0000
  H   H1        1.0  0.88838  0.62439  0.19991  1.0000
  H   H2        1.0  0.94008  0.61454  0.19766  1.0000
  H   H3        1.0  0.99971  0.66634  0.38074  1.0000
  H   H4        1.0  0.94593  0.41286  0.22600  1.0000
  H   H5        1.0  0.89551  0.35036  0.23421  1.0000
  H   H6        1.0  0.06366  0.45915  0.38126  1.0000
  H   H7        1.0  0.17175  0.66011  0.29081  1.0000
  H   H8        1.0  0.16972  0.59809  0.28919  1.0000
  H   H9        1.0  0.12339  0.51109  0.19704  1.0000
  H   H10       1.0  0.17491  0.50094  0.19924  1.0000
  H   H11       1.0  0.11780  0.71264  0.22597  1.0000
  H   H12       1.0  0.16846  0.77499  0.23439  1.0000
  C   C15       1.0  0.43969  0.45405  0.36815  1.0000
  C   C16       1.0  0.44671  0.51074  0.34664  1.0000
  C   C17       1.0  0.54228  0.49363  0.31935  1.0000
  C   C18       1.0  0.61570  0.61295  0.34603  1.0000
  C   C19       1.0  0.62272  0.66966  0.36739  1.0000
  C   C20       1.0  0.55843  0.65576  0.33022  1.0000
  C   C21       1.0  0.52008  0.63003  0.31947  1.0000
  N   N1        1.0  0.50264  0.59291  0.33181  1.0000
  C   C22       1.0  0.45882  0.60620  0.30166  1.0000
  C   C23       1.0  0.49248  0.63876  0.30049  1.0000
  C   C24       1.0  0.33729  0.50203  0.28277  1.0000
  C   C25       1.0  0.37392  0.50871  0.27813  1.0000
  C   C26       1.0  0.56915  0.69401  0.33410  1.0000
  C   C27       1.0  0.57990  0.76746  0.33668  1.0000
  C   C28       1.0  0.58558  0.75214  0.25762  1.0000
  C   C29       1.0  0.58020  0.71595  0.25612  1.0000
  C   C30       1.0  0.68849  0.61496  0.27797  1.0000
  C   C31       1.0  0.72514  0.62173  0.28272  1.0000
  C   C32       1.0  0.48235  0.40776  0.25611  1.0000
  C   C33       1.0  0.47717  0.37165  0.25748  1.0000
  H   H13       1.0  0.46972  0.35692  0.19917  1.0000
  H   H14       1.0  0.47956  0.41847  0.19700  1.0000
  H   H15       1.0  0.42758  0.42628  0.38095  1.0000
  H   H16       1.0  0.68110  0.62580  0.22581  1.0000
  H   H17       1.0  0.74355  0.63774  0.23423  1.0000
  H   H18       1.0  0.63481  0.69742  0.38049  1.0000
  H   H19       1.0  0.43377  0.60442  0.29038  1.0000
  H   H20       1.0  0.49580  0.66442  0.28861  1.0000
  H   H21       1.0  0.58308  0.70525  0.19703  1.0000
  H   H22       1.0  0.59321  0.76691  0.19941  1.0000
  H   H23       1.0  0.38133  0.49789  0.22591  1.0000
  H   H24       1.0  0.31891  0.48609  0.23416  1.0000
  C   C34       1.0  0.63998  0.07865  0.36717  1.0000
  C   C35       1.0  0.58327  0.02897  0.34596  1.0000
  N   N2        1.0  0.58220  0.06060  0.33175  1.0000
  C   C36       1.0  0.62607  0.12905  0.33007  1.0000
  C   C37       1.0  0.60034  0.14166  0.31911  1.0000
  C   C38       1.0  0.48099  0.09574  0.34554  1.0000
  N   N3        1.0  0.48203  0.06410  0.33126  1.0000
  C   C39       1.0  0.42425  0.04606  0.36673  1.0000
  C   C40       1.0  0.43818  0.99562  0.33015  1.0000
  C   C41       1.0  0.46392  0.98300  0.31956  1.0000
  N   N4        1.0  0.50104  0.00270  0.33171  1.0000
  C   C42       1.0  0.48774  0.94555  0.30185  1.0000
  C   C43       1.0  0.45518  0.94665  0.30069  1.0000
  C   C44       1.0  0.56315  0.96254  0.34320  1.0000
  C   C45       1.0  0.57644  0.90157  0.35230  1.0000
  C   C46       1.0  0.59181  0.92808  0.28278  1.0000
  C   C47       1.0  0.58518  0.95806  0.27805  1.0000
  C   C48       1.0  0.39993  0.96810  0.33407  1.0000
  C   C49       1.0  0.32649  0.90541  0.33676  1.0000
  C   C50       1.0  0.34178  0.92638  0.25770  1.0000
  C   C51       1.0  0.37795  0.95723  0.25617  1.0000
  C   C52       1.0  0.47900  0.16647  0.27737  1.0000
  C   C53       1.0  0.47214  0.19629  0.28212  1.0000
  C   C54       1.0  0.68626  0.16758  0.25597  1.0000
  C   C55       1.0  0.73764  0.21946  0.33658  1.0000
  C   C56       1.0  0.72238  0.19850  0.25747  1.0000
  H   H25       1.0  0.73716  0.20574  0.19924  1.0000
  H   H26       1.0  0.67558  0.15407  0.19683  1.0000
  H   H27       1.0  0.66773  0.09433  0.38027  1.0000
  H   H28       1.0  0.56105  0.06111  0.30708  1.0000
  H   H29       1.0  0.50325  0.06352  0.30722  1.0000
  H   H30       1.0  0.46821  0.14823  0.22517  1.0000
  H   H31       1.0  0.45616  0.19867  0.23354  1.0000
  H   H32       1.0  0.39651  0.03040  0.37997  1.0000
  H   H33       1.0  0.48951  0.92228  0.29052  1.0000
  H   H34       1.0  0.42951  0.92429  0.28885  1.0000
  H   H35       1.0  0.38863  0.97074  0.19704  1.0000
  H   H36       1.0  0.32698  0.91920  0.19953  1.0000
  H   H37       1.0  0.59602  0.97624  0.22579  1.0000
  H   H38       1.0  0.60773  0.92558  0.23419  1.0000
  N   N5        1.0  0.27756  0.51898  0.27402  1.0000
  C   C57       1.0  0.24495  0.51834  0.26319  1.0000
  H   H39       1.0  0.23897  0.52467  0.20187  1.0000
  N   N6        1.0  0.57515  0.85156  0.27398  1.0000
  C   C58       1.0  0.57584  0.81961  0.26314  1.0000
  H   H40       1.0  0.56978  0.80742  0.20164  1.0000
  N   N7        1.0  0.24245  0.81648  0.27413  1.0000
  C   C59       1.0  0.27434  0.84916  0.26322  1.0000
  H   H41       1.0  0.28656  0.85523  0.20177  1.0000
  N   N8        1.0  0.78536  0.60556  0.27407  1.0000
  C   C60       1.0  0.81816  0.60659  0.26332  1.0000
  H   H42       1.0  0.82436  0.60051  0.20191  1.0000
  N   N9        1.0  0.48848  0.27275  0.27361  1.0000
  C   C61       1.0  0.48750  0.30455  0.26285  1.0000
  H   H43       1.0  0.49381  0.31691  0.20158  1.0000
  N   N10       1.0  0.82136  0.30863  0.27395  1.0000
  C   C62       1.0  0.78954  0.27588  0.26308  1.0000
  H   H44       1.0  0.77721  0.26984  0.20177  1.0000
  C   C63       1.0  0.01538  0.65428  0.36731  1.0000
  C   C64       1.0  0.05367  0.67250  0.36975  1.0000
  C   C65       1.0  0.06506  0.64724  0.34605  1.0000
  N   N11       1.0  0.03342  0.61456  0.33175  1.0000
  C   C66       1.0  0.00266  0.61744  0.34331  1.0000
  C   C67       1.0  0.96494  0.58991  0.33084  1.0000
  N   N12       1.0  0.97203  0.53412  0.33225  1.0000
  C   C68       1.0  0.95047  0.49699  0.32277  1.0000
  C   C69       1.0  0.91490  0.49029  0.30229  1.0000
  C   C70       1.0  0.91600  0.52395  0.30123  1.0000
  C   C71       1.0  0.96089  0.46966  0.33624  1.0000
  C   C72       1.0  0.99830  0.47820  0.34659  1.0000
  N   N13       1.0  0.02992  0.51093  0.33260  1.0000
  C   C73       1.0  0.06067  0.50801  0.34379  1.0000
  C   C74       1.0  0.04799  0.47123  0.36822  1.0000
  C   C75       1.0  0.00969  0.45299  0.37062  1.0000
  N   N14       1.0  0.09130  0.59125  0.33172  1.0000
  C   C76       1.0  0.11286  0.62838  0.32215  1.0000
  C   C77       1.0  0.10247  0.65572  0.33604  1.0000
  C   C78       1.0  0.13149  0.69350  0.34338  1.0000
  C   C79       1.0  0.15779  0.70461  0.41319  1.0000
  C   C80       1.0  0.18825  0.74090  0.41637  1.0000
  C   C81       1.0  0.19248  0.76776  0.35249  1.0000
  C   C82       1.0  0.14559  0.52910  0.41421  1.0000
  C   C83       1.0  0.17625  0.52354  0.41534  1.0000
  C   C84       1.0  0.18856  0.51396  0.33665  1.0000
  C   C85       1.0  0.93191  0.43184  0.34329  1.0000
  C   C86       1.0  0.87126  0.35741  0.35220  1.0000
  C   C87       1.0  0.87520  0.38421  0.41604  1.0000
  C   C88       1.0  0.90550  0.42059  0.41294  1.0000
  C   C89       1.0  0.93741  0.60063  0.33471  1.0000
  C   C90       1.0  0.91754  0.59600  0.41455  1.0000
  C   C91       1.0  0.88678  0.60140  0.41572  1.0000
  C   C92       1.0  0.87450  0.61103  0.33713  1.0000
  H   H45       1.0  0.87226  0.59620  0.47417  1.0000
  H   H46       1.0  0.92438  0.58719  0.47151  1.0000
  H   H47       1.0  0.07017  0.69993  0.38506  1.0000
  H   H48       1.0  0.03284  0.59275  0.30776  1.0000
  H   H49       1.0  0.03047  0.53249  0.30707  1.0000
  H   H50       1.0  0.89363  0.52725  0.28955  1.0000
  H   H51       1.0  0.89163  0.46525  0.29105  1.0000
  H   H52       1.0  0.90740  0.43925  0.46020  1.0000
  H   H53       1.0  0.85559  0.37773  0.46454  1.0000
  H   H54       1.0  0.99320  0.42554  0.38576  1.0000
  H   H55       1.0  0.13866  0.53778  0.47131  1.0000
  H   H56       1.0  0.19059  0.52845  0.47394  1.0000
  H   H57       1.0  0.20782  0.74723  0.46486  1.0000
  H   H58       1.0  0.15576  0.68589  0.46035  1.0000
  C   C93       1.0  0.42148  0.47414  0.37076  1.0000
  N   N15       1.0  0.47943  0.51183  0.33262  1.0000
  C   C94       1.0  0.47650  0.47816  0.34383  1.0000
  C   C95       1.0  0.50394  0.46791  0.33042  1.0000
  N   N16       1.0  0.55973  0.53074  0.33177  1.0000
  C   C96       1.0  0.59687  0.54631  0.32225  1.0000
  C   C97       1.0  0.60354  0.51743  0.30157  1.0000
  C   C98       1.0  0.56987  0.48488  0.30040  1.0000
  C   C99       1.0  0.62421  0.58405  0.33589  1.0000
  N   N17       1.0  0.58300  0.61188  0.33189  1.0000
  C   C100      1.0  0.58591  0.64554  0.34320  1.0000
  C   C101      1.0  0.64092  0.64957  0.37005  1.0000
  C   C102      1.0  0.46550  0.57733  0.32229  1.0000
  C   C103      1.0  0.43817  0.53960  0.33609  1.0000
  C   C104      1.0  0.40037  0.53081  0.34328  1.0000
  C   C105      1.0  0.38921  0.54601  0.41302  1.0000
  C   C106      1.0  0.35288  0.54009  0.41614  1.0000
  C   C107      1.0  0.32607  0.51736  0.35227  1.0000
  C   C108      1.0  0.56461  0.70929  0.41399  1.0000
  C   C109      1.0  0.57016  0.74550  0.41521  1.0000
  C   C110      1.0  0.66201  0.59284  0.34306  1.0000
  C   C111      1.0  0.73637  0.60643  0.35219  1.0000
  C   C112      1.0  0.70952  0.58366  0.41599  1.0000
  C   C113      1.0  0.67317  0.57766  0.41278  1.0000
  C   C114      1.0  0.49321  0.42966  0.33420  1.0000
  C   C115      1.0  0.49772  0.41439  0.41408  1.0000
  C   C116      1.0  0.49231  0.37823  0.41521  1.0000
  C   C117      1.0  0.48283  0.35635  0.33653  1.0000
  H   H59       1.0  0.49738  0.36888  0.47374  1.0000
  H   H60       1.0  0.50638  0.43001  0.47115  1.0000
  H   H61       1.0  0.39398  0.46314  0.38540  1.0000
  H   H62       1.0  0.50099  0.53283  0.30700  1.0000
  H   H63       1.0  0.56133  0.59073  0.30718  1.0000
  H   H64       1.0  0.56656  0.45920  0.28863  1.0000
  H   H65       1.0  0.62859  0.51919  0.29033  1.0000
  H   H66       1.0  0.65446  0.56092  0.45994  1.0000
  H   H67       1.0  0.71591  0.57048  0.46448  1.0000
  H   H68       1.0  0.66839  0.66055  0.38496  1.0000
  H   H69       1.0  0.55584  0.69365  0.47101  1.0000
  H   H70       1.0  0.56513  0.75489  0.47378  1.0000
  H   H71       1.0  0.34648  0.55330  0.46462  1.0000
  H   H72       1.0  0.40790  0.56276  0.46020  1.0000
  C   C118      1.0  0.61988  0.04036  0.36985  1.0000
  C   C119      1.0  0.61585  0.09135  0.34309  1.0000
  N   N18       1.0  0.56322  0.12199  0.33133  1.0000
  C   C120      1.0  0.54764  0.14355  0.32178  1.0000
  C   C121      1.0  0.57654  0.17912  0.30148  1.0000
  C   C122      1.0  0.60910  0.17802  0.30040  1.0000
  C   C123      1.0  0.50990  0.13315  0.33545  1.0000
  C   C124      1.0  0.44839  0.03335  0.34274  1.0000
  C   C125      1.0  0.44434  0.08436  0.36924  1.0000
  C   C126      1.0  0.51662  0.98113  0.32231  1.0000
  C   C127      1.0  0.55436  0.99155  0.33585  1.0000
  C   C128      1.0  0.54793  0.93624  0.41302  1.0000
  C   C129      1.0  0.55377  0.90579  0.41619  1.0000
  C   C130      1.0  0.38470  0.94830  0.41396  1.0000
  C   C131      1.0  0.34847  0.91766  0.41528  1.0000
  C   C132      1.0  0.50108  0.16215  0.34257  1.0000
  C   C133      1.0  0.48735  0.22282  0.35168  1.0000
  C   C134      1.0  0.51012  0.21881  0.41554  1.0000
  C   C135      1.0  0.51620  0.18851  0.41232  1.0000
  C   C136      1.0  0.66432  0.15658  0.33399  1.0000
  C   C137      1.0  0.67955  0.17634  0.41396  1.0000
  C   C138      1.0  0.71570  0.20711  0.41517  1.0000
  H   H73       1.0  0.72504  0.22151  0.47374  1.0000
  H   H74       1.0  0.66388  0.16943  0.47094  1.0000
  H   H75       1.0  0.63087  0.02387  0.38476  1.0000
  H   H76       1.0  0.63478  0.20039  0.28882  1.0000
  H   H77       1.0  0.57480  0.20242  0.29038  1.0000
  H   H78       1.0  0.53291  0.18657  0.45958  1.0000
  H   H79       1.0  0.52324  0.23840  0.46408  1.0000
  H   H80       1.0  0.43337  0.10085  0.38434  1.0000
  H   H81       1.0  0.40037  0.95517  0.47091  1.0000
  H   H82       1.0  0.33914  0.90321  0.47378  1.0000
  H   H83       1.0  0.54052  0.88623  0.46470  1.0000
  H   H84       1.0  0.53122  0.93827  0.46020  1.0000
  C   C139      1.0  0.28980  0.51279  0.35287  1.0000
  C   C140      1.0  0.22182  0.51181  0.33798  1.0000
  N   N19       1.0  0.23427  0.50549  0.41631  1.0000
  C   C141      1.0  0.26651  0.50509  0.42898  1.0000
  C   C142      1.0  0.27422  0.49725  0.51410  1.0000
  O   O1        1.0  0.25357  0.49513  0.57513  1.0000
  O   O2        1.0  0.28866  0.47482  0.52005  1.0000
  C   C143      1.0  0.31268  0.48139  0.59578  1.0000
  C   C144      1.0  0.33240  0.45871  0.58438  1.0000
  H   H85       1.0  0.29644  0.47273  0.65747  1.0000
  H   H86       1.0  0.33383  0.51072  0.60162  1.0000
  H   H87       1.0  0.31201  0.42919  0.58011  1.0000
  H   H88       1.0  0.35054  0.46331  0.64137  1.0000
  H   H89       1.0  0.34909  0.46715  0.52357  1.0000
  C   C145      1.0  0.58097  0.86984  0.35299  1.0000
  C   C146      1.0  0.58201  0.80285  0.33808  1.0000
  N   N20       1.0  0.58800  0.82148  0.41657  1.0000
  C   C147      1.0  0.58834  0.85409  0.42926  1.0000
  C   C148      1.0  0.59569  0.86941  0.51470  1.0000
  O   O3        1.0  0.59713  0.85065  0.57599  1.0000
  O   O4        1.0  0.61898  0.90617  0.51989  1.0000
  C   C149      1.0  0.61303  0.92438  0.59498  1.0000
  C   C150      1.0  0.63659  0.96668  0.58259  1.0000
  H   H90       1.0  0.62137  0.91673  0.65700  1.0000
  H   H91       1.0  0.58391  0.91697  0.60070  1.0000
  H   H92       1.0  0.66593  0.97507  0.57840  1.0000
  H   H93       1.0  0.63247  0.98081  0.63911  1.0000
  H   H94       1.0  0.62845  0.97499  0.52144  1.0000
  C   C151      1.0  0.22420  0.80403  0.35317  1.0000
  C   C152      1.0  0.29112  0.87211  0.33818  1.0000
  N   N21       1.0  0.27252  0.85947  0.41670  1.0000
  C   C153      1.0  0.23993  0.82718  0.42943  1.0000
  C   C154      1.0  0.22464  0.81923  0.51489  1.0000
  O   O5        1.0  0.24342  0.83945  0.57617  1.0000
  O   O6        1.0  0.18788  0.80578  0.52014  1.0000
  C   C155      1.0  0.16969  0.78165  0.59525  1.0000
  C   C156      1.0  0.12739  0.76292  0.58293  1.0000
  H   H95       1.0  0.17736  0.79767  0.65727  1.0000
  H   H96       1.0  0.17708  0.75993  0.60092  1.0000
  H   H97       1.0  0.11901  0.78388  0.57878  1.0000
  H   H98       1.0  0.11327  0.74471  0.63946  1.0000
  H   H99       1.0  0.11905  0.74644  0.52177  1.0000
  C   C157      1.0  0.77274  0.61122  0.35303  1.0000
  C   C158      1.0  0.84107  0.61288  0.33839  1.0000
  N   N22       1.0  0.82826  0.61869  0.41684  1.0000
  C   C159      1.0  0.79583  0.61874  0.42940  1.0000
  C   C160      1.0  0.78771  0.62597  0.51480  1.0000
  O   O7        1.0  0.80788  0.62747  0.57622  1.0000
  O   O8        1.0  0.77411  0.64916  0.51991  1.0000
  C   C161      1.0  0.74984  0.64309  0.59484  1.0000
  C   C162      1.0  0.73098  0.66653  0.58232  1.0000
  H   H100      1.0  0.76577  0.65146  0.65698  1.0000
  H   H101      1.0  0.72820  0.61394  0.60040  1.0000
  H   H102      1.0  0.75186  0.69590  0.57828  1.0000
  H   H103      1.0  0.71267  0.66234  0.63872  1.0000
  H   H104      1.0  0.71460  0.65837  0.52106  1.0000
  C   C163      1.0  0.48252  0.25436  0.35246  1.0000
  C   C164      1.0  0.48094  0.32107  0.33778  1.0000
  N   N23       1.0  0.47487  0.30235  0.41613  1.0000
  C   C165      1.0  0.47475  0.26985  0.42868  1.0000
  C   C166      1.0  0.46718  0.25444  0.51388  1.0000
  O   O9        1.0  0.46461  0.27256  0.57523  1.0000
  O   O10       1.0  0.44451  0.21754  0.51935  1.0000
  C   C167      1.0  0.45101  0.19975  0.59444  1.0000
  C   C168      1.0  0.42816  0.15739  0.58223  1.0000
  H   H105      1.0  0.44243  0.20717  0.65650  1.0000
  H   H106      1.0  0.48030  0.20777  0.60001  1.0000
  H   H107      1.0  0.39867  0.14841  0.57823  1.0000
  H   H108      1.0  0.43270  0.14359  0.63873  1.0000
  H   H109      1.0  0.43653  0.14930  0.52103  1.0000
  C   C169      1.0  0.83972  0.32104  0.35284  1.0000
  C   C170      1.0  0.77294  0.25283  0.33797  1.0000
  N   N24       1.0  0.79163  0.26546  0.41637  1.0000
  C   C171      1.0  0.82416  0.29781  0.42902  1.0000
  C   C172      1.0  0.83953  0.30565  0.51427  1.0000
  O   O11       1.0  0.82138  0.28494  0.57554  1.0000
  O   O12       1.0  0.87642  0.31989  0.51985  1.0000
  C   C173      1.0  0.89416  0.34419  0.59501  1.0000
  C   C174      1.0  0.93653  0.36371  0.58294  1.0000
  H   H110      1.0  0.88671  0.32819  0.65704  1.0000
  H   H111      1.0  0.88613  0.36545  0.60057  1.0000
  H   H112      1.0  0.94552  0.34321  0.57897  1.0000
  H   H113      1.0  0.95029  0.38206  0.63950  1.0000
  H   H114      1.0  0.94465  0.38016  0.52178  1.0000
