data_image0
_chemical_formula_structural       C14H12C7NC12H12C2NC3NC3NC15H14C2H2CH3C2H2CH3C2H2CH3C2H2CH3C2H2CH3C2H2CH3C3NC2NC5NC3NC17H14CNC2NC4NC18H14C2NC19H12C4NC2NHNHC4NC2NHNHC4NC2NHNHC4NC2NHNHC4NC2NHNHC4NC2NHNH
_chemical_formula_sum              "C186 H120 N30"
_cell_length_a       41.8578
_cell_length_b       41.8577
_cell_length_c       15.0148
_cell_angle_alpha    90.0372
_cell_angle_beta     89.9628
_cell_angle_gamma    120

_space_group_name_H-M_alt    "P 1"
_space_group_IT_number       1

loop_
  _space_group_symop_operation_xyz
  'x, y, z'

loop_
  _atom_site_type_symbol
  _atom_site_label
  _atom_site_symmetry_multiplicity
  _atom_site_fract_x
  _atom_site_fract_y
  _atom_site_fract_z
  _atom_site_occupancy
  C   C1        1.0  0.94994  0.54692  0.35490  1.0000
  C   C2        1.0  0.09944  0.53875  0.33599  1.0000
  C   C3        1.0  0.10951  0.57587  0.35534  1.0000
  C   C4        1.0  0.14360  0.63647  0.38345  1.0000
  C   C5        1.0  0.14390  0.60371  0.38481  1.0000
  C   C6        1.0  0.16229  0.75121  0.26491  1.0000
  C   C7        1.0  0.13415  0.71403  0.26443  1.0000
  C   C8        1.0  0.12799  0.52919  0.33228  1.0000
  C   C9        1.0  0.18935  0.54281  0.28251  1.0000
  C   C10       1.0  0.15975  0.54963  0.27917  1.0000
  C   C11       1.0  0.92551  0.40881  0.26412  1.0000
  C   C12       1.0  0.89748  0.37159  0.26460  1.0000
  C   C13       1.0  0.89974  0.57301  0.27863  1.0000
  C   C14       1.0  0.86999  0.57960  0.28180  1.0000
  H   H1        1.0  0.84667  0.56155  0.24800  1.0000
  H   H2        1.0  0.89716  0.55153  0.24060  1.0000
  H   H3        1.0  0.99251  0.65781  0.26784  1.0000
  H   H4        1.0  0.93822  0.42056  0.20511  1.0000
  H   H5        1.0  0.89155  0.35755  0.20570  1.0000
  H   H6        1.0  0.06707  0.46511  0.26721  1.0000
  H   H7        1.0  0.16602  0.66152  0.39767  1.0000
  H   H8        1.0  0.16647  0.60150  0.40039  1.0000
  H   H9        1.0  0.16252  0.57118  0.24119  1.0000
  H   H10       1.0  0.21276  0.56076  0.24881  1.0000
  H   H11       1.0  0.12142  0.70229  0.20543  1.0000
  H   H12       1.0  0.16831  0.76523  0.20600  1.0000
  C   C15       1.0  0.44352  0.45359  0.28503  1.0000
  C   C16       1.0  0.44647  0.50711  0.32153  1.0000
  C   C17       1.0  0.54353  0.49500  0.35484  1.0000
  C   C18       1.0  0.61176  0.61346  0.32232  1.0000
  C   C19       1.0  0.61476  0.66699  0.28594  1.0000
  C   C20       1.0  0.55175  0.65264  0.33560  1.0000
  C   C21       1.0  0.51460  0.62556  0.35452  1.0000
  N   N1        1.0  0.49835  0.58880  0.34011  1.0000
  C   C22       1.0  0.45401  0.59899  0.38302  1.0000
  C   C23       1.0  0.48674  0.63208  0.38410  1.0000
  C   C24       1.0  0.33928  0.50297  0.26471  1.0000
  C   C25       1.0  0.37644  0.51195  0.26407  1.0000
  C   C26       1.0  0.56130  0.69075  0.33194  1.0000
  C   C27       1.0  0.57742  0.76640  0.33190  1.0000
  C   C28       1.0  0.54768  0.73848  0.28214  1.0000
  C   C29       1.0  0.54084  0.70204  0.27889  1.0000
  C   C30       1.0  0.68170  0.60854  0.26393  1.0000
  C   C31       1.0  0.71892  0.61771  0.26443  1.0000
  C   C32       1.0  0.51755  0.41873  0.27824  1.0000
  C   C33       1.0  0.51095  0.38239  0.28148  1.0000
  H   H13       1.0  0.52904  0.37709  0.24784  1.0000
  H   H14       1.0  0.53909  0.43762  0.24036  1.0000
  H   H15       1.0  0.43273  0.42659  0.26704  1.0000
  H   H16       1.0  0.66995  0.60948  0.20492  1.0000
  H   H17       1.0  0.73298  0.62582  0.20556  1.0000
  H   H18       1.0  0.62549  0.69388  0.26712  1.0000
  H   H19       1.0  0.42899  0.59631  0.39787  1.0000
  H   H20       1.0  0.48901  0.65682  0.40051  1.0000
  H   H21       1.0  0.51930  0.68326  0.24084  1.0000
  H   H22       1.0  0.52973  0.74392  0.24846  1.0000
  H   H23       1.0  0.38815  0.51098  0.20498  1.0000
  H   H24       1.0  0.32521  0.49495  0.20584  1.0000
  C   C34       1.0  0.63714  0.08190  0.28661  1.0000
  C   C35       1.0  0.58350  0.03135  0.32234  1.0000
  N   N2        1.0  0.58093  0.06203  0.33602  1.0000
  C   C36       1.0  0.62271  0.13056  0.33576  1.0000
  C   C37       1.0  0.59563  0.14063  0.35494  1.0000
  C   C38       1.0  0.47714  0.09041  0.32241  1.0000
  N   N3        1.0  0.47963  0.05971  0.33632  1.0000
  C   C39       1.0  0.42352  0.03986  0.28649  1.0000
  C   C40       1.0  0.43787  0.99116  0.33552  1.0000
  C   C41       1.0  0.46494  0.98103  0.35409  1.0000
  N   N4        1.0  0.50171  0.00156  0.33995  1.0000
  C   C42       1.0  0.49144  0.94694  0.38220  1.0000
  C   C43       1.0  0.45837  0.94662  0.38337  1.0000
  C   C44       1.0  0.56807  0.96696  0.34310  1.0000
  C   C45       1.0  0.58380  0.90751  0.34238  1.0000
  C   C46       1.0  0.58752  0.92825  0.26439  1.0000
  C   C47       1.0  0.57853  0.95643  0.26385  1.0000
  C   C48       1.0  0.39975  0.96262  0.33181  1.0000
  C   C49       1.0  0.32411  0.90308  0.33189  1.0000
  C   C50       1.0  0.35201  0.90129  0.28190  1.0000
  C   C51       1.0  0.38842  0.93092  0.27843  1.0000
  C   C52       1.0  0.48209  0.16521  0.26385  1.0000
  C   C53       1.0  0.47286  0.19322  0.26429  1.0000
  C   C54       1.0  0.67194  0.19080  0.27833  1.0000
  C   C55       1.0  0.73629  0.21898  0.33153  1.0000
  C   C56       1.0  0.70828  0.22055  0.28162  1.0000
  H   H25       1.0  0.71359  0.24388  0.24780  1.0000
  H   H26       1.0  0.65308  0.19341  0.24030  1.0000
  H   H27       1.0  0.66399  0.09807  0.26748  1.0000
  H   H28       1.0  0.56069  0.06166  0.36802  1.0000
  H   H29       1.0  0.49994  0.05998  0.36765  1.0000
  H   H30       1.0  0.48113  0.15247  0.20487  1.0000
  H   H31       1.0  0.46477  0.19914  0.20538  1.0000
  H   H32       1.0  0.39663  0.02370  0.26757  1.0000
  H   H33       1.0  0.49410  0.92459  0.39700  1.0000
  H   H34       1.0  0.43361  0.92415  0.39968  1.0000
  H   H35       1.0  0.40719  0.92815  0.24034  1.0000
  H   H36       1.0  0.34655  0.87790  0.24809  1.0000
  H   H37       1.0  0.57956  0.96915  0.20483  1.0000
  H   H38       1.0  0.59558  0.92223  0.20553  1.0000
  C   C57       1.0  0.24246  0.51645  0.26114  1.0000
  C   C58       1.0  0.27562  0.51584  0.26421  1.0000
  H   H39       1.0  0.29269  0.52624  0.21023  1.0000
  H   H40       1.0  0.23663  0.52520  0.20303  1.0000
  C   C59       1.0  0.26764  0.47021  0.04494  1.0000
  H   H41       1.0  0.24793  0.47789  0.07014  1.0000
  H   H42       1.0  0.29377  0.49525  0.03047  1.0000
  H   H43       1.0  0.27228  0.45490  0.09728  1.0000
  C   C60       1.0  0.57405  0.81794  0.26075  1.0000
  C   C61       1.0  0.57467  0.85172  0.26381  1.0000
  H   H44       1.0  0.56428  0.85836  0.20983  1.0000
  H   H45       1.0  0.56529  0.80332  0.20264  1.0000
  C   C62       1.0  0.62031  0.88943  0.04450  1.0000
  H   H46       1.0  0.61264  0.86205  0.06971  1.0000
  H   H47       1.0  0.59526  0.89049  0.03004  1.0000
  H   H48       1.0  0.63561  0.90940  0.09685  1.0000
  C   C63       1.0  0.27255  0.84811  0.26089  1.0000
  C   C64       1.0  0.23880  0.81493  0.26404  1.0000
  H   H49       1.0  0.23214  0.79786  0.21007  1.0000
  H   H50       1.0  0.28713  0.85396  0.20271  1.0000
  C   C65       1.0  0.20128  0.82287  0.04488  1.0000
  H   H51       1.0  0.22866  0.84259  0.07003  1.0000
  H   H52       1.0  0.20022  0.79676  0.03034  1.0000
  H   H53       1.0  0.18132  0.81820  0.09728  1.0000
  C   C66       1.0  0.81638  0.60531  0.26066  1.0000
  C   C67       1.0  0.78304  0.60557  0.26380  1.0000
  H   H54       1.0  0.76601  0.59505  0.20981  1.0000
  H   H55       1.0  0.82235  0.59667  0.20250  1.0000
  C   C68       1.0  0.79063  0.65099  0.04464  1.0000
  H   H56       1.0  0.81053  0.64358  0.06980  1.0000
  H   H57       1.0  0.76464  0.62578  0.03022  1.0000
  H   H58       1.0  0.78579  0.66617  0.09701  1.0000
  C   C69       1.0  0.48522  0.30307  0.26027  1.0000
  C   C70       1.0  0.48498  0.26948  0.26345  1.0000
  H   H59       1.0  0.49552  0.26295  0.20950  1.0000
  H   H60       1.0  0.49383  0.31763  0.20207  1.0000
  C   C71       1.0  0.43966  0.23183  0.04427  1.0000
  H   H61       1.0  0.44706  0.25916  0.06937  1.0000
  H   H62       1.0  0.46487  0.23105  0.02976  1.0000
  H   H63       1.0  0.42453  0.21185  0.09673  1.0000
  C   C72       1.0  0.78762  0.27415  0.26058  1.0000
  C   C73       1.0  0.82120  0.30750  0.26380  1.0000
  H   H64       1.0  0.82775  0.32455  0.20985  1.0000
  H   H65       1.0  0.77305  0.26819  0.20239  1.0000
  C   C74       1.0  0.85887  0.29982  0.04466  1.0000
  H   H66       1.0  0.83154  0.27991  0.06978  1.0000
  H   H67       1.0  0.85968  0.32581  0.03025  1.0000
  H   H68       1.0  0.87886  0.30464  0.09706  1.0000
  C   C75       1.0  0.00869  0.64721  0.28744  1.0000
  C   C76       1.0  0.04663  0.66739  0.29250  1.0000
  C   C77       1.0  0.05926  0.64415  0.32310  1.0000
  N   N5        1.0  0.02857  0.61097  0.33717  1.0000
  C   C78       1.0  0.99719  0.61179  0.31959  1.0000
  C   C79       1.0  0.96000  0.58407  0.33614  1.0000
  N   N6        1.0  0.97049  0.53070  0.34063  1.0000
  C   C80       1.0  0.95112  0.49403  0.35723  1.0000
  C   C81       1.0  0.91591  0.48632  0.38308  1.0000
  C   C82       1.0  0.91556  0.51906  0.38443  1.0000
  C   C83       1.0  0.96309  0.46812  0.34242  1.0000
  C   C84       1.0  0.00031  0.47879  0.32223  1.0000
  N   N7        1.0  0.03093  0.51209  0.33559  1.0000
  C   C85       1.0  0.06230  0.51118  0.31839  1.0000
  C   C86       1.0  0.05087  0.47586  0.28551  1.0000
  C   C87       1.0  0.01294  0.45559  0.29126  1.0000
  N   N8        1.0  0.08902  0.59215  0.34095  1.0000
  C   C88       1.0  0.10838  0.62879  0.35783  1.0000
  C   C89       1.0  0.09650  0.65474  0.34267  1.0000
  C   C90       1.0  0.12365  0.69309  0.34371  1.0000
  C   C91       1.0  0.14248  0.71040  0.42304  1.0000
  C   C92       1.0  0.17253  0.74666  0.42164  1.0000
  C   C93       1.0  0.18309  0.76827  0.34283  1.0000
  C   C94       1.0  0.12575  0.49951  0.38225  1.0000
  C   C95       1.0  0.15405  0.49067  0.37876  1.0000
  C   C96       1.0  0.18751  0.51306  0.33225  1.0000
  C   C97       1.0  0.93596  0.42975  0.34343  1.0000
  C   C98       1.0  0.87675  0.35445  0.34257  1.0000
  C   C99       1.0  0.88720  0.37610  0.42137  1.0000
  C   C100      1.0  0.91712  0.41242  0.42274  1.0000
  C   C101      1.0  0.93137  0.59353  0.33205  1.0000
  C   C102      1.0  0.93334  0.62310  0.38207  1.0000
  C   C103      1.0  0.90489  0.63173  0.37841  1.0000
  C   C104      1.0  0.87153  0.60919  0.33173  1.0000
  H   H69       1.0  0.90911  0.65483  0.41139  1.0000
  H   H70       1.0  0.95588  0.63903  0.42103  1.0000
  H   H71       1.0  0.06184  0.69478  0.27738  1.0000
  H   H72       1.0  0.02886  0.59091  0.36838  1.0000
  H   H73       1.0  0.03065  0.53178  0.36874  1.0000
  H   H74       1.0  0.89303  0.52128  0.40039  1.0000
  H   H75       1.0  0.89354  0.46128  0.39765  1.0000
  H   H76       1.0  0.92337  0.42705  0.48103  1.0000
  H   H77       1.0  0.87214  0.36640  0.47856  1.0000
  H   H78       1.0  0.99778  0.42812  0.27687  1.0000
  H   H79       1.0  0.10310  0.48362  0.42092  1.0000
  H   H80       1.0  0.14964  0.46747  0.41159  1.0000
  H   H81       1.0  0.18765  0.75628  0.47875  1.0000
  H   H82       1.0  0.13625  0.69576  0.48129  1.0000
  C   C105      1.0  0.42328  0.47128  0.29055  1.0000
  N   N9        1.0  0.47977  0.50977  0.33492  1.0000
  C   C106      1.0  0.47887  0.47750  0.31769  1.0000
  C   C107      1.0  0.50642  0.46793  0.33545  1.0000
  N   N10       1.0  0.55982  0.53174  0.34025  1.0000
  C   C108      1.0  0.59646  0.54902  0.35712  1.0000
  C   C109      1.0  0.60411  0.52152  0.38329  1.0000
  C   C110      1.0  0.57135  0.48845  0.38449  1.0000
  C   C111      1.0  0.62239  0.58687  0.34220  1.0000
  N   N11       1.0  0.57849  0.61086  0.33584  1.0000
  C   C112      1.0  0.57938  0.64310  0.31845  1.0000
  C   C113      1.0  0.63496  0.64926  0.29125  1.0000
  C   C114      1.0  0.46170  0.57149  0.35702  1.0000
  C   C115      1.0  0.43579  0.53362  0.34206  1.0000
  C   C116      1.0  0.39742  0.52238  0.34328  1.0000
  C   C117      1.0  0.38015  0.52389  0.42274  1.0000
  C   C118      1.0  0.34389  0.51769  0.42151  1.0000
  C   C119      1.0  0.32224  0.50667  0.34276  1.0000
  C   C120      1.0  0.59097  0.71823  0.38192  1.0000
  C   C121      1.0  0.59981  0.75536  0.37842  1.0000
  C   C122      1.0  0.66076  0.59808  0.34323  1.0000
  C   C123      1.0  0.73607  0.61421  0.34245  1.0000
  C   C124      1.0  0.71442  0.60308  0.42125  1.0000
  C   C125      1.0  0.67809  0.59665  0.42259  1.0000
  C   C126      1.0  0.49695  0.42985  0.33141  1.0000
  C   C127      1.0  0.46731  0.40227  0.38125  1.0000
  C   C128      1.0  0.45870  0.36519  0.37771  1.0000
  C   C129      1.0  0.48129  0.35436  0.33123  1.0000
  H   H83       1.0  0.43556  0.34631  0.41058  1.0000
  H   H84       1.0  0.45133  0.40890  0.42001  1.0000
  H   H85       1.0  0.39576  0.45891  0.27679  1.0000
  H   H86       1.0  0.49943  0.52971  0.36813  1.0000
  H   H87       1.0  0.55865  0.59068  0.36805  1.0000
  H   H88       1.0  0.56906  0.46370  0.40077  1.0000
  H   H89       1.0  0.62912  0.52417  0.39809  1.0000
  H   H90       1.0  0.66343  0.58826  0.48084  1.0000
  H   H91       1.0  0.72409  0.59768  0.47841  1.0000
  H   H92       1.0  0.66244  0.66156  0.27695  1.0000
  H   H93       1.0  0.60685  0.71148  0.42063  1.0000
  H   H94       1.0  0.62301  0.77415  0.41125  1.0000
  H   H95       1.0  0.33430  0.52319  0.47871  1.0000
  H   H96       1.0  0.39482  0.53229  0.48093  1.0000
  C   C130      1.0  0.61935  0.04395  0.29157  1.0000
  C   C131      1.0  0.61317  0.09339  0.31869  1.0000
  N   N12       1.0  0.55888  0.12014  0.34056  1.0000
  C   C132      1.0  0.54159  0.13951  0.35739  1.0000
  C   C133      1.0  0.56913  0.17474  0.38304  1.0000
  C   C134      1.0  0.60219  0.17505  0.38425  1.0000
  C   C135      1.0  0.50376  0.12764  0.34225  1.0000
  C   C136      1.0  0.44741  0.02835  0.31877  1.0000
  C   C137      1.0  0.44127  0.07780  0.29182  1.0000
  C   C138      1.0  0.51898  0.98216  0.35654  1.0000
  C   C139      1.0  0.55686  0.99411  0.34201  1.0000
  C   C140      1.0  0.56651  0.94816  0.42248  1.0000
  C   C141      1.0  0.57272  0.91810  0.42117  1.0000
  C   C142      1.0  0.37231  0.96480  0.38204  1.0000
  C   C143      1.0  0.33517  0.93651  0.37857  1.0000
  C   C144      1.0  0.49258  0.15480  0.34316  1.0000
  C   C145      1.0  0.47640  0.21396  0.34224  1.0000
  C   C146      1.0  0.48758  0.20354  0.42105  1.0000
  C   C147      1.0  0.49405  0.17366  0.42244  1.0000
  C   C148      1.0  0.66079  0.15916  0.33172  1.0000
  C   C149      1.0  0.68835  0.15717  0.38177  1.0000
  C   C150      1.0  0.72543  0.18561  0.37819  1.0000
  H   H97       1.0  0.74430  0.18138  0.41116  1.0000
  H   H98       1.0  0.68171  0.13461  0.42067  1.0000
  H   H99       1.0  0.63161  0.02876  0.27710  1.0000
  H   H100      1.0  0.62696  0.19756  0.40029  1.0000
  H   H101      1.0  0.56649  0.19713  0.39754  1.0000
  H   H102      1.0  0.50243  0.16745  0.48075  1.0000
  H   H103      1.0  0.49298  0.21865  0.47817  1.0000
  H   H104      1.0  0.42902  0.09299  0.27729  1.0000
  H   H105      1.0  0.37908  0.98739  0.42095  1.0000
  H   H106      1.0  0.31641  0.94090  0.41160  1.0000
  H   H107      1.0  0.56721  0.90301  0.47832  1.0000
  H   H108      1.0  0.55808  0.95440  0.48069  1.0000
  C   C151      1.0  0.28618  0.50326  0.34003  1.0000
  C   C152      1.0  0.26097  0.49038  0.41261  1.0000
  C   C153      1.0  0.22853  0.49351  0.41194  1.0000
  C   C154      1.0  0.21871  0.50708  0.33582  1.0000
  N   N13       1.0  0.20779  0.48324  0.48754  1.0000
  C   C155      1.0  0.21475  0.46881  0.56061  1.0000
  C   C156      1.0  0.24544  0.46366  0.55968  1.0000
  N   N14       1.0  0.26699  0.47481  0.48564  1.0000
  H   H109      1.0  0.19721  0.46090  0.61380  1.0000
  N   N15       1.0  0.25289  0.44658  0.63169  1.0000
  H   H110      1.0  0.27177  0.43906  0.61246  1.0000
  C   C157      1.0  0.58727  0.87491  0.33960  1.0000
  C   C158      1.0  0.60015  0.86260  0.41219  1.0000
  C   C159      1.0  0.59701  0.82703  0.41153  1.0000
  C   C160      1.0  0.58342  0.80359  0.33544  1.0000
  N   N16       1.0  0.60729  0.81660  0.48714  1.0000
  C   C161      1.0  0.62175  0.83805  0.56017  1.0000
  C   C162      1.0  0.62688  0.87388  0.55924  1.0000
  N   N17       1.0  0.61572  0.88423  0.48521  1.0000
  H   H111      1.0  0.62960  0.82841  0.61342  1.0000
  N   N18       1.0  0.64395  0.89844  0.63126  1.0000
  H   H112      1.0  0.65146  0.92483  0.61203  1.0000
  C   C163      1.0  0.21568  0.80435  0.33995  1.0000
  C   C164      1.0  0.22799  0.82958  0.41250  1.0000
  C   C165      1.0  0.26354  0.86204  0.41175  1.0000
  C   C166      1.0  0.28694  0.87186  0.33557  1.0000
  N   N19       1.0  0.27400  0.88278  0.48736  1.0000
  C   C167      1.0  0.25258  0.87582  0.56047  1.0000
  C   C168      1.0  0.21676  0.84510  0.55963  1.0000
  N   N20       1.0  0.20639  0.82355  0.48560  1.0000
  H   H113      1.0  0.26223  0.89332  0.61372  1.0000
  N   N21       1.0  0.19223  0.83762  0.63171  1.0000
  H   H114      1.0  0.16583  0.81873  0.61252  1.0000
  C   C169      1.0  0.77227  0.61798  0.33967  1.0000
  C   C170      1.0  0.79747  0.63105  0.41223  1.0000
  C   C171      1.0  0.83010  0.62827  0.41151  1.0000
  C   C172      1.0  0.84013  0.61485  0.33534  1.0000
  N   N22       1.0  0.85083  0.63870  0.48710  1.0000
  C   C173      1.0  0.84367  0.65300  0.56020  1.0000
  C   C174      1.0  0.81277  0.65781  0.55934  1.0000
  N   N23       1.0  0.79125  0.64648  0.48531  1.0000
  H   H115      1.0  0.86120  0.66103  0.61340  1.0000
  N   N24       1.0  0.80509  0.67473  0.63139  1.0000
  H   H116      1.0  0.78602  0.68199  0.61222  1.0000
  C   C175      1.0  0.47262  0.24638  0.33938  1.0000
  C   C176      1.0  0.45949  0.25852  0.41188  1.0000
  C   C177      1.0  0.46221  0.29391  0.41106  1.0000
  C   C178      1.0  0.47562  0.31730  0.33487  1.0000
  N   N25       1.0  0.45173  0.30423  0.48659  1.0000
  C   C179      1.0  0.43743  0.28281  0.55972  1.0000
  C   C180      1.0  0.43273  0.24714  0.55898  1.0000
  N   N26       1.0  0.44409  0.23692  0.48500  1.0000
  H   H117      1.0  0.42941  0.29234  0.61291  1.0000
  N   N27       1.0  0.41587  0.22260  0.63111  1.0000
  H   H118      1.0  0.40862  0.19626  0.61198  1.0000
  C   C181      1.0  0.84432  0.31825  0.33971  1.0000
  C   C182      1.0  0.83215  0.29303  0.41223  1.0000
  C   C183      1.0  0.79674  0.26039  0.41143  1.0000
  C   C184      1.0  0.77336  0.25038  0.33522  1.0000
  N   N28       1.0  0.78639  0.23965  0.48699  1.0000
  C   C185      1.0  0.80779  0.24680  0.56015  1.0000
  C   C186      1.0  0.84350  0.27770  0.55934  1.0000
  N   N29       1.0  0.85375  0.29924  0.48534  1.0000
  H   H119      1.0  0.79826  0.22924  0.61329  1.0000
  N   N30       1.0  0.86805  0.28536  0.63142  1.0000
  H   H120      1.0  0.89440  0.30444  0.61228  1.0000
