data_image0
_chemical_formula_structural       C12H6CH2C2O2C12H6CH2C2O2C12H6CH2C2O2C3OHOHNHC3OHOHNHC3OHOHNHC3OHOHNHC3OHOHNHC3OHOHNHC12H6C2H2C2O2C12H6C2H2C2O2C12H6C2H2C2O2C3O2H2NHC3O2H2NHC3O2H2NHC3O2H2NHC3O2H2NHC3O2H2NH
_chemical_formula_sum              "C129 H84 O36 N12"
_cell_length_a       34.3725
_cell_length_b       34.3726
_cell_length_c       15.0374
_cell_angle_alpha    90
_cell_angle_beta     90
_cell_angle_gamma    120

_space_group_name_H-M_alt    "P 1"
_space_group_IT_number       1

loop_
  _space_group_symop_operation_xyz
  'x, y, z'

loop_
  _atom_site_type_symbol
  _atom_site_label
  _atom_site_symmetry_multiplicity
  _atom_site_fract_x
  _atom_site_fract_y
  _atom_site_fract_z
  _atom_site_occupancy
  C   C1        1.0  0.96795  0.51012  0.27645  1.0000
  C   C2        1.0  0.96882  0.51033  0.18189  1.0000
  C   C3        1.0  0.02751  0.48722  0.18189  1.0000
  C   C4        1.0  0.02835  0.48739  0.27644  1.0000
  C   C5        1.0  0.05989  0.47831  0.31903  1.0000
  C   C6        1.0  0.09041  0.47075  0.26966  1.0000
  C   C7        1.0  0.08775  0.46933  0.17615  1.0000
  C   C8        1.0  0.05631  0.47707  0.13275  1.0000
  C   C9        1.0  0.94000  0.52044  0.13275  1.0000
  C   C10       1.0  0.90852  0.52814  0.17615  1.0000
  C   C11       1.0  0.90585  0.52670  0.26966  1.0000
  C   C12       1.0  0.93639  0.51919  0.31903  1.0000
  H   H1        1.0  0.06248  0.58190  0.27486  1.0000
  H   H2        1.0  0.93377  0.41566  0.27467  1.0000
  H   H3        1.0  0.10953  0.46395  0.13873  1.0000
  H   H4        1.0  0.05597  0.47719  0.06463  1.0000
  H   H5        1.0  0.94037  0.52039  0.06463  1.0000
  H   H6        1.0  0.88676  0.53354  0.13873  1.0000
  C   C13       1.0  0.99817  0.49878  0.13037  1.0000
  H   H7        1.0  0.01953  0.52748  0.08776  1.0000
  H   H8        1.0  0.97682  0.47009  0.08773  1.0000
  C   C14       1.0  0.86996  0.52815  0.31179  1.0000
  C   C15       1.0  0.12629  0.46928  0.31177  1.0000
  O   O1        1.0  0.11569  0.68053  0.29409  1.0000
  O   O2        1.0  0.88048  0.31679  0.29435  1.0000
  C   C16       1.0  0.48679  0.45720  0.27647  1.0000
  C   C17       1.0  0.48658  0.45784  0.18191  1.0000
  C   C18       1.0  0.50966  0.53962  0.18182  1.0000
  C   C19       1.0  0.50952  0.54033  0.27639  1.0000
  C   C20       1.0  0.51865  0.58099  0.31891  1.0000
  C   C21       1.0  0.52618  0.61904  0.26948  1.0000
  C   C22       1.0  0.52756  0.61776  0.17597  1.0000
  C   C23       1.0  0.51976  0.57854  0.13262  1.0000
  C   C24       1.0  0.47645  0.41889  0.13281  1.0000
  C   C25       1.0  0.46874  0.37972  0.17625  1.0000
  C   C26       1.0  0.47019  0.37851  0.26975  1.0000
  C   C27       1.0  0.47772  0.41658  0.31909  1.0000
  H   H9        1.0  0.41507  0.48006  0.27467  1.0000
  H   H10       1.0  0.58131  0.51760  0.27480  1.0000
  H   H11       1.0  0.53294  0.64491  0.13850  1.0000
  H   H12       1.0  0.51968  0.57808  0.06450  1.0000
  H   H13       1.0  0.47649  0.41929  0.06469  1.0000
  H   H14       1.0  0.46333  0.35254  0.13886  1.0000
  C   C28       1.0  0.49810  0.49871  0.13035  1.0000
  H   H15       1.0  0.46937  0.49134  0.08777  1.0000
  H   H16       1.0  0.52677  0.50604  0.08767  1.0000
  C   C29       1.0  0.46875  0.34118  0.31192  1.0000
  C   C30       1.0  0.52773  0.65646  0.31144  1.0000
  O   O3        1.0  0.31624  0.43445  0.29429  1.0000
  O   O4        1.0  0.67991  0.56295  0.29390  1.0000
  C   C31       1.0  0.53973  0.02894  0.27642  1.0000
  C   C32       1.0  0.53906  0.02810  0.18185  1.0000
  C   C33       1.0  0.45728  0.96941  0.18182  1.0000
  C   C34       1.0  0.45660  0.96854  0.27638  1.0000
  C   C35       1.0  0.41596  0.93698  0.31892  1.0000
  C   C36       1.0  0.37789  0.90650  0.26952  1.0000
  C   C37       1.0  0.37914  0.90918  0.17600  1.0000
  C   C38       1.0  0.41836  0.94059  0.13265  1.0000
  C   C39       1.0  0.57800  0.05693  0.13272  1.0000
  C   C40       1.0  0.61720  0.08836  0.17611  1.0000
  C   C41       1.0  0.61842  0.09102  0.26962  1.0000
  C   C42       1.0  0.58037  0.06046  0.31901  1.0000
  H   H17       1.0  0.51694  0.93439  0.27480  1.0000
  H   H18       1.0  0.47944  0.06311  0.27462  1.0000
  H   H19       1.0  0.35197  0.88744  0.13855  1.0000
  H   H20       1.0  0.41879  0.94100  0.06452  1.0000
  H   H21       1.0  0.57757  0.05654  0.06459  1.0000
  H   H22       1.0  0.64435  0.11014  0.13869  1.0000
  C   C43       1.0  0.49818  0.99876  0.13032  1.0000
  H   H23       1.0  0.50553  0.97741  0.08769  1.0000
  H   H24       1.0  0.49084  0.02011  0.08769  1.0000
  C   C44       1.0  0.65580  0.12690  0.31166  1.0000
  C   C45       1.0  0.34047  0.87063  0.31150  1.0000
  O   O5        1.0  0.56235  0.88114  0.29405  1.0000
  O   O6        1.0  0.43387  0.11637  0.29423  1.0000
  C   C46       1.0  0.27457  0.49512  0.26254  1.0000
  C   C47       1.0  0.23516  0.49629  0.24128  1.0000
  C   C48       1.0  0.20605  0.49513  0.30924  1.0000
  O   O7        1.0  0.22460  0.49700  0.15414  1.0000
  H   H25       1.0  0.24174  0.52858  0.13510  1.0000
  O   O8        1.0  0.30358  0.49936  0.19639  1.0000
  H   H26       1.0  0.28869  0.47158  0.16097  1.0000
  N   N1        1.0  0.16930  0.49820  0.28611  1.0000
  H   H27       1.0  0.17419  0.52088  0.24148  1.0000
  C   C49       1.0  0.50179  0.77889  0.26257  1.0000
  C   C50       1.0  0.50065  0.73832  0.24126  1.0000
  C   C51       1.0  0.50183  0.71036  0.30917  1.0000
  O   O9        1.0  0.49997  0.72710  0.15410  1.0000
  H   H28       1.0  0.46839  0.71263  0.13504  1.0000
  O   O10       1.0  0.49749  0.80365  0.19648  1.0000
  H   H29       1.0  0.52521  0.81649  0.16090  1.0000
  N   N2        1.0  0.49880  0.67057  0.28592  1.0000
  H   H30       1.0  0.47617  0.65283  0.24116  1.0000
  C   C52       1.0  0.21797  0.72223  0.26258  1.0000
  C   C53       1.0  0.25852  0.76166  0.24121  1.0000
  C   C54       1.0  0.28649  0.79081  0.30908  1.0000
  O   O11       1.0  0.26972  0.77217  0.15403  1.0000
  H   H31       1.0  0.28420  0.75506  0.13499  1.0000
  O   O12       1.0  0.19316  0.69314  0.19656  1.0000
  H   H32       1.0  0.18035  0.70802  0.16092  1.0000
  N   N3        1.0  0.32625  0.82760  0.28575  1.0000
  H   H33       1.0  0.34404  0.82270  0.24111  1.0000
  C   C55       1.0  0.72165  0.50239  0.26256  1.0000
  C   C56       1.0  0.76106  0.50121  0.24125  1.0000
  C   C57       1.0  0.79020  0.50240  0.30916  1.0000
  O   O13       1.0  0.77157  0.50045  0.15410  1.0000
  H   H34       1.0  0.75443  0.46886  0.13512  1.0000
  O   O14       1.0  0.69259  0.49808  0.19647  1.0000
  H   H35       1.0  0.70747  0.52580  0.16086  1.0000
  N   N4        1.0  0.82695  0.49933  0.28597  1.0000
  H   H36       1.0  0.82205  0.47663  0.24137  1.0000
  C   C58       1.0  0.49456  0.21868  0.26245  1.0000
  C   C59       1.0  0.49569  0.25925  0.24123  1.0000
  C   C60       1.0  0.49450  0.28717  0.30920  1.0000
  O   O15       1.0  0.49641  0.27054  0.15410  1.0000
  H   H37       1.0  0.52800  0.28499  0.13506  1.0000
  O   O16       1.0  0.49883  0.19394  0.19630  1.0000
  H   H38       1.0  0.47106  0.18104  0.16087  1.0000
  N   N5        1.0  0.49758  0.32699  0.28609  1.0000
  H   H39       1.0  0.52028  0.34482  0.24152  1.0000
  C   C61       1.0  0.77823  0.27524  0.26248  1.0000
  C   C62       1.0  0.73766  0.23580  0.24126  1.0000
  C   C63       1.0  0.70973  0.20669  0.30923  1.0000
  O   O17       1.0  0.72642  0.22520  0.15412  1.0000
  H   H40       1.0  0.71195  0.24231  0.13502  1.0000
  O   O18       1.0  0.80298  0.30425  0.19632  1.0000
  H   H41       1.0  0.81587  0.28938  0.16090  1.0000
  N   N6        1.0  0.66992  0.16993  0.28606  1.0000
  H   H42       1.0  0.65216  0.17482  0.24133  1.0000
  C   C64       1.0  0.96793  0.45716  0.38520  1.0000
  C   C65       1.0  0.96878  0.45780  0.47976  1.0000
  C   C66       1.0  0.02745  0.53960  0.47985  1.0000
  C   C67       1.0  0.02833  0.54030  0.38529  1.0000
  C   C68       1.0  0.05626  0.57852  0.52905  1.0000
  C   C69       1.0  0.08770  0.61773  0.48572  1.0000
  C   C70       1.0  0.09039  0.61899  0.39222  1.0000
  C   C71       1.0  0.05989  0.58094  0.34278  1.0000
  C   C72       1.0  0.93641  0.41653  0.34257  1.0000
  C   C73       1.0  0.90584  0.37848  0.39192  1.0000
  C   C74       1.0  0.90850  0.37968  0.48543  1.0000
  C   C75       1.0  0.93998  0.41885  0.52886  1.0000
  H   H43       1.0  0.88670  0.35252  0.52282  1.0000
  H   H44       1.0  0.94030  0.41927  0.59699  1.0000
  H   H45       1.0  0.05584  0.57807  0.59717  1.0000
  H   H46       1.0  0.10943  0.64490  0.52318  1.0000
  H   H47       1.0  0.06246  0.47995  0.38694  1.0000
  H   H48       1.0  0.93378  0.51748  0.38694  1.0000
  C   C76       1.0  0.99814  0.49874  0.33085  1.0000
  C   C77       1.0  0.99811  0.49868  0.53132  1.0000
  H   H49       1.0  0.97674  0.50601  0.57395  1.0000
  H   H50       1.0  0.01946  0.49134  0.57396  1.0000
  C   C78       1.0  0.12624  0.65641  0.35019  1.0000
  C   C79       1.0  0.86993  0.34116  0.34978  1.0000
  O   O19       1.0  0.11575  0.43445  0.36742  1.0000
  O   O20       1.0  0.88054  0.56305  0.36729  1.0000
  C   C80       1.0  0.53971  0.51015  0.38525  1.0000
  C   C81       1.0  0.53902  0.51033  0.47981  1.0000
  C   C82       1.0  0.45723  0.48722  0.47974  1.0000
  C   C83       1.0  0.45658  0.48742  0.38519  1.0000
  C   C84       1.0  0.41829  0.47711  0.52886  1.0000
  C   C85       1.0  0.37911  0.46937  0.48544  1.0000
  C   C86       1.0  0.37789  0.47082  0.39192  1.0000
  C   C87       1.0  0.41595  0.47832  0.34257  1.0000
  C   C88       1.0  0.58035  0.51923  0.34272  1.0000
  C   C89       1.0  0.61841  0.52679  0.39214  1.0000
  C   C90       1.0  0.61715  0.52820  0.48566  1.0000
  C   C91       1.0  0.57794  0.52041  0.52900  1.0000
  H   H51       1.0  0.64431  0.53363  0.52311  1.0000
  H   H52       1.0  0.57750  0.52038  0.59713  1.0000
  H   H53       1.0  0.41869  0.47711  0.59698  1.0000
  H   H54       1.0  0.35193  0.46395  0.52284  1.0000
  H   H55       1.0  0.51699  0.58193  0.38682  1.0000
  H   H56       1.0  0.47942  0.41569  0.38700  1.0000
  C   C92       1.0  0.49816  0.49878  0.33082  1.0000
  C   C93       1.0  0.49811  0.49876  0.53130  1.0000
  H   H57       1.0  0.49076  0.47005  0.57390  1.0000
  H   H58       1.0  0.50545  0.52744  0.57395  1.0000
  C   C94       1.0  0.34055  0.46936  0.34977  1.0000
  C   C95       1.0  0.65582  0.52833  0.35015  1.0000
  O   O21       1.0  0.56228  0.68049  0.36788  1.0000
  O   O22       1.0  0.43384  0.31685  0.36738  1.0000
  C   C96       1.0  0.48678  0.02895  0.38515  1.0000
  C   C97       1.0  0.48656  0.02809  0.47971  1.0000
  C   C98       1.0  0.50969  0.96942  0.47980  1.0000
  C   C99       1.0  0.50951  0.96854  0.38523  1.0000
  C   C100      1.0  0.51980  0.94061  0.52899  1.0000
  C   C101      1.0  0.52758  0.90917  0.48566  1.0000
  C   C102      1.0  0.52613  0.90648  0.39216  1.0000
  C   C103      1.0  0.51862  0.93700  0.34271  1.0000
  C   C104      1.0  0.47768  0.06047  0.34253  1.0000
  C   C105      1.0  0.47021  0.09105  0.39188  1.0000
  C   C106      1.0  0.46876  0.08839  0.48539  1.0000
  C   C107      1.0  0.47643  0.05691  0.52882  1.0000
  H   H59       1.0  0.46337  0.11018  0.52279  1.0000
  H   H60       1.0  0.47652  0.05657  0.59694  1.0000
  H   H61       1.0  0.51974  0.94101  0.59711  1.0000
  H   H62       1.0  0.53296  0.88741  0.52312  1.0000
  H   H63       1.0  0.41501  0.93440  0.38684  1.0000
  H   H64       1.0  0.58126  0.06309  0.38692  1.0000
  C   C108      1.0  0.49816  0.99874  0.33080  1.0000
  C   C109      1.0  0.49812  0.99876  0.53127  1.0000
  H   H65       1.0  0.52682  0.02013  0.57390  1.0000
  H   H66       1.0  0.46942  0.97741  0.57390  1.0000
  C   C110      1.0  0.52768  0.87061  0.35013  1.0000
  C   C111      1.0  0.46877  0.12694  0.34974  1.0000
  O   O23       1.0  0.31639  0.88117  0.36774  1.0000
  O   O24       1.0  0.67989  0.11639  0.36792  1.0000
  C   C112      1.0  0.28647  0.49505  0.35257  1.0000
  C   C113      1.0  0.21801  0.49518  0.39928  1.0000
  C   C114      1.0  0.25856  0.49629  0.42052  1.0000
  O   O25       1.0  0.19327  0.49949  0.46540  1.0000
  O   O26       1.0  0.26982  0.49699  0.50766  1.0000
  H   H67       1.0  0.18036  0.47173  0.50087  1.0000
  H   H68       1.0  0.28431  0.52858  0.52669  1.0000
  N   N7        1.0  0.32627  0.49809  0.37574  1.0000
  H   H69       1.0  0.34410  0.52083  0.42026  1.0000
  C   C115      1.0  0.50182  0.79080  0.35263  1.0000
  C   C116      1.0  0.50172  0.72221  0.39923  1.0000
  C   C117      1.0  0.50060  0.76164  0.42053  1.0000
  O   O27       1.0  0.49739  0.69312  0.46526  1.0000
  O   O28       1.0  0.49986  0.77216  0.50769  1.0000
  H   H70       1.0  0.52507  0.70799  0.50096  1.0000
  H   H71       1.0  0.46827  0.75504  0.52667  1.0000
  N   N8        1.0  0.49882  0.82758  0.37587  1.0000
  H   H72       1.0  0.47614  0.82270  0.42050  1.0000
  C   C118      1.0  0.20606  0.71038  0.35265  1.0000
  C   C119      1.0  0.27465  0.77890  0.39915  1.0000
  C   C120      1.0  0.23523  0.73835  0.42053  1.0000
  O   O29       1.0  0.30374  0.80367  0.46519  1.0000
  O   O30       1.0  0.22472  0.72713  0.50770  1.0000
  H   H73       1.0  0.28887  0.81651  0.50081  1.0000
  H   H74       1.0  0.24182  0.71265  0.52671  1.0000
  N   N9        1.0  0.16927  0.67063  0.37597  1.0000
  H   H75       1.0  0.17417  0.65282  0.42057  1.0000
  C   C121      1.0  0.70980  0.50249  0.35262  1.0000
  C   C122      1.0  0.77829  0.50239  0.39922  1.0000
  C   C123      1.0  0.73775  0.50130  0.42053  1.0000
  O   O31       1.0  0.80305  0.49809  0.46531  1.0000
  O   O32       1.0  0.72654  0.50063  0.50769  1.0000
  H   H76       1.0  0.81597  0.52586  0.50077  1.0000
  H   H77       1.0  0.71204  0.46905  0.52675  1.0000
  N   N10       1.0  0.67004  0.49951  0.37590  1.0000
  H   H78       1.0  0.65224  0.47682  0.42053  1.0000
  C   C124      1.0  0.49448  0.20669  0.35248  1.0000
  C   C125      1.0  0.49454  0.27524  0.39924  1.0000
  C   C126      1.0  0.49568  0.23581  0.42045  1.0000
  O   O33       1.0  0.49881  0.30426  0.46539  1.0000
  O   O34       1.0  0.49638  0.22524  0.50758  1.0000
  H   H79       1.0  0.47104  0.28939  0.50081  1.0000
  H   H80       1.0  0.52796  0.24237  0.52663  1.0000
  N   N11       1.0  0.49757  0.16995  0.37560  1.0000
  H   H81       1.0  0.52027  0.17484  0.42019  1.0000
  C   C127      1.0  0.79016  0.28718  0.35252  1.0000
  C   C128      1.0  0.72161  0.21870  0.39927  1.0000
  C   C129      1.0  0.76103  0.25927  0.42049  1.0000
  O   O35       1.0  0.69255  0.19395  0.46536  1.0000
  O   O36       1.0  0.77158  0.27058  0.50761  1.0000
  H   H82       1.0  0.70744  0.18115  0.50101  1.0000
  H   H83       1.0  0.75444  0.28503  0.52659  1.0000
  N   N12       1.0  0.82693  0.32700  0.37562  1.0000
  H   H84       1.0  0.82205  0.34483  0.42019  1.0000
