data_image0
_chemical_formula_structural       C8H8C3HC2H2CH3CHC3HC2H2CH3CHC3NC3NC5NC5NC20H18N4C7H3CH3CHC7H3CH3CH
_chemical_formula_sum              "C76 H54 N8"
_cell_length_a       29.8294
_cell_length_b       29.8273
_cell_length_c       14.9416
_cell_angle_alpha    90
_cell_angle_beta     90
_cell_angle_gamma    90.0262

_space_group_name_H-M_alt    "P 1"
_space_group_IT_number       1

loop_
  _space_group_symop_operation_xyz
  'x, y, z'

loop_
  _atom_site_type_symbol
  _atom_site_label
  _atom_site_symmetry_multiplicity
  _atom_site_fract_x
  _atom_site_fract_y
  _atom_site_fract_z
  _atom_site_occupancy
  C   C1        1.0  0.19292  0.99925  0.27549  1.0000
  C   C2        1.0  0.24013  0.00013  0.27596  1.0000
  C   C3        1.0  0.99923  0.81265  0.27534  1.0000
  C   C4        1.0  0.99984  0.76542  0.27560  1.0000
  C   C5        1.0  0.76690  0.00805  0.27603  1.0000
  C   C6        1.0  0.81408  0.00783  0.27779  1.0000
  C   C7        1.0  0.00783  0.19128  0.27792  1.0000
  C   C8        1.0  0.00837  0.23845  0.27602  1.0000
  H   H1        1.0  0.01381  0.25422  0.21625  1.0000
  H   H2        1.0  0.01339  0.17395  0.21983  1.0000
  H   H3        1.0  0.83133  0.01391  0.21981  1.0000
  H   H4        1.0  0.75107  0.01380  0.21647  1.0000
  H   H5        1.0  0.99376  0.82922  0.21635  1.0000
  H   H6        1.0  0.99471  0.74870  0.21664  1.0000
  H   H7        1.0  0.25694  0.99546  0.21695  1.0000
  H   H8        1.0  0.17644  0.99403  0.21631  1.0000
  C   C9        1.0  0.01652  0.38354  0.32297  1.0000
  C   C10       1.0  0.04859  0.45904  0.31164  1.0000
  C   C11       1.0  0.05220  0.41247  0.29975  1.0000
  H   H9        1.0  0.08147  0.39985  0.27425  1.0000
  C   C12       1.0  0.99829  0.60270  0.30378  1.0000
  C   C13       1.0  0.99916  0.55599  0.28592  1.0000
  H   H10       1.0  0.99164  0.62446  0.25249  1.0000
  H   H11       1.0  0.07532  0.47887  0.29469  1.0000
  C   C14       1.0  0.99052  0.53957  0.19342  1.0000
  H   H12       1.0  0.96163  0.51711  0.19342  1.0000
  H   H13       1.0  0.01971  0.52137  0.16871  1.0000
  H   H14       1.0  0.98356  0.56676  0.14649  1.0000
  C   C15       1.0  0.02072  0.33766  0.30837  1.0000
  H   H15       1.0  0.04120  0.32730  0.26004  1.0000
  C   C16       1.0  0.62188  0.01595  0.32381  1.0000
  C   C17       1.0  0.54643  0.04809  0.31266  1.0000
  C   C18       1.0  0.59300  0.05167  0.30072  1.0000
  H   H16       1.0  0.60565  0.08094  0.27524  1.0000
  C   C19       1.0  0.40271  0.99795  0.30471  1.0000
  C   C20       1.0  0.44942  0.99875  0.28688  1.0000
  H   H17       1.0  0.38094  0.99131  0.25340  1.0000
  H   H18       1.0  0.52664  0.07484  0.29577  1.0000
  C   C21       1.0  0.46583  0.99009  0.19440  1.0000
  H   H19       1.0  0.48823  0.96117  0.19440  1.0000
  H   H20       1.0  0.48410  0.01926  0.16971  1.0000
  H   H21       1.0  0.43864  0.98318  0.14745  1.0000
  C   C22       1.0  0.66776  0.02015  0.30916  1.0000
  H   H22       1.0  0.67813  0.04093  0.26134  1.0000
  C   C23       1.0  0.08426  0.12001  0.36009  1.0000
  C   C24       1.0  0.11754  0.08790  0.35831  1.0000
  C   C25       1.0  0.09725  0.04566  0.35768  1.0000
  N   N1        1.0  0.05250  0.05382  0.35863  1.0000
  C   C26       1.0  0.04275  0.09824  0.35975  1.0000
  C   C27       1.0  0.00036  0.12021  0.36072  1.0000
  C   C28       1.0  0.95829  0.09786  0.36149  1.0000
  N   N2        1.0  0.95041  0.05321  0.36124  1.0000
  C   C29       1.0  0.90608  0.04371  0.36128  1.0000
  C   C30       1.0  0.88408  0.08505  0.36225  1.0000
  C   C31       1.0  0.91620  0.11837  0.36177  1.0000
  C   C32       1.0  0.88523  0.00085  0.36047  1.0000
  C   C33       1.0  0.90865  0.95926  0.35948  1.0000
  N   N3        1.0  0.95340  0.95110  0.35889  1.0000
  C   C34       1.0  0.96317  0.90668  0.35708  1.0000
  C   C35       1.0  0.92168  0.88489  0.35723  1.0000
  C   C36       1.0  0.88837  0.91701  0.35804  1.0000
  C   C37       1.0  0.00558  0.88478  0.35568  1.0000
  C   C38       1.0  0.04766  0.90712  0.35541  1.0000
  N   N4        1.0  0.05554  0.95176  0.35590  1.0000
  C   C39       1.0  0.09988  0.96123  0.35519  1.0000
  C   C40       1.0  0.12189  0.91991  0.35440  1.0000
  C   C41       1.0  0.08975  0.88660  0.35402  1.0000
  C   C42       1.0  0.12069  0.00409  0.35582  1.0000
  C   C43       1.0  0.16854  0.00532  0.35567  1.0000
  C   C44       1.0  0.26416  0.00690  0.35627  1.0000
  C   C45       1.0  0.23955  0.01360  0.43624  1.0000
  C   C46       1.0  0.19238  0.01260  0.43605  1.0000
  C   C47       1.0  0.00606  0.83691  0.35542  1.0000
  C   C48       1.0  0.00712  0.74128  0.35558  1.0000
  C   C49       1.0  0.01455  0.76578  0.43544  1.0000
  C   C50       1.0  0.01381  0.81296  0.43547  1.0000
  C   C51       1.0  0.83737  0.99972  0.35852  1.0000
  C   C52       1.0  0.81244  0.99114  0.43710  1.0000
  C   C53       1.0  0.76522  0.99100  0.43497  1.0000
  C   C54       1.0  0.74182  0.00020  0.35493  1.0000
  C   C55       1.0  0.99999  0.16808  0.35888  1.0000
  C   C56       1.0  0.99204  0.19312  0.43758  1.0000
  C   C57       1.0  0.00103  0.26364  0.35498  1.0000
  C   C58       1.0  0.99217  0.24034  0.43531  1.0000
  H   H23       1.0  0.98640  0.25766  0.49332  1.0000
  H   H24       1.0  0.98613  0.17714  0.49705  1.0000
  H   H25       1.0  0.09008  0.15377  0.36126  1.0000
  H   H26       1.0  0.15108  0.09491  0.35762  1.0000
  H   H27       1.0  0.03015  0.03066  0.35799  1.0000
  H   H28       1.0  0.97575  0.97426  0.35944  1.0000
  H   H29       1.0  0.90939  0.15194  0.36163  1.0000
  H   H30       1.0  0.85029  0.09066  0.36270  1.0000
  H   H31       1.0  0.82850  0.98511  0.49643  1.0000
  H   H32       1.0  0.74798  0.98488  0.49294  1.0000
  H   H33       1.0  0.85484  0.91001  0.35762  1.0000
  H   H34       1.0  0.91589  0.85112  0.35618  1.0000
  H   H35       1.0  0.15568  0.91431  0.35402  1.0000
  H   H36       1.0  0.09655  0.85303  0.35313  1.0000
  H   H37       1.0  0.01923  0.82973  0.49428  1.0000
  H   H38       1.0  0.02093  0.74961  0.49434  1.0000
  H   H39       1.0  0.17552  0.01736  0.49497  1.0000
  H   H40       1.0  0.25564  0.01953  0.49542  1.0000
  N   N5        1.0  0.00760  0.69659  0.35043  1.0000
  N   N6        1.0  0.69712  0.99993  0.35774  1.0000
  N   N7        1.0  0.00082  0.30833  0.35757  1.0000
  N   N8        1.0  0.30885  0.00742  0.35131  1.0000
  C   C59       1.0  0.97685  0.40290  0.35774  1.0000
  C   C60       1.0  0.97243  0.44985  0.36982  1.0000
  C   C61       1.0  0.00891  0.47828  0.34605  1.0000
  C   C62       1.0  0.00760  0.52570  0.35764  1.0000
  C   C63       1.0  0.01540  0.54290  0.44430  1.0000
  C   C64       1.0  0.01425  0.58925  0.46059  1.0000
  C   C65       1.0  0.00566  0.62008  0.39079  1.0000
  H   H41       1.0  0.02176  0.52172  0.49675  1.0000
  H   H42       1.0  0.01982  0.60024  0.52459  1.0000
  H   H43       1.0  0.95045  0.38244  0.37363  1.0000
  C   C66       1.0  0.92969  0.46843  0.40544  1.0000
  H   H44       1.0  0.90460  0.44253  0.41803  1.0000
  H   H45       1.0  0.91551  0.49211  0.35748  1.0000
  H   H46       1.0  0.93590  0.48583  0.46846  1.0000
  C   C67       1.0  0.00376  0.66576  0.41030  1.0000
  H   H47       1.0  0.99916  0.67484  0.47367  1.0000
  C   C68       1.0  0.60246  0.97629  0.35859  1.0000
  C   C69       1.0  0.55551  0.97190  0.37073  1.0000
  C   C70       1.0  0.52713  0.00842  0.34706  1.0000
  C   C71       1.0  0.47971  0.00713  0.35864  1.0000
  C   C72       1.0  0.46251  0.01494  0.44528  1.0000
  C   C73       1.0  0.41617  0.01385  0.46155  1.0000
  C   C74       1.0  0.38533  0.00532  0.39172  1.0000
  H   H48       1.0  0.48370  0.02127  0.49776  1.0000
  H   H49       1.0  0.40517  0.01941  0.52554  1.0000
  H   H50       1.0  0.62288  0.94986  0.37440  1.0000
  C   C75       1.0  0.53686  0.92917  0.40633  1.0000
  H   H51       1.0  0.56273  0.90405  0.41888  1.0000
  H   H52       1.0  0.51315  0.91502  0.35839  1.0000
  H   H53       1.0  0.51950  0.93538  0.46937  1.0000
  C   C76       1.0  0.33965  0.00342  0.41118  1.0000
  H   H54       1.0  0.33056  0.99863  0.47449  1.0000
