data_image0
_chemical_formula_structural       C10H5C6H3N2C10H5C6H3N2C8HC7HCH4C4H4C8H7NC8H7NC10H5C6H3N2C10H5C6H3N2C8HC7HCH4C4H4C8H7NC8H7N
_chemical_formula_sum              "C136 H80 N12"
_cell_length_a       30.3563
_cell_length_b       36.9774
_cell_length_c       15.0319
_cell_angle_alpha    90.0002
_cell_angle_beta     90
_cell_angle_gamma    90.9573

_space_group_name_H-M_alt    "P 1"
_space_group_IT_number       1

loop_
  _space_group_symop_operation_xyz
  'x, y, z'

loop_
  _atom_site_type_symbol
  _atom_site_label
  _atom_site_symmetry_multiplicity
  _atom_site_fract_x
  _atom_site_fract_y
  _atom_site_fract_z
  _atom_site_occupancy
  C   C1        1.0  0.36534  0.24292  0.30559  1.0000
  C   C2        1.0  0.22313  0.17530  0.31466  1.0000
  C   C3        1.0  0.38830  0.21950  0.24792  1.0000
  C   C4        1.0  0.43456  0.21836  0.24873  1.0000
  C   C5        1.0  0.45903  0.24118  0.30596  1.0000
  C   C6        1.0  0.15636  0.34487  0.30739  1.0000
  C   C7        1.0  0.17988  0.31265  0.29823  1.0000
  C   C8        1.0  0.17839  0.17294  0.28680  1.0000
  C   C9        1.0  0.15396  0.14035  0.29034  1.0000
  C   C10       1.0  0.17321  0.10853  0.32210  1.0000
  H   H1        1.0  0.45026  0.20110  0.20648  1.0000
  H   H2        1.0  0.16297  0.29109  0.27188  1.0000
  H   H3        1.0  0.12384  0.34466  0.29007  1.0000
  H   H4        1.0  0.16290  0.19472  0.26016  1.0000
  H   H5        1.0  0.12170  0.14015  0.27037  1.0000
  C   C11       1.0  0.24731  0.20886  0.31293  1.0000
  C   C12       1.0  0.22602  0.24279  0.31578  1.0000
  C   C13       1.0  0.24843  0.27688  0.31487  1.0000
  C   C14       1.0  0.29506  0.27571  0.31029  1.0000
  C   C15       1.0  0.31832  0.24297  0.30791  1.0000
  C   C16       1.0  0.29394  0.21016  0.30974  1.0000
  H   H6        1.0  0.31299  0.29917  0.30397  1.0000
  H   H7        1.0  0.31104  0.18668  0.30609  1.0000
  H   H8        1.0  0.37153  0.20306  0.20435  1.0000
  N   N1        1.0  0.14641  0.07918  0.32997  1.0000
  N   N2        1.0  0.50229  0.23897  0.30547  1.0000
  C   C17       1.0  0.66429  0.26136  0.30568  1.0000
  C   C18       1.0  0.80650  0.32898  0.31471  1.0000
  C   C19       1.0  0.64134  0.28478  0.24799  1.0000
  C   C20       1.0  0.59507  0.28591  0.24877  1.0000
  C   C21       1.0  0.57060  0.26309  0.30598  1.0000
  C   C22       1.0  0.87330  0.15943  0.30763  1.0000
  C   C23       1.0  0.84977  0.19164  0.29842  1.0000
  C   C24       1.0  0.85124  0.33133  0.28682  1.0000
  C   C25       1.0  0.87566  0.36392  0.29024  1.0000
  C   C26       1.0  0.85640  0.39576  0.32181  1.0000
  H   H9        1.0  0.57937  0.30318  0.20652  1.0000
  H   H10       1.0  0.86669  0.21321  0.27213  1.0000
  H   H11       1.0  0.90583  0.15965  0.29035  1.0000
  H   H12       1.0  0.86672  0.30953  0.26021  1.0000
  H   H13       1.0  0.90791  0.36411  0.27022  1.0000
  C   C27       1.0  0.78231  0.29542  0.31303  1.0000
  C   C28       1.0  0.80360  0.26149  0.31594  1.0000
  C   C29       1.0  0.78119  0.22739  0.31493  1.0000
  C   C30       1.0  0.73457  0.22857  0.31034  1.0000
  C   C31       1.0  0.71130  0.26130  0.30799  1.0000
  C   C32       1.0  0.73568  0.29412  0.30982  1.0000
  H   H14       1.0  0.71663  0.20511  0.30403  1.0000
  H   H15       1.0  0.71859  0.31759  0.30616  1.0000
  H   H16       1.0  0.65810  0.30122  0.20443  1.0000
  N   N3        1.0  0.88321  0.42511  0.32960  1.0000
  N   N4        1.0  0.52733  0.26530  0.30547  1.0000
  C   C33       1.0  0.03801  0.99820  0.36186  1.0000
  C   C34       1.0  0.05228  0.46157  0.36202  1.0000
  C   C35       1.0  0.09802  0.45326  0.35855  1.0000
  C   C36       1.0  0.12877  0.48229  0.36217  1.0000
  C   C37       1.0  0.11640  0.01898  0.36208  1.0000
  C   C38       1.0  0.07037  0.02675  0.36409  1.0000
  C   C39       1.0  0.01968  0.43424  0.37299  1.0000
  C   C40       1.0  0.05470  0.06220  0.37598  1.0000
  H   H17       1.0  0.16164  0.47653  0.35844  1.0000
  C   C41       1.0  0.99164  0.00609  0.36185  1.0000
  C   C42       1.0  0.95927  0.47753  0.36384  1.0000
  C   C43       1.0  0.91324  0.48531  0.36189  1.0000
  C   C44       1.0  0.90088  0.02200  0.36212  1.0000
  C   C45       1.0  0.93163  0.05103  0.35871  1.0000
  C   C46       1.0  0.97737  0.04272  0.36224  1.0000
  C   C47       1.0  0.97494  0.44207  0.37538  1.0000
  H   H18       1.0  0.86801  0.02777  0.35835  1.0000
  C   C48       1.0  0.00996  0.07004  0.37340  1.0000
  H   H19       1.0  0.95454  0.42097  0.39105  1.0000
  H   H20       1.0  0.02766  0.40799  0.38472  1.0000
  H   H21       1.0  0.00198  0.09628  0.38530  1.0000
  H   H22       1.0  0.07511  0.08329  0.39161  1.0000
  C   C49       1.0  0.15165  0.04465  0.35613  1.0000
  C   C50       1.0  0.91581  0.08661  0.34630  1.0000
  C   C51       1.0  0.87799  0.45966  0.35565  1.0000
  C   C52       1.0  0.11385  0.41769  0.34607  1.0000
  H   H23       1.0  0.18335  0.03634  0.36495  1.0000
  H   H24       1.0  0.93754  0.10688  0.33106  1.0000
  H   H25       1.0  0.84630  0.46796  0.36467  1.0000
  H   H26       1.0  0.09214  0.39744  0.33068  1.0000
  C   C53       1.0  0.22532  0.31031  0.32030  1.0000
  C   C54       1.0  0.43657  0.26463  0.36383  1.0000
  C   C55       1.0  0.39029  0.26541  0.36367  1.0000
  C   C56       1.0  0.24598  0.34314  0.34909  1.0000
  C   C57       1.0  0.22270  0.37558  0.35756  1.0000
  C   C58       1.0  0.17739  0.37679  0.33833  1.0000
  C   C59       1.0  0.21776  0.10976  0.34835  1.0000
  C   C60       1.0  0.24209  0.14245  0.34428  1.0000
  H   H27       1.0  0.45375  0.28077  0.40742  1.0000
  H   H28       1.0  0.37497  0.28200  0.40807  1.0000
  H   H29       1.0  0.27800  0.34378  0.36975  1.0000
  H   H30       1.0  0.23886  0.39814  0.38114  1.0000
  H   H31       1.0  0.23237  0.08734  0.37391  1.0000
  H   H32       1.0  0.27326  0.14205  0.36964  1.0000
  H   H33       1.0  0.19313  0.24251  0.32885  1.0000
  N   N5        1.0  0.15682  0.40863  0.35175  1.0000
  C   C61       1.0  0.80431  0.19396  0.32037  1.0000
  C   C62       1.0  0.59305  0.23965  0.36389  1.0000
  C   C63       1.0  0.63933  0.23886  0.36373  1.0000
  C   C64       1.0  0.78365  0.16113  0.34906  1.0000
  C   C65       1.0  0.80693  0.12869  0.35752  1.0000
  C   C66       1.0  0.85226  0.12750  0.33843  1.0000
  C   C67       1.0  0.81187  0.39454  0.34817  1.0000
  C   C68       1.0  0.78756  0.36183  0.34434  1.0000
  H   H34       1.0  0.57586  0.22349  0.40742  1.0000
  H   H35       1.0  0.65464  0.22226  0.40811  1.0000
  H   H36       1.0  0.75162  0.16046  0.36965  1.0000
  H   H37       1.0  0.79077  0.10611  0.38106  1.0000
  H   H38       1.0  0.79724  0.41699  0.37358  1.0000
  H   H39       1.0  0.75635  0.36226  0.36952  1.0000
  H   H40       1.0  0.83649  0.26178  0.32896  1.0000
  N   N6        1.0  0.87283  0.09566  0.35186  1.0000
  C   C69       1.0  0.36534  0.74292  0.30559  1.0000
  C   C70       1.0  0.22313  0.67530  0.31466  1.0000
  C   C71       1.0  0.38830  0.71950  0.24792  1.0000
  C   C72       1.0  0.43456  0.71836  0.24873  1.0000
  C   C73       1.0  0.45903  0.74118  0.30596  1.0000
  C   C74       1.0  0.15636  0.84487  0.30739  1.0000
  C   C75       1.0  0.17988  0.81265  0.29823  1.0000
  C   C76       1.0  0.17839  0.67294  0.28680  1.0000
  C   C77       1.0  0.15396  0.64035  0.29034  1.0000
  C   C78       1.0  0.17321  0.60853  0.32210  1.0000
  H   H41       1.0  0.45026  0.70110  0.20648  1.0000
  H   H42       1.0  0.16297  0.79109  0.27188  1.0000
  H   H43       1.0  0.12384  0.84466  0.29007  1.0000
  H   H44       1.0  0.16290  0.69472  0.26016  1.0000
  H   H45       1.0  0.12170  0.64015  0.27037  1.0000
  C   C79       1.0  0.24731  0.70886  0.31293  1.0000
  C   C80       1.0  0.22602  0.74279  0.31578  1.0000
  C   C81       1.0  0.24843  0.77688  0.31487  1.0000
  C   C82       1.0  0.29506  0.77571  0.31029  1.0000
  C   C83       1.0  0.31832  0.74298  0.30791  1.0000
  C   C84       1.0  0.29394  0.71016  0.30974  1.0000
  H   H46       1.0  0.31299  0.79917  0.30397  1.0000
  H   H47       1.0  0.31104  0.68668  0.30609  1.0000
  H   H48       1.0  0.37153  0.70306  0.20435  1.0000
  N   N7        1.0  0.14641  0.57919  0.32997  1.0000
  N   N8        1.0  0.50229  0.73897  0.30547  1.0000
  C   C85       1.0  0.66429  0.76136  0.30568  1.0000
  C   C86       1.0  0.80650  0.82898  0.31471  1.0000
  C   C87       1.0  0.64134  0.78478  0.24799  1.0000
  C   C88       1.0  0.59507  0.78591  0.24877  1.0000
  C   C89       1.0  0.57060  0.76309  0.30598  1.0000
  C   C90       1.0  0.87330  0.65943  0.30763  1.0000
  C   C91       1.0  0.84977  0.69165  0.29842  1.0000
  C   C92       1.0  0.85124  0.83133  0.28682  1.0000
  C   C93       1.0  0.87566  0.86392  0.29024  1.0000
  C   C94       1.0  0.85640  0.89576  0.32181  1.0000
  H   H49       1.0  0.57937  0.80318  0.20652  1.0000
  H   H50       1.0  0.86668  0.71321  0.27213  1.0000
  H   H51       1.0  0.90583  0.65965  0.29035  1.0000
  H   H52       1.0  0.86672  0.80953  0.26021  1.0000
  H   H53       1.0  0.90791  0.86411  0.27022  1.0000
  C   C95       1.0  0.78231  0.79542  0.31303  1.0000
  C   C96       1.0  0.80360  0.76149  0.31594  1.0000
  C   C97       1.0  0.78119  0.72739  0.31493  1.0000
  C   C98       1.0  0.73457  0.72857  0.31034  1.0000
  C   C99       1.0  0.71130  0.76130  0.30799  1.0000
  C   C100      1.0  0.73568  0.79412  0.30982  1.0000
  H   H54       1.0  0.71663  0.70511  0.30403  1.0000
  H   H55       1.0  0.71859  0.81759  0.30616  1.0000
  H   H56       1.0  0.65810  0.80122  0.20443  1.0000
  N   N9        1.0  0.88321  0.92511  0.32960  1.0000
  N   N10       1.0  0.52733  0.76530  0.30547  1.0000
  C   C101      1.0  0.03801  0.49820  0.36186  1.0000
  C   C102      1.0  0.05228  0.96157  0.36202  1.0000
  C   C103      1.0  0.09802  0.95326  0.35855  1.0000
  C   C104      1.0  0.12877  0.98229  0.36217  1.0000
  C   C105      1.0  0.11640  0.51898  0.36208  1.0000
  C   C106      1.0  0.07038  0.52675  0.36409  1.0000
  C   C107      1.0  0.01968  0.93424  0.37299  1.0000
  C   C108      1.0  0.05470  0.56220  0.37598  1.0000
  H   H57       1.0  0.16164  0.97653  0.35844  1.0000
  C   C109      1.0  0.99164  0.50609  0.36185  1.0000
  C   C110      1.0  0.95927  0.97754  0.36384  1.0000
  C   C111      1.0  0.91324  0.98531  0.36189  1.0000
  C   C112      1.0  0.90088  0.52200  0.36212  1.0000
  C   C113      1.0  0.93163  0.55103  0.35871  1.0000
  C   C114      1.0  0.97737  0.54272  0.36224  1.0000
  C   C115      1.0  0.97494  0.94207  0.37538  1.0000
  H   H58       1.0  0.86801  0.52777  0.35835  1.0000
  C   C116      1.0  0.00996  0.57004  0.37340  1.0000
  H   H59       1.0  0.95454  0.92097  0.39105  1.0000
  H   H60       1.0  0.02766  0.90799  0.38472  1.0000
  H   H61       1.0  0.00198  0.59628  0.38530  1.0000
  H   H62       1.0  0.07511  0.58329  0.39161  1.0000
  C   C117      1.0  0.15165  0.54465  0.35613  1.0000
  C   C118      1.0  0.91581  0.58661  0.34630  1.0000
  C   C119      1.0  0.87799  0.95966  0.35565  1.0000
  C   C120      1.0  0.11385  0.91769  0.34607  1.0000
  H   H63       1.0  0.18335  0.53634  0.36495  1.0000
  H   H64       1.0  0.93754  0.60688  0.33106  1.0000
  H   H65       1.0  0.84630  0.96796  0.36467  1.0000
  H   H66       1.0  0.09214  0.89744  0.33068  1.0000
  C   C121      1.0  0.22532  0.81031  0.32030  1.0000
  C   C122      1.0  0.43657  0.76463  0.36383  1.0000
  C   C123      1.0  0.39029  0.76541  0.36367  1.0000
  C   C124      1.0  0.24598  0.84314  0.34909  1.0000
  C   C125      1.0  0.22270  0.87558  0.35756  1.0000
  C   C126      1.0  0.17739  0.87679  0.33833  1.0000
  C   C127      1.0  0.21776  0.60976  0.34835  1.0000
  C   C128      1.0  0.24209  0.64245  0.34428  1.0000
  H   H67       1.0  0.45375  0.78077  0.40742  1.0000
  H   H68       1.0  0.37497  0.78200  0.40807  1.0000
  H   H69       1.0  0.27800  0.84378  0.36975  1.0000
  H   H70       1.0  0.23886  0.89814  0.38114  1.0000
  H   H71       1.0  0.23237  0.58733  0.37391  1.0000
  H   H72       1.0  0.27326  0.64205  0.36964  1.0000
  H   H73       1.0  0.19313  0.74251  0.32885  1.0000
  N   N11       1.0  0.15682  0.90863  0.35175  1.0000
  C   C129      1.0  0.80431  0.69396  0.32037  1.0000
  C   C130      1.0  0.59305  0.73965  0.36389  1.0000
  C   C131      1.0  0.63933  0.73886  0.36373  1.0000
  C   C132      1.0  0.78365  0.66113  0.34906  1.0000
  C   C133      1.0  0.80693  0.62869  0.35752  1.0000
  C   C134      1.0  0.85226  0.62750  0.33843  1.0000
  C   C135      1.0  0.81187  0.89454  0.34817  1.0000
  C   C136      1.0  0.78756  0.86183  0.34434  1.0000
  H   H74       1.0  0.57586  0.72349  0.40742  1.0000
  H   H75       1.0  0.65464  0.72226  0.40811  1.0000
  H   H76       1.0  0.75162  0.66046  0.36965  1.0000
  H   H77       1.0  0.79077  0.60611  0.38106  1.0000
  H   H78       1.0  0.79724  0.91699  0.37358  1.0000
  H   H79       1.0  0.75635  0.86226  0.36952  1.0000
  H   H80       1.0  0.83649  0.76178  0.32896  1.0000
  N   N12       1.0  0.87283  0.59566  0.35186  1.0000
