data_image0
_chemical_formula_structural       C16H16CNC2ONH2CHCNC2ONH2CHC3NC3NC5NC5NC36H26N5C2HCHNC2HCH
_chemical_formula_sum              "C82 H52 N14 O2"
_cell_length_a       34.1839
_cell_length_b       34.1819
_cell_length_c       14.6709
_cell_angle_alpha    90
_cell_angle_beta     90
_cell_angle_gamma    89.934

_space_group_name_H-M_alt    "P 1"
_space_group_IT_number       1

loop_
  _space_group_symop_operation_xyz
  'x, y, z'

loop_
  _atom_site_type_symbol
  _atom_site_label
  _atom_site_symmetry_multiplicity
  _atom_site_fract_x
  _atom_site_fract_y
  _atom_site_fract_z
  _atom_site_occupancy
  C   C1        1.0  0.18052  0.01290  0.29218  1.0000
  C   C2        1.0  0.22173  0.01327  0.29107  1.0000
  C   C3        1.0  0.34805  0.03679  0.30939  1.0000
  C   C4        1.0  0.30683  0.03635  0.31121  1.0000
  C   C5        1.0  0.01634  0.17682  0.29649  1.0000
  C   C6        1.0  0.01652  0.21804  0.29754  1.0000
  C   C7        1.0  0.99423  0.30331  0.31723  1.0000
  C   C8        1.0  0.99364  0.34453  0.31866  1.0000
  C   C9        1.0  0.80788  0.01273  0.29785  1.0000
  C   C10       1.0  0.84910  0.01207  0.29671  1.0000
  C   C11       1.0  0.72247  0.99124  0.31773  1.0000
  C   C12       1.0  0.68126  0.99090  0.31939  1.0000
  C   C13       1.0  0.01717  0.84550  0.29207  1.0000
  C   C14       1.0  0.01745  0.80428  0.29075  1.0000
  C   C15       1.0  0.03992  0.67769  0.30825  1.0000
  C   C16       1.0  0.03984  0.71891  0.31034  1.0000
  H   H1        1.0  0.05813  0.66362  0.26355  1.0000
  H   H2        1.0  0.05857  0.73340  0.26774  1.0000
  H   H3        1.0  0.01882  0.79060  0.22882  1.0000
  H   H4        1.0  0.01894  0.86044  0.23173  1.0000
  H   H5        1.0  0.86337  0.01205  0.23536  1.0000
  H   H6        1.0  0.79355  0.01377  0.23669  1.0000
  H   H7        1.0  0.01656  0.16252  0.23519  1.0000
  H   H8        1.0  0.01743  0.23235  0.23635  1.0000
  H   H9        1.0  0.97664  0.35915  0.27244  1.0000
  H   H10       1.0  0.97730  0.28936  0.26985  1.0000
  H   H11       1.0  0.29219  0.05496  0.26851  1.0000
  H   H12       1.0  0.36197  0.05512  0.26476  1.0000
  H   H13       1.0  0.23547  0.01476  0.22923  1.0000
  H   H14       1.0  0.16563  0.01477  0.23180  1.0000
  H   H15       1.0  0.73630  0.97422  0.27026  1.0000
  H   H16       1.0  0.66652  0.97401  0.27321  1.0000
  C   C17       1.0  0.01416  0.47057  0.34657  1.0000
  N   N1        1.0  0.01502  0.53848  0.30757  1.0000
  C   C18       1.0  0.01617  0.50054  0.27913  1.0000
  C   C19       1.0  0.01869  0.49462  0.18377  1.0000
  O   O1        1.0  0.04134  0.51923  0.13444  1.0000
  N   N2        1.0  0.99465  0.47029  0.13756  1.0000
  H   H17       1.0  0.97391  0.45598  0.16848  1.0000
  H   H18       1.0  0.99506  0.46990  0.07139  1.0000
  C   C20       1.0  0.01703  0.43060  0.32855  1.0000
  H   H19       1.0  0.02259  0.42178  0.26536  1.0000
  C   C21       1.0  0.55537  0.01230  0.34790  1.0000
  N   N3        1.0  0.48744  0.01365  0.30914  1.0000
  C   C22       1.0  0.52537  0.01510  0.28068  1.0000
  C   C23       1.0  0.53123  0.01872  0.18551  1.0000
  O   O2        1.0  0.50659  0.04200  0.13772  1.0000
  N   N4        1.0  0.55550  0.99515  0.13771  1.0000
  H   H20       1.0  0.56982  0.97402  0.16723  1.0000
  H   H21       1.0  0.55585  0.99633  0.07157  1.0000
  C   C24       1.0  0.59533  0.01522  0.32996  1.0000
  H   H22       1.0  0.60414  0.02130  0.26702  1.0000
  C   C25       1.0  0.08744  0.90897  0.37623  1.0000
  C   C26       1.0  0.11616  0.93736  0.37604  1.0000
  C   C27       1.0  0.09803  0.97403  0.37677  1.0000
  N   N5        1.0  0.05905  0.96640  0.37731  1.0000
  C   C28       1.0  0.05097  0.92752  0.37673  1.0000
  C   C29       1.0  0.01421  0.90790  0.37668  1.0000
  C   C30       1.0  0.97724  0.92702  0.37716  1.0000
  N   N6        1.0  0.96984  0.96592  0.37771  1.0000
  C   C31       1.0  0.93104  0.97379  0.37771  1.0000
  C   C32       1.0  0.91230  0.93750  0.37715  1.0000
  C   C33       1.0  0.94072  0.90874  0.37668  1.0000
  C   C34       1.0  0.91237  0.01099  0.37810  1.0000
  C   C35       1.0  0.93241  0.04752  0.37815  1.0000
  N   N7        1.0  0.97138  0.05512  0.37769  1.0000
  C   C36       1.0  0.97946  0.09400  0.37804  1.0000
  C   C37       1.0  0.94302  0.11258  0.37860  1.0000
  C   C38       1.0  0.91429  0.08419  0.37868  1.0000
  C   C39       1.0  0.01623  0.11359  0.37799  1.0000
  C   C40       1.0  0.05318  0.09447  0.37765  1.0000
  N   N8        1.0  0.06058  0.05558  0.37715  1.0000
  C   C41       1.0  0.09938  0.04774  0.37700  1.0000
  C   C42       1.0  0.11810  0.08404  0.37755  1.0000
  C   C43       1.0  0.08969  0.11279  0.37790  1.0000
  C   C44       1.0  0.11808  0.01056  0.37660  1.0000
  C   C45       1.0  0.15991  0.01005  0.37531  1.0000
  C   C46       1.0  0.24386  0.01085  0.37270  1.0000
  C   C47       1.0  0.22274  0.00783  0.45565  1.0000
  C   C48       1.0  0.18152  0.00749  0.45712  1.0000
  C   C49       1.0  0.28593  0.01153  0.37142  1.0000
  C   C50       1.0  0.30832  0.98720  0.42986  1.0000
  C   C51       1.0  0.34955  0.98774  0.42845  1.0000
  C   C52       1.0  0.37006  0.01285  0.36861  1.0000
  C   C53       1.0  0.01616  0.15541  0.37876  1.0000
  C   C54       1.0  0.01647  0.23938  0.38051  1.0000
  C   C55       1.0  0.01625  0.21741  0.46258  1.0000
  C   C56       1.0  0.01616  0.17619  0.46191  1.0000
  C   C57       1.0  0.01633  0.28149  0.38144  1.0000
  C   C58       1.0  0.01521  0.36554  0.38458  1.0000
  C   C59       1.0  0.03683  0.34423  0.44966  1.0000
  C   C60       1.0  0.03772  0.30301  0.44743  1.0000
  C   C61       1.0  0.87055  0.01163  0.37893  1.0000
  C   C62       1.0  0.84979  0.01192  0.46211  1.0000
  C   C63       1.0  0.80858  0.01252  0.46288  1.0000
  C   C64       1.0  0.78657  0.01293  0.38087  1.0000
  C   C65       1.0  0.74445  0.01314  0.38192  1.0000
  C   C66       1.0  0.66041  0.01255  0.38553  1.0000
  C   C67       1.0  0.68187  0.03401  0.45052  1.0000
  C   C68       1.0  0.72309  0.03465  0.44806  1.0000
  C   C69       1.0  0.01433  0.86606  0.37529  1.0000
  C   C70       1.0  0.01171  0.84438  0.45698  1.0000
  C   C71       1.0  0.01488  0.78209  0.37225  1.0000
  C   C72       1.0  0.01196  0.80315  0.45530  1.0000
  C   C73       1.0  0.01521  0.74001  0.37071  1.0000
  C   C74       1.0  0.99067  0.71781  0.42898  1.0000
  C   C75       1.0  0.99087  0.67658  0.42734  1.0000
  C   C76       1.0  0.01580  0.65587  0.36736  1.0000
  H   H23       1.0  0.97208  0.66180  0.46917  1.0000
  H   H24       1.0  0.97152  0.73151  0.47204  1.0000
  H   H25       1.0  0.01077  0.78862  0.51619  1.0000
  H   H26       1.0  0.00979  0.85849  0.51836  1.0000
  H   H27       1.0  0.09284  0.87956  0.37577  1.0000
  H   H28       1.0  0.14551  0.93164  0.37536  1.0000
  H   H29       1.0  0.03931  0.98638  0.37779  1.0000
  H   H30       1.0  0.99112  0.03514  0.37719  1.0000
  H   H31       1.0  0.93516  0.87936  0.37595  1.0000
  H   H32       1.0  0.88286  0.93233  0.37683  1.0000
  H   H33       1.0  0.86458  0.01146  0.52279  1.0000
  H   H34       1.0  0.79478  0.01176  0.52470  1.0000
  H   H35       1.0  0.88494  0.08994  0.37910  1.0000
  H   H36       1.0  0.93765  0.14199  0.37899  1.0000
  H   H37       1.0  0.14754  0.08925  0.37788  1.0000
  H   H38       1.0  0.09523  0.14216  0.37843  1.0000
  H   H39       1.0  0.01591  0.16143  0.52262  1.0000
  H   H40       1.0  0.01537  0.23123  0.52438  1.0000
  H   H41       1.0  0.05461  0.28884  0.49462  1.0000
  H   H42       1.0  0.05243  0.35865  0.49879  1.0000
  H   H43       1.0  0.16735  0.00572  0.51845  1.0000
  H   H44       1.0  0.23722  0.00681  0.51663  1.0000
  H   H45       1.0  0.36447  0.96909  0.47043  1.0000
  H   H46       1.0  0.29478  0.96794  0.47287  1.0000
  H   H47       1.0  0.73737  0.05140  0.49525  1.0000
  H   H48       1.0  0.66756  0.04965  0.49983  1.0000
  N   N9        1.0  0.40902  0.01393  0.36170  1.0000
  N   N10       1.0  0.01657  0.61690  0.36029  1.0000
  N   N11       1.0  0.62153  0.01121  0.39243  1.0000
  N   N12       1.0  0.01373  0.40443  0.39128  1.0000
  N   N13       1.0  0.01079  0.48246  0.43492  1.0000
  C   C77       1.0  0.00913  0.52039  0.46192  1.0000
  C   C78       1.0  0.01163  0.55025  0.39578  1.0000
  H   H49       1.0  0.00641  0.52663  0.52978  1.0000
  C   C79       1.0  0.00945  0.58963  0.41854  1.0000
  H   H50       1.0  0.00250  0.59689  0.48217  1.0000
  N   N14       1.0  0.54352  0.00796  0.43605  1.0000
  C   C80       1.0  0.50561  0.00604  0.46303  1.0000
  C   C81       1.0  0.47571  0.00927  0.39713  1.0000
  H   H51       1.0  0.49940  0.00256  0.53072  1.0000
  C   C82       1.0  0.43635  0.00679  0.41983  1.0000
  H   H52       1.0  0.42914  0.99954  0.48330  1.0000
