data_image0
_chemical_formula_structural       C17H12C17H12NCHNCHNCHC13H9C13H9C2NC2OHC2NC2OHC2NC2OH
_chemical_formula_sum              "C75 H48 N6 O3"
_cell_length_a       37.2626
_cell_length_b       37.2371
_cell_length_c       14.853
_cell_angle_alpha    90
_cell_angle_beta     90
_cell_angle_gamma    120.036

_space_group_name_H-M_alt    "P 1"
_space_group_IT_number       1

loop_
  _space_group_symop_operation_xyz
  'x, y, z'

loop_
  _atom_site_type_symbol
  _atom_site_label
  _atom_site_symmetry_multiplicity
  _atom_site_fract_x
  _atom_site_fract_y
  _atom_site_fract_z
  _atom_site_occupancy
  C   C1        1.0  0.47312  0.89340  0.28615  1.0000
  C   C2        1.0  0.45133  0.84975  0.29114  1.0000
  C   C3        1.0  0.38841  0.75781  0.29229  1.0000
  C   C4        1.0  0.36511  0.71514  0.30355  1.0000
  C   C5        1.0  0.32142  0.69516  0.30775  1.0000
  C   C6        1.0  0.29674  0.65140  0.31105  1.0000
  C   C7        1.0  0.31707  0.62783  0.30980  1.0000
  C   C8        1.0  0.36085  0.64690  0.30657  1.0000
  C   C9        1.0  0.38442  0.69076  0.30199  1.0000
  C   C10       1.0  0.37918  0.62215  0.30100  1.0000
  C   C11       1.0  0.43166  0.60465  0.33710  1.0000
  C   C12       1.0  0.41097  0.56367  0.37074  1.0000
  C   C13       1.0  0.43018  0.53932  0.36883  1.0000
  C   C14       1.0  0.25360  0.63299  0.30745  1.0000
  C   C15       1.0  0.18380  0.58063  0.34430  1.0000
  C   C16       1.0  0.15951  0.54055  0.30750  1.0000
  C   C17       1.0  0.11602  0.52179  0.30342  1.0000
  H   H1        1.0  0.49823  0.90747  0.24427  1.0000
  H   H2        1.0  0.46144  0.83385  0.25246  1.0000
  H   H3        1.0  0.41600  0.70517  0.29538  1.0000
  H   H4        1.0  0.30734  0.71281  0.30602  1.0000
  H   H5        1.0  0.29965  0.59609  0.30902  1.0000
  H   H6        1.0  0.41415  0.50986  0.39428  1.0000
  H   H7        1.0  0.38203  0.55145  0.39849  1.0000
  H   H8        1.0  0.09966  0.49230  0.27840  1.0000
  H   H9        1.0  0.17326  0.52450  0.28388  1.0000
  H   H10       1.0  0.36467  0.59646  0.26391  1.0000
  H   H11       1.0  0.39957  0.76799  0.23101  1.0000
  H   H12       1.0  0.24216  0.64707  0.26981  1.0000
  C   C18       1.0  0.53932  0.11621  0.30279  1.0000
  C   C19       1.0  0.56212  0.15988  0.30560  1.0000
  C   C20       1.0  0.62607  0.25148  0.29302  1.0000
  C   C21       1.0  0.65011  0.29426  0.30196  1.0000
  C   C22       1.0  0.69387  0.31395  0.30320  1.0000
  C   C23       1.0  0.71875  0.35767  0.30539  1.0000
  C   C24       1.0  0.69898  0.38172  0.30500  1.0000
  C   C25       1.0  0.65526  0.36288  0.30416  1.0000
  C   C26       1.0  0.63121  0.31905  0.30158  1.0000
  C   C27       1.0  0.63696  0.38751  0.29831  1.0000
  C   C28       1.0  0.58797  0.40826  0.34821  1.0000
  C   C29       1.0  0.61081  0.45189  0.33762  1.0000
  C   C30       1.0  0.59070  0.47542  0.33606  1.0000
  C   C31       1.0  0.76170  0.37605  0.30010  1.0000
  C   C32       1.0  0.83132  0.42516  0.34983  1.0000
  C   C33       1.0  0.85563  0.46883  0.35616  1.0000
  C   C34       1.0  0.89921  0.48889  0.35459  1.0000
  H   H13       1.0  0.51073  0.10182  0.27286  1.0000
  H   H14       1.0  0.54921  0.17588  0.27760  1.0000
  H   H15       1.0  0.59954  0.30501  0.29757  1.0000
  H   H16       1.0  0.70779  0.29617  0.30060  1.0000
  H   H17       1.0  0.71671  0.41345  0.30349  1.0000
  H   H18       1.0  0.60835  0.50697  0.32985  1.0000
  H   H19       1.0  0.64244  0.46708  0.33256  1.0000
  H   H20       1.0  0.91568  0.52057  0.35835  1.0000
  H   H21       1.0  0.84179  0.48655  0.36207  1.0000
  H   H22       1.0  0.64721  0.40894  0.25009  1.0000
  H   H23       1.0  0.60985  0.24087  0.23647  1.0000
  H   H24       1.0  0.77300  0.36582  0.25213  1.0000
  N   N1        1.0  0.53692  0.50873  0.28057  1.0000
  C   C35       1.0  0.52008  0.53349  0.27165  1.0000
  H   H25       1.0  0.52873  0.55331  0.21813  1.0000
  N   N2        1.0  0.52441  0.02776  0.26839  1.0000
  C   C36       1.0  0.50286  0.98577  0.26177  1.0000
  H   H26       1.0  0.49932  0.97238  0.19996  1.0000
  N   N3        1.0  0.98281  0.47564  0.28337  1.0000
  C   C37       1.0  0.02443  0.49232  0.27533  1.0000
  H   H27       1.0  0.03567  0.48325  0.22272  1.0000
  C   C38       1.0  0.46209  0.91746  0.34102  1.0000
  C   C39       1.0  0.41707  0.82833  0.34991  1.0000
  C   C40       1.0  0.40603  0.85245  0.40456  1.0000
  C   C41       1.0  0.42824  0.89609  0.40065  1.0000
  C   C42       1.0  0.39525  0.78509  0.35874  1.0000
  C   C43       1.0  0.41423  0.62992  0.34368  1.0000
  C   C44       1.0  0.47199  0.62058  0.30164  1.0000
  C   C45       1.0  0.47050  0.55484  0.33266  1.0000
  C   C46       1.0  0.49088  0.59595  0.29874  1.0000
  C   C47       1.0  0.22649  0.59815  0.35111  1.0000
  C   C48       1.0  0.16351  0.60130  0.37782  1.0000
  C   C49       1.0  0.09525  0.54212  0.33715  1.0000
  C   C50       1.0  0.12000  0.58224  0.37451  1.0000
  H   H28       1.0  0.41909  0.91215  0.44159  1.0000
  H   H29       1.0  0.38170  0.83842  0.44864  1.0000
  H   H30       1.0  0.18019  0.63013  0.40620  1.0000
  H   H31       1.0  0.48814  0.65043  0.27826  1.0000
  H   H32       1.0  0.52052  0.60917  0.27473  1.0000
  H   H33       1.0  0.10656  0.59827  0.39983  1.0000
  H   H34       1.0  0.42916  0.65528  0.38141  1.0000
  H   H35       1.0  0.38285  0.77360  0.41877  1.0000
  H   H36       1.0  0.23693  0.58337  0.38915  1.0000
  C   C51       1.0  0.55462  0.09255  0.34477  1.0000
  C   C52       1.0  0.60136  0.18124  0.34845  1.0000
  C   C53       1.0  0.61667  0.15717  0.38918  1.0000
  C   C54       1.0  0.59365  0.11352  0.38769  1.0000
  C   C55       1.0  0.62422  0.22449  0.35574  1.0000
  C   C56       1.0  0.60703  0.38428  0.35417  1.0000
  C   C57       1.0  0.54442  0.38903  0.35734  1.0000
  C   C58       1.0  0.54722  0.45626  0.34694  1.0000
  C   C59       1.0  0.52439  0.41258  0.35602  1.0000
  C   C60       1.0  0.78832  0.40609  0.35589  1.0000
  C   C61       1.0  0.85203  0.40217  0.34170  1.0000
  C   C62       1.0  0.91998  0.46592  0.34803  1.0000
  C   C63       1.0  0.89566  0.42229  0.33992  1.0000
  H   H37       1.0  0.60547  0.09716  0.41883  1.0000
  H   H38       1.0  0.64471  0.17125  0.42155  1.0000
  H   H39       1.0  0.83553  0.37045  0.33861  1.0000
  H   H40       1.0  0.52678  0.35753  0.36509  1.0000
  H   H41       1.0  0.49279  0.39739  0.36167  1.0000
  H   H42       1.0  0.90954  0.40458  0.33559  1.0000
  H   H43       1.0  0.59684  0.36260  0.40191  1.0000
  H   H44       1.0  0.64123  0.23617  0.41118  1.0000
  H   H45       1.0  0.77686  0.41637  0.40346  1.0000
  C   C64       1.0  0.52723  0.48044  0.34773  1.0000
  C   C65       1.0  0.49015  0.53024  0.33451  1.0000
  N   N4        1.0  0.48091  0.50212  0.40172  1.0000
  C   C66       1.0  0.49758  0.47711  0.41263  1.0000
  C   C67       1.0  0.48644  0.45159  0.48771  1.0000
  O   O1        1.0  0.46026  0.45027  0.53946  1.0000
  H   H46       1.0  0.50853  0.44837  0.51718  1.0000
  C   C68       1.0  0.53048  0.04865  0.34718  1.0000
  C   C69       1.0  0.48514  0.96171  0.33994  1.0000
  N   N5        1.0  0.49109  0.98306  0.41807  1.0000
  C   C70       1.0  0.51268  0.02514  0.42676  1.0000
  C   C71       1.0  0.51595  0.04254  0.51120  1.0000
  O   O2        1.0  0.49689  0.02019  0.57471  1.0000
  H   H47       1.0  0.51924  0.07065  0.51301  1.0000
  C   C72       1.0  0.96412  0.48592  0.34919  1.0000
  C   C73       1.0  0.05100  0.52263  0.33778  1.0000
  N   N6        1.0  0.03197  0.53245  0.40357  1.0000
  C   C74       1.0  0.99030  0.51605  0.41345  1.0000
  C   C75       1.0  0.97595  0.52793  0.48724  1.0000
  O   O3        1.0  0.00028  0.55508  0.53803  1.0000
  H   H48       1.0  0.95032  0.50624  0.51680  1.0000
