data_image0
_chemical_formula_structural       C17H12C17H12C2H2C2H2C2H2C13H9C13H9C4HNO2C4HNO2C4HNO2
_chemical_formula_sum              "C78 H51 N3 O6"
_cell_length_a       37.4252
_cell_length_b       37.3999
_cell_length_c       14.8702
_cell_angle_alpha    90
_cell_angle_beta     90
_cell_angle_gamma    120.036

_space_group_name_H-M_alt    "P 1"
_space_group_IT_number       1

loop_
  _space_group_symop_operation_xyz
  'x, y, z'

loop_
  _atom_site_type_symbol
  _atom_site_label
  _atom_site_symmetry_multiplicity
  _atom_site_fract_x
  _atom_site_fract_y
  _atom_site_fract_z
  _atom_site_occupancy
  C   C1        1.0  0.47669  0.89149  0.34956  1.0000
  C   C2        1.0  0.45239  0.84810  0.35155  1.0000
  C   C3        1.0  0.38957  0.75818  0.30186  1.0000
  C   C4        1.0  0.36462  0.71535  0.30817  1.0000
  C   C5        1.0  0.32099  0.69581  0.30661  1.0000
  C   C6        1.0  0.29594  0.65230  0.30767  1.0000
  C   C7        1.0  0.31536  0.62813  0.30840  1.0000
  C   C8        1.0  0.35887  0.64652  0.30939  1.0000
  C   C9        1.0  0.38298  0.69020  0.30849  1.0000
  C   C10       1.0  0.37673  0.62156  0.30340  1.0000
  C   C11       1.0  0.42769  0.60244  0.34317  1.0000
  C   C12       1.0  0.40419  0.55897  0.35198  1.0000
  C   C13       1.0  0.42334  0.53477  0.34923  1.0000
  C   C14       1.0  0.25324  0.63420  0.30017  1.0000
  C   C15       1.0  0.18322  0.58550  0.34745  1.0000
  C   C16       1.0  0.15878  0.54223  0.35878  1.0000
  C   C17       1.0  0.11540  0.52231  0.35562  1.0000
  H   H1        1.0  0.50800  0.90482  0.35655  1.0000
  H   H2        1.0  0.46667  0.83115  0.36133  1.0000
  H   H3        1.0  0.41451  0.70397  0.30592  1.0000
  H   H4        1.0  0.30722  0.71354  0.30275  1.0000
  H   H5        1.0  0.29748  0.59656  0.30599  1.0000
  H   H6        1.0  0.40541  0.50343  0.35623  1.0000
  H   H7        1.0  0.37298  0.54459  0.36223  1.0000
  H   H8        1.0  0.09881  0.49094  0.36375  1.0000
  H   H9        1.0  0.17238  0.52471  0.36980  1.0000
  H   H10       1.0  0.36365  0.59773  0.26116  1.0000
  H   H11       1.0  0.41332  0.76892  0.25944  1.0000
  H   H12       1.0  0.24261  0.64433  0.25086  1.0000
  C   C18       1.0  0.53648  0.11750  0.31668  1.0000
  C   C19       1.0  0.55938  0.16096  0.32111  1.0000
  C   C20       1.0  0.62412  0.25179  0.29979  1.0000
  C   C21       1.0  0.64850  0.29447  0.30764  1.0000
  C   C22       1.0  0.69208  0.31394  0.30979  1.0000
  C   C23       1.0  0.71730  0.35752  0.30908  1.0000
  C   C24       1.0  0.69769  0.38155  0.30490  1.0000
  C   C25       1.0  0.65420  0.36299  0.30385  1.0000
  C   C26       1.0  0.62999  0.31940  0.30418  1.0000
  C   C27       1.0  0.63599  0.38736  0.29470  1.0000
  C   C28       1.0  0.58918  0.41063  0.34588  1.0000
  C   C29       1.0  0.60980  0.45210  0.31554  1.0000
  C   C30       1.0  0.58935  0.47508  0.31180  1.0000
  C   C31       1.0  0.76019  0.37525  0.30460  1.0000
  C   C32       1.0  0.83022  0.42739  0.33991  1.0000
  C   C33       1.0  0.85499  0.46848  0.30968  1.0000
  C   C34       1.0  0.89831  0.48706  0.30695  1.0000
  H   H13       1.0  0.50635  0.10373  0.29627  1.0000
  H   H14       1.0  0.54514  0.17721  0.30345  1.0000
  H   H15       1.0  0.59848  0.30563  0.29979  1.0000
  H   H16       1.0  0.70568  0.29599  0.30944  1.0000
  H   H17       1.0  0.71532  0.41308  0.30061  1.0000
  H   H18       1.0  0.60573  0.50524  0.29148  1.0000
  H   H19       1.0  0.64027  0.46634  0.29761  1.0000
  H   H20       1.0  0.91517  0.51717  0.28651  1.0000
  H   H21       1.0  0.84171  0.48543  0.29007  1.0000
  H   H22       1.0  0.64385  0.40561  0.24100  1.0000
  H   H23       1.0  0.60591  0.24115  0.24607  1.0000
  H   H24       1.0  0.77107  0.36047  0.26800  1.0000
  C   C35       1.0  0.51048  0.53009  0.26566  1.0000
  C   C36       1.0  0.53060  0.50682  0.26534  1.0000
  H   H25       1.0  0.51324  0.54757  0.21028  1.0000
  H   H26       1.0  0.54712  0.50794  0.20952  1.0000
  C   C37       1.0  0.48166  0.98378  0.26797  1.0000
  C   C38       1.0  0.50495  0.02721  0.26844  1.0000
  H   H27       1.0  0.46423  0.96927  0.21239  1.0000
  H   H28       1.0  0.50387  0.04284  0.21297  1.0000
  C   C39       1.0  0.03010  0.52860  0.26634  1.0000
  C   C40       1.0  0.98675  0.50907  0.26394  1.0000
  H   H29       1.0  0.04642  0.54515  0.21125  1.0000
  H   H30       1.0  0.97297  0.51197  0.20711  1.0000
  C   C41       1.0  0.45835  0.91639  0.33922  1.0000
  C   C42       1.0  0.40896  0.82827  0.34274  1.0000
  C   C43       1.0  0.39064  0.85313  0.33173  1.0000
  C   C44       1.0  0.41498  0.89652  0.32931  1.0000
  C   C45       1.0  0.38409  0.78558  0.34993  1.0000
  C   C46       1.0  0.40981  0.62722  0.35085  1.0000
  C   C47       1.0  0.47086  0.62089  0.33142  1.0000
  C   C48       1.0  0.46655  0.55323  0.33814  1.0000
  C   C49       1.0  0.48995  0.59663  0.32819  1.0000
  C   C50       1.0  0.22604  0.60448  0.35536  1.0000
  C   C51       1.0  0.16274  0.60819  0.33299  1.0000
  C   C52       1.0  0.09493  0.54502  0.34188  1.0000
  C   C53       1.0  0.11931  0.58823  0.32964  1.0000
  H   H31       1.0  0.40060  0.91355  0.32296  1.0000
  H   H32       1.0  0.35925  0.83987  0.32623  1.0000
  H   H33       1.0  0.17924  0.63965  0.32660  1.0000
  H   H34       1.0  0.48892  0.65230  0.32583  1.0000
  H   H35       1.0  0.52136  0.61112  0.32139  1.0000
  H   H36       1.0  0.10557  0.60574  0.32085  1.0000
  H   H37       1.0  0.42317  0.65102  0.39303  1.0000
  H   H38       1.0  0.36040  0.77508  0.39240  1.0000
  H   H39       1.0  0.23698  0.59439  0.40418  1.0000
  C   C54       1.0  0.55384  0.09316  0.34380  1.0000
  C   C55       1.0  0.60081  0.18180  0.35155  1.0000
  C   C56       1.0  0.61824  0.15752  0.37827  1.0000
  C   C57       1.0  0.59523  0.11409  0.37441  1.0000
  C   C58       1.0  0.62407  0.22475  0.35963  1.0000
  C   C59       1.0  0.60883  0.38737  0.35406  1.0000
  C   C60       1.0  0.54752  0.39322  0.37307  1.0000
  C   C61       1.0  0.54772  0.45776  0.33949  1.0000
  C   C62       1.0  0.52721  0.41630  0.36986  1.0000
  C   C63       1.0  0.78768  0.41025  0.34655  1.0000
  C   C64       1.0  0.84999  0.40549  0.36797  1.0000
  C   C65       1.0  0.91837  0.46547  0.33572  1.0000
  C   C66       1.0  0.89332  0.42427  0.36588  1.0000
  H   H40       1.0  0.60926  0.09784  0.39375  1.0000
  H   H41       1.0  0.64804  0.17127  0.40109  1.0000
  H   H42       1.0  0.83302  0.37589  0.39160  1.0000
  H   H43       1.0  0.53146  0.36341  0.39594  1.0000
  H   H44       1.0  0.49698  0.40230  0.38962  1.0000
  H   H45       1.0  0.90646  0.40739  0.38672  1.0000
  H   H46       1.0  0.60119  0.36856  0.40691  1.0000
  H   H47       1.0  0.64286  0.23602  0.41245  1.0000
  H   H48       1.0  0.77753  0.42553  0.38344  1.0000
  C   C67       1.0  0.52733  0.48153  0.33920  1.0000
  C   C68       1.0  0.50345  0.48083  0.41370  1.0000
  C   C69       1.0  0.48306  0.50415  0.41524  1.0000
  C   C70       1.0  0.48628  0.52897  0.33988  1.0000
  H   H49       1.0  0.50145  0.46381  0.46934  1.0000
  N   N1        1.0  0.46074  0.50408  0.49227  1.0000
  O   O1        1.0  0.48366  0.51781  0.56021  1.0000
  O   O2        1.0  0.43155  0.46844  0.50963  1.0000
  C   C71       1.0  0.53014  0.04896  0.34263  1.0000
  C   C72       1.0  0.53078  0.02546  0.41659  1.0000
  C   C73       1.0  0.50745  0.98171  0.41734  1.0000
  C   C74       1.0  0.48269  0.96040  0.34170  1.0000
  H   H50       1.0  0.54772  0.04029  0.47247  1.0000
  N   N2        1.0  0.50741  0.95913  0.49389  1.0000
  O   O3        1.0  0.49366  0.96809  0.56212  1.0000
  O   O4        1.0  0.54301  0.96551  0.51113  1.0000
  C   C75       1.0  0.96248  0.48507  0.33716  1.0000
  C   C76       1.0  0.98340  0.48180  0.41321  1.0000
  C   C77       1.0  0.02704  0.50139  0.41689  1.0000
  C   C78       1.0  0.05089  0.52494  0.34213  1.0000
  H   H51       1.0  0.96680  0.46572  0.46844  1.0000
  N   N3        1.0  0.04713  0.49895  0.49549  1.0000
  O   O5        1.0  0.03685  0.46223  0.51375  1.0000
  O   O6        1.0  0.03932  0.51453  0.56222  1.0000
