data_image0
_chemical_formula_structural       C21HNO2NHC3HNO2NHC3HNO2NHC3HNO2NHC3HNO2NHC3HNO2NHC3HNO2NHC3HNO2NHC3HNO2NHC3HNO2NHC3HNO2NHC3HNO2NHC3HNO2NHC3HNO2NHC3HNO2NHC3HNO2NHC3HNO2NHC3HNO2NHCN2CNC2O3CN2CNC2O3CN2CNC2O3CN2CNC2O3CN2CNC2O3CN2CNC2O3NCNCNC3O3NCNCNC3O3NCNCNC3O3NCNCNC3O3NCNCNC3O3NCNCNC3O3C3HNO2NHC3HNO2NHC3HNO2NHC3HNO2NHC3HNO2NHC3HNO2NHC3HNO2NHC3HNO2NHC3HNO2NHC3HNO2NHC3HNO2NHC3HNO2NHC3HNO2NHC3HNO2NHC3HNO2NHC3HNO2NHC3HNO2NHC3HNO2NH
_chemical_formula_sum              "C180 H72 N108 O108"
_cell_length_a       58.3341
_cell_length_b       58.3342
_cell_length_c       15.0256
_cell_angle_alpha    90
_cell_angle_beta     90
_cell_angle_gamma    120

_space_group_name_H-M_alt    "P 1"
_space_group_IT_number       1

loop_
  _space_group_symop_operation_xyz
  'x, y, z'

loop_
  _atom_site_type_symbol
  _atom_site_label
  _atom_site_symmetry_multiplicity
  _atom_site_fract_x
  _atom_site_fract_y
  _atom_site_fract_z
  _atom_site_occupancy
  C   C1        1.0  0.10272  0.44419  0.38685  1.0000
  C   C2        1.0  0.17135  0.46115  0.34739  1.0000
  C   C3        1.0  0.57220  0.67677  0.38620  1.0000
  C   C4        1.0  0.55533  0.72849  0.34669  1.0000
  C   C5        1.0  0.33981  0.91378  0.38719  1.0000
  C   C6        1.0  0.28815  0.84528  0.34569  1.0000
  C   C7        1.0  0.90717  0.57895  0.38732  1.0000
  C   C8        1.0  0.83863  0.56206  0.34656  1.0000
  C   C9        1.0  0.43768  0.34656  0.38656  1.0000
  C   C10       1.0  0.45461  0.29488  0.34691  1.0000
  C   C11       1.0  0.67008  0.10938  0.38754  1.0000
  C   C12       1.0  0.72178  0.17786  0.34597  1.0000
  C   C13       1.0  0.48452  0.13684  0.27770  1.0000
  C   C14       1.0  0.65072  0.53238  0.27800  1.0000
  C   C15       1.0  0.87990  0.36591  0.27792  1.0000
  C   C16       1.0  0.52553  0.88655  0.27779  1.0000
  C   C17       1.0  0.35928  0.49106  0.27794  1.0000
  C   C18       1.0  0.12991  0.65720  0.27785  1.0000
  C   C19       1.0  0.24101  0.43575  0.31889  1.0000
  C   C20       1.0  0.22599  0.43548  0.24452  1.0000
  C   C21       1.0  0.20215  0.43566  0.25924  1.0000
  H   H1        1.0  0.19153  0.43619  0.20583  1.0000
  N   N1        1.0  0.23577  0.43615  0.15781  1.0000
  O   O1        1.0  0.24002  0.45666  0.11667  1.0000
  O   O2        1.0  0.21980  0.41629  0.11326  1.0000
  N   N2        1.0  0.26505  0.43767  0.30809  1.0000
  H   H2        1.0  0.26522  0.42279  0.27919  1.0000
  C   C22       1.0  0.58078  0.82358  0.31915  1.0000
  C   C23       1.0  0.58100  0.80889  0.24453  1.0000
  C   C24       1.0  0.58078  0.78484  0.25885  1.0000
  H   H3        1.0  0.58023  0.77374  0.20525  1.0000
  N   N3        1.0  0.58033  0.81811  0.15799  1.0000
  O   O3        1.0  0.55979  0.80190  0.11680  1.0000
  O   O4        1.0  0.60016  0.82199  0.11328  1.0000
  N   N4        1.0  0.57895  0.84577  0.30882  1.0000
  H   H4        1.0  0.59378  0.86077  0.27955  1.0000
  C   C25       1.0  0.19322  0.77557  0.31630  1.0000
  C   C26       1.0  0.20785  0.79077  0.24203  1.0000
  C   C27       1.0  0.23183  0.81463  0.25689  1.0000
  H   H5        1.0  0.24290  0.82539  0.20353  1.0000
  N   N5        1.0  0.19867  0.78113  0.15525  1.0000
  O   O5        1.0  0.21495  0.77705  0.11344  1.0000
  O   O6        1.0  0.19465  0.79713  0.11142  1.0000
  N   N6        1.0  0.17114  0.75152  0.30521  1.0000
  H   H6        1.0  0.15598  0.75130  0.27709  1.0000
  C   C28       1.0  0.76896  0.58745  0.31853  1.0000
  C   C29       1.0  0.78399  0.58782  0.24403  1.0000
  C   C30       1.0  0.80782  0.58762  0.25854  1.0000
  H   H7        1.0  0.81846  0.58717  0.20502  1.0000
  N   N7        1.0  0.77421  0.58727  0.15740  1.0000
  O   O7        1.0  0.76997  0.56681  0.11588  1.0000
  O   O8        1.0  0.79020  0.60718  0.11309  1.0000
  N   N8        1.0  0.74496  0.58563  0.30793  1.0000
  H   H8        1.0  0.74476  0.60040  0.27832  1.0000
  C   C31       1.0  0.42922  0.19982  0.31866  1.0000
  C   C32       1.0  0.42892  0.21453  0.24423  1.0000
  C   C33       1.0  0.42910  0.23855  0.25887  1.0000
  H   H9        1.0  0.42961  0.24968  0.20542  1.0000
  N   N9        1.0  0.42957  0.20538  0.15756  1.0000
  O   O9        1.0  0.45007  0.22164  0.11632  1.0000
  O   O10       1.0  0.40970  0.20148  0.11306  1.0000
  N   N10       1.0  0.43115  0.17770  0.30797  1.0000
  H   H10       1.0  0.41619  0.16257  0.27971  1.0000
  C   C34       1.0  0.81675  0.24762  0.31814  1.0000
  C   C35       1.0  0.80214  0.23255  0.24366  1.0000
  C   C36       1.0  0.77813  0.20868  0.25819  1.0000
  H   H11       1.0  0.76708  0.19802  0.20467  1.0000
  N   N11       1.0  0.81136  0.24232  0.15702  1.0000
  O   O11       1.0  0.79511  0.24649  0.11540  1.0000
  O   O12       1.0  0.81536  0.22636  0.11283  1.0000
  N   N12       1.0  0.83889  0.27166  0.30749  1.0000
  H   H12       1.0  0.85392  0.27183  0.27845  1.0000
  C   C37       1.0  0.15347  0.56161  0.34140  1.0000
  C   C38       1.0  0.15374  0.57175  0.25549  1.0000
  C   C39       1.0  0.15352  0.59580  0.24748  1.0000
  H   H13       1.0  0.15346  0.60299  0.18539  1.0000
  N   N13       1.0  0.15325  0.55709  0.17976  1.0000
  O   O13       1.0  0.13278  0.55013  0.13398  1.0000
  O   O14       1.0  0.17318  0.57028  0.13129  1.0000
  N   N14       1.0  0.15302  0.53810  0.35193  1.0000
  H   H14       1.0  0.16623  0.53600  0.31881  1.0000
  C   C40       1.0  0.45477  0.61017  0.34097  1.0000
  C   C41       1.0  0.44457  0.60043  0.25500  1.0000
  C   C42       1.0  0.42050  0.57619  0.24681  1.0000
  H   H15       1.0  0.41327  0.56903  0.18466  1.0000
  N   N15       1.0  0.45920  0.61470  0.17935  1.0000
  O   O15       1.0  0.46612  0.60124  0.13311  1.0000
  O   O16       1.0  0.44602  0.62154  0.13129  1.0000
  N   N16       1.0  0.47829  0.63323  0.35163  1.0000
  H   H16       1.0  0.48039  0.64857  0.31866  1.0000
  C   C43       1.0  0.40641  0.86297  0.34094  1.0000
  C   C44       1.0  0.41621  0.86264  0.25495  1.0000
  C   C45       1.0  0.44045  0.86282  0.24675  1.0000
  H   H17       1.0  0.44764  0.86282  0.18459  1.0000
  N   N17       1.0  0.40198  0.86310  0.17933  1.0000
  O   O17       1.0  0.41547  0.88354  0.13338  1.0000
  O   O18       1.0  0.39518  0.84314  0.13098  1.0000
  N   N18       1.0  0.38333  0.86338  0.35169  1.0000
  H   H18       1.0  0.36804  0.85025  0.31832  1.0000
  C   C46       1.0  0.85642  0.46153  0.34106  1.0000
  C   C47       1.0  0.85605  0.45136  0.25512  1.0000
  C   C48       1.0  0.85622  0.42728  0.24703  1.0000
  H   H19       1.0  0.85621  0.42007  0.18491  1.0000
  N   N19       1.0  0.85648  0.46601  0.17943  1.0000
  O   O19       1.0  0.87691  0.47293  0.13341  1.0000
  O   O20       1.0  0.83651  0.45283  0.13117  1.0000
  N   N20       1.0  0.85685  0.48503  0.35167  1.0000
  H   H20       1.0  0.84371  0.48722  0.31838  1.0000
  C   C49       1.0  0.55512  0.41321  0.34110  1.0000
  C   C50       1.0  0.56530  0.42309  0.25522  1.0000
  C   C51       1.0  0.58936  0.44736  0.24732  1.0000
  H   H21       1.0  0.59657  0.45461  0.18525  1.0000
  N   N21       1.0  0.55068  0.40892  0.17944  1.0000
  O   O21       1.0  0.54373  0.42244  0.13359  1.0000
  O   O22       1.0  0.56388  0.40218  0.13105  1.0000
  N   N22       1.0  0.53160  0.39015  0.35154  1.0000
  H   H22       1.0  0.52950  0.37484  0.31841  1.0000
  C   C52       1.0  0.60355  0.16025  0.33988  1.0000
  C   C53       1.0  0.59382  0.16072  0.25389  1.0000
  C   C54       1.0  0.56964  0.16065  0.24566  1.0000
  H   H23       1.0  0.56248  0.16072  0.18351  1.0000
  N   N23       1.0  0.60805  0.16026  0.17827  1.0000
  O   O23       1.0  0.59452  0.13987  0.13212  1.0000
  O   O24       1.0  0.61495  0.18027  0.13010  1.0000
  N   N24       1.0  0.62657  0.15972  0.35059  1.0000
  H   H24       1.0  0.64191  0.17289  0.31746  1.0000
  C   C55       1.0  0.97924  0.38038  0.29224  1.0000
  C   C56       1.0  0.00186  0.39182  0.23674  1.0000
  C   C57       1.0  0.02727  0.40418  0.27609  1.0000
  H   H25       1.0  0.04352  0.41349  0.23568  1.0000
  N   N25       1.0  0.99845  0.39098  0.14329  1.0000
  O   O25       1.0  0.00850  0.37876  0.10628  1.0000
  O   O26       1.0  0.00877  0.41385  0.11066  1.0000
  N   N26       1.0  0.95474  0.37235  0.25750  1.0000
  H   H26       1.0  0.95276  0.38591  0.22618  1.0000
  C   C58       1.0  0.63613  0.61714  0.29173  1.0000
  C   C59       1.0  0.62479  0.62838  0.23603  1.0000
  C   C60       1.0  0.61235  0.64138  0.27518  1.0000
  H   H27       1.0  0.60310  0.64836  0.23463  1.0000
  N   N27       1.0  0.62580  0.62591  0.14260  1.0000
  O   O27       1.0  0.63808  0.64822  0.10588  1.0000
  O   O28       1.0  0.60299  0.61340  0.10949  1.0000
  N   N28       1.0  0.64425  0.60073  0.25709  1.0000
  H   H28       1.0  0.63067  0.58517  0.22589  1.0000
  C   C61       1.0  0.39968  0.03732  0.29424  1.0000
  C   C62       1.0  0.38860  0.01476  0.23849  1.0000
  C   C63       1.0  0.37551  0.98931  0.27758  1.0000
  H   H29       1.0  0.36861  0.97309  0.23705  1.0000
  N   N29       1.0  0.39132  0.01826  0.14510  1.0000
  O   O29       1.0  0.36911  0.00822  0.10770  1.0000
  O   O30       1.0  0.40393  0.00798  0.11266  1.0000
  N   N30       1.0  0.41621  0.06188  0.25998  1.0000
  H   H30       1.0  0.43164  0.06384  0.22796  1.0000
  C   C64       1.0  0.03060  0.64270  0.29287  1.0000
  C   C65       1.0  0.00798  0.63126  0.23739  1.0000
  C   C66       1.0  0.98258  0.61886  0.27682  1.0000
  H   H31       1.0  0.96631  0.60956  0.23648  1.0000
  N   N31       1.0  0.01137  0.63212  0.14393  1.0000
  O   O31       1.0  0.00128  0.64432  0.10703  1.0000
  O   O32       1.0  0.00106  0.60926  0.11125  1.0000
  N   N32       1.0  0.05510  0.65077  0.25803  1.0000
  H   H32       1.0  0.05707  0.63723  0.22655  1.0000
  C   C67       1.0  0.37392  0.40628  0.29220  1.0000
  C   C68       1.0  0.38535  0.39510  0.23666  1.0000
  C   C69       1.0  0.39770  0.38204  0.27598  1.0000
  H   H33       1.0  0.40702  0.37510  0.23556  1.0000
  N   N33       1.0  0.38451  0.39769  0.14322  1.0000
  O   O33       1.0  0.37229  0.37542  0.10618  1.0000
  O   O34       1.0  0.40738  0.41023  0.11060  1.0000
  N   N34       1.0  0.36586  0.42274  0.25750  1.0000
  H   H34       1.0  0.37942  0.43830  0.22626  1.0000
  C   C70       1.0  0.61025  0.98599  0.29328  1.0000
  C   C71       1.0  0.62136  0.00864  0.23788  1.0000
  C   C72       1.0  0.63441  0.03403  0.27735  1.0000
  H   H35       1.0  0.64131  0.05031  0.23706  1.0000
  N   N35       1.0  0.61870  0.00526  0.14443  1.0000
  O   O35       1.0  0.64094  0.01536  0.10718  1.0000
  O   O36       1.0  0.60610  0.01557  0.11215  1.0000
  N   N36       1.0  0.59380  0.96149  0.25847  1.0000
  H   H36       1.0  0.57823  0.95953  0.22746  1.0000
  C   C73       1.0  0.12997  0.49099  0.38565  1.0000
  N   N37       1.0  0.10586  0.46884  0.39316  1.0000
  N   N38       1.0  0.12448  0.44203  0.37145  1.0000
  C   C74       1.0  0.14897  0.46370  0.36462  1.0000
  N   N39       1.0  0.15130  0.48803  0.37050  1.0000
  C   C75       1.0  0.07723  0.42160  0.38285  1.0000
  C   C76       1.0  0.13213  0.51621  0.38828  1.0000
  O   O37       1.0  0.19391  0.48321  0.32225  1.0000
  O   O38       1.0  0.11096  0.51748  0.41912  1.0000
  O   O39       1.0  0.07486  0.39945  0.34487  1.0000
  C   C77       1.0  0.52540  0.65727  0.38527  1.0000
  N   N40       1.0  0.54754  0.65529  0.39264  1.0000
  N   N41       1.0  0.57438  0.70070  0.37079  1.0000
  C   C78       1.0  0.55272  0.70355  0.36408  1.0000
  N   N42       1.0  0.52839  0.68158  0.37008  1.0000
  C   C79       1.0  0.59476  0.67382  0.38199  1.0000
  C   C80       1.0  0.50017  0.63422  0.38792  1.0000
  O   O40       1.0  0.53330  0.72900  0.32113  1.0000
  O   O41       1.0  0.49890  0.61175  0.41857  1.0000
  O   O42       1.0  0.61689  0.69358  0.34379  1.0000
  C   C81       1.0  0.35933  0.88651  0.38532  1.0000
  N   N43       1.0  0.36130  0.91061  0.39345  1.0000
  N   N44       1.0  0.31590  0.89208  0.37116  1.0000
  C   C82       1.0  0.31307  0.86760  0.36368  1.0000
  N   N45       1.0  0.33504  0.86523  0.36956  1.0000
  C   C83       1.0  0.34273  0.93929  0.38379  1.0000
  C   C84       1.0  0.38238  0.88432  0.38783  1.0000
  O   O43       1.0  0.28767  0.82277  0.32001  1.0000
  O   O44       1.0  0.40481  0.90543  0.41909  1.0000
  O   O45       1.0  0.32302  0.94176  0.34576  1.0000
  C   C85       1.0  0.87991  0.53214  0.38556  1.0000
  N   N46       1.0  0.90402  0.55429  0.39352  1.0000
  N   N47       1.0  0.88545  0.58113  0.37156  1.0000
  C   C86       1.0  0.86096  0.55947  0.36424  1.0000
  N   N48       1.0  0.85861  0.53513  0.37005  1.0000
  C   C87       1.0  0.93268  0.60154  0.38379  1.0000
  C   C88       1.0  0.87773  0.50691  0.38809  1.0000
  O   O46       1.0  0.81610  0.54003  0.32094  1.0000
  O   O47       1.0  0.89888  0.50562  0.41910  1.0000
  O   O48       1.0  0.93508  0.62373  0.34605  1.0000
  C   C89       1.0  0.48448  0.36610  0.38520  1.0000
  N   N49       1.0  0.46233  0.36806  0.39282  1.0000
  N   N50       1.0  0.43551  0.32263  0.37111  1.0000
  C   C90       1.0  0.45718  0.31981  0.36417  1.0000
  N   N51       1.0  0.48151  0.34180  0.36999  1.0000
  C   C91       1.0  0.41510  0.34947  0.38267  1.0000
  C   C92       1.0  0.50970  0.38916  0.38778  1.0000
  O   O49       1.0  0.47668  0.29437  0.32177  1.0000
  O   O50       1.0  0.51099  0.41160  0.41873  1.0000
  O   O51       1.0  0.39293  0.32970  0.34472  1.0000
  C   C93       1.0  0.65058  0.13667  0.38516  1.0000
  N   N52       1.0  0.64859  0.11257  0.39351  1.0000
  N   N53       1.0  0.69399  0.13107  0.37159  1.0000
  C   C94       1.0  0.69684  0.15556  0.36388  1.0000
  N   N54       1.0  0.67488  0.15794  0.36947  1.0000
  C   C95       1.0  0.66713  0.08386  0.38438  1.0000
  C   C96       1.0  0.62754  0.13887  0.38744  1.0000
  O   O52       1.0  0.72226  0.20033  0.31967  1.0000
  O   O53       1.0  0.60507  0.11776  0.41843  1.0000
  O   O54       1.0  0.68691  0.08139  0.34685  1.0000
  N   N55       1.0  0.46239  0.11271  0.27038  1.0000
  C   C97       1.0  0.43773  0.10952  0.27701  1.0000
  N   N56       1.0  0.43552  0.13124  0.29258  1.0000
  C   C98       1.0  0.45717  0.15576  0.29926  1.0000
  N   N57       1.0  0.48151  0.15815  0.29305  1.0000
  C   C99       1.0  0.41518  0.08400  0.28123  1.0000
  C   C100      1.0  0.45457  0.17809  0.31684  1.0000
  C   C101      1.0  0.50976  0.13905  0.27489  1.0000
  O   O55       1.0  0.47664  0.20068  0.34184  1.0000
  O   O56       1.0  0.51106  0.11790  0.24394  1.0000
  O   O57       1.0  0.39304  0.08159  0.31949  1.0000
  N   N58       1.0  0.64878  0.55452  0.26961  1.0000
  C   C102      1.0  0.67029  0.57918  0.27571  1.0000
  N   N59       1.0  0.69418  0.58135  0.29183  1.0000
  C   C103      1.0  0.69698  0.55969  0.29958  1.0000
  N   N60       1.0  0.67499  0.53536  0.29387  1.0000
  C   C104      1.0  0.66738  0.60177  0.27888  1.0000
  C   C105      1.0  0.72189  0.56228  0.31762  1.0000
  C   C106      1.0  0.62765  0.50716  0.27566  1.0000
  O   O58       1.0  0.72232  0.54027  0.34391  1.0000
  O   O59       1.0  0.60522  0.50585  0.24442  1.0000
  O   O60       1.0  0.68709  0.62396  0.31694  1.0000
  N   N61       1.0  0.90398  0.36784  0.26963  1.0000
  C   C107      1.0  0.90712  0.34633  0.27572  1.0000
  N   N62       1.0  0.88540  0.32243  0.29169  1.0000
  C   C108      1.0  0.86093  0.31963  0.29932  1.0000
  N   N63       1.0  0.85860  0.34163  0.29364  1.0000
  C   C109      1.0  0.93261  0.34921  0.27892  1.0000
  C   C110      1.0  0.83860  0.29472  0.31719  1.0000
  C   C111      1.0  0.87775  0.38898  0.27552  1.0000
  O   O61       1.0  0.81611  0.29426  0.34309  1.0000
  O   O62       1.0  0.89888  0.41141  0.24439  1.0000
  O   O63       1.0  0.93503  0.32947  0.31709  1.0000
  N   N64       1.0  0.54765  0.91067  0.26977  1.0000
  C   C112      1.0  0.57233  0.91387  0.27614  1.0000
  N   N65       1.0  0.57454  0.89217  0.29219  1.0000
  C   C113      1.0  0.55290  0.86767  0.29960  1.0000
  N   N66       1.0  0.52855  0.86528  0.29360  1.0000
  C   C114      1.0  0.59489  0.93939  0.27965  1.0000
  C   C115      1.0  0.55552  0.84538  0.31767  1.0000
  C   C116      1.0  0.50028  0.88434  0.27517  1.0000
  O   O64       1.0  0.53349  0.82286  0.34340  1.0000
  O   O65       1.0  0.49896  0.90547  0.24410  1.0000
  O   O66       1.0  0.61711  0.94183  0.31733  1.0000
  N   N67       1.0  0.36126  0.46893  0.26962  1.0000
  C   C117      1.0  0.33978  0.44426  0.27574  1.0000
  N   N68       1.0  0.31586  0.44204  0.29179  1.0000
  C   C118      1.0  0.31302  0.46368  0.29947  1.0000
  N   N69       1.0  0.33498  0.48803  0.29374  1.0000
  C   C119      1.0  0.34270  0.42168  0.27888  1.0000
  C   C120      1.0  0.28810  0.46106  0.31748  1.0000
  C   C121      1.0  0.38232  0.51630  0.27553  1.0000
  O   O67       1.0  0.28760  0.48307  0.34329  1.0000
  O   O68       1.0  0.40476  0.51767  0.24422  1.0000
  O   O69       1.0  0.32298  0.39950  0.31697  1.0000
  N   N70       1.0  0.10583  0.65528  0.26992  1.0000
  C   C122      1.0  0.10272  0.67681  0.27580  1.0000
  N   N71       1.0  0.12449  0.70072  0.29120  1.0000
  C   C123      1.0  0.14896  0.70351  0.29844  1.0000
  N   N72       1.0  0.15125  0.68149  0.29299  1.0000
  C   C124      1.0  0.07723  0.67392  0.27944  1.0000
  C   C125      1.0  0.17134  0.72843  0.31565  1.0000
  C   C126      1.0  0.13203  0.63411  0.27570  1.0000
  O   O70       1.0  0.19387  0.72890  0.34117  1.0000
  O   O71       1.0  0.11085  0.61165  0.24490  1.0000
  O   O72       1.0  0.07483  0.69367  0.31755  1.0000
  C   C127      1.0  0.19315  0.43582  0.34627  1.0000
  C   C128      1.0  0.20777  0.43531  0.42063  1.0000
  C   C129      1.0  0.23176  0.43543  0.40591  1.0000
  H   H37       1.0  0.24282  0.43577  0.45933  1.0000
  N   N73       1.0  0.19857  0.43580  0.50735  1.0000
  O   O73       1.0  0.21484  0.45619  0.54907  1.0000
  O   O74       1.0  0.19456  0.41581  0.55134  1.0000
  N   N74       1.0  0.17106  0.43780  0.35717  1.0000
  H   H38       1.0  0.15588  0.42281  0.38509  1.0000
  C   C130      1.0  0.58063  0.77558  0.34572  1.0000
  C   C131      1.0  0.58120  0.79066  0.42033  1.0000
  C   C132      1.0  0.58113  0.81457  0.40601  1.0000
  H   H39       1.0  0.58082  0.82525  0.45962  1.0000
  N   N75       1.0  0.58073  0.78089  0.50689  1.0000
  O   O75       1.0  0.56038  0.77677  0.54884  1.0000
  O   O76       1.0  0.60076  0.79681  0.55087  1.0000
  N   N76       1.0  0.57872  0.75153  0.35615  1.0000
  H   H40       1.0  0.59354  0.75128  0.38519  1.0000
  C   C133      1.0  0.24107  0.82350  0.34396  1.0000
  C   C134      1.0  0.22605  0.80871  0.41825  1.0000
  C   C135      1.0  0.20222  0.78469  0.40338  1.0000
  H   H41       1.0  0.19159  0.77351  0.45673  1.0000
  N   N77       1.0  0.23581  0.81778  0.50500  1.0000
  O   O77       1.0  0.24006  0.80149  0.54603  1.0000
  O   O78       1.0  0.21982  0.82162  0.54960  1.0000
  N   N78       1.0  0.26511  0.84563  0.35487  1.0000
  H   H42       1.0  0.26525  0.86068  0.38362  1.0000
  C   C136      1.0  0.81684  0.58736  0.34548  1.0000
  C   C137      1.0  0.80222  0.58780  0.41998  1.0000
  C   C138      1.0  0.77822  0.58768  0.40547  1.0000
  H   H43       1.0  0.76718  0.58730  0.45899  1.0000
  N   N79       1.0  0.81143  0.58723  0.50661  1.0000
  O   O79       1.0  0.79517  0.56680  0.54816  1.0000
  O   O80       1.0  0.81543  0.60717  0.55087  1.0000
  N   N80       1.0  0.83897  0.58544  0.35609  1.0000
  H   H44       1.0  0.85403  0.60032  0.38489  1.0000
  C   C139      1.0  0.42929  0.24775  0.34586  1.0000
  C   C140      1.0  0.42880  0.23265  0.42028  1.0000
  C   C141      1.0  0.42892  0.20878  0.40564  1.0000
  H   H45       1.0  0.42929  0.19808  0.45910  1.0000
  N   N81       1.0  0.42932  0.24237  0.50697  1.0000
  O   O81       1.0  0.44972  0.24651  0.54863  1.0000
  O   O82       1.0  0.40935  0.22640  0.55105  1.0000
  N   N82       1.0  0.43127  0.27182  0.35668  1.0000
  H   H46       1.0  0.41628  0.27202  0.38460  1.0000
  C   C142      1.0  0.76885  0.19969  0.34513  1.0000
  C   C143      1.0  0.78387  0.21436  0.41962  1.0000
  C   C144      1.0  0.80772  0.23837  0.40509  1.0000
  H   H47       1.0  0.81835  0.24947  0.45860  1.0000
  N   N83       1.0  0.77407  0.20516  0.50626  1.0000
  O   O83       1.0  0.76984  0.22141  0.54766  1.0000
  O   O84       1.0  0.79004  0.20123  0.55065  1.0000
  N   N84       1.0  0.74482  0.17753  0.35573  1.0000
  H   H48       1.0  0.74459  0.16254  0.38531  1.0000
  C   C145      1.0  0.15334  0.61003  0.32325  1.0000
  C   C146      1.0  0.15383  0.60027  0.40915  1.0000
  C   C147      1.0  0.15374  0.57606  0.41717  1.0000
  H   H49       1.0  0.15381  0.56888  0.47925  1.0000
  N   N85       1.0  0.15344  0.61449  0.48490  1.0000
  O   O85       1.0  0.13307  0.60096  0.53115  1.0000
  O   O86       1.0  0.17347  0.62135  0.53292  1.0000
  N   N86       1.0  0.15279  0.63304  0.31284  1.0000
  H   H50       1.0  0.16604  0.64843  0.34556  1.0000
  C   C148      1.0  0.40630  0.56168  0.32246  1.0000
  C   C149      1.0  0.41612  0.57179  0.40845  1.0000
  C   C150      1.0  0.44035  0.59588  0.41663  1.0000
  H   H51       1.0  0.44756  0.60305  0.47878  1.0000
  N   N87       1.0  0.40193  0.55708  0.48408  1.0000
  O   O87       1.0  0.41546  0.55014  0.52988  1.0000
  O   O88       1.0  0.39512  0.57020  0.53258  1.0000
  N   N88       1.0  0.38324  0.53817  0.31173  1.0000
  H   H52       1.0  0.36794  0.53599  0.34514  1.0000
  C   C151      1.0  0.45491  0.86302  0.32239  1.0000
  C   C152      1.0  0.44474  0.86260  0.40838  1.0000
  C   C153      1.0  0.42065  0.86273  0.41659  1.0000
  H   H53       1.0  0.41343  0.86268  0.47874  1.0000
  N   N89       1.0  0.45940  0.86302  0.48401  1.0000
  O   O89       1.0  0.46631  0.88342  0.53015  1.0000
  O   O90       1.0  0.44625  0.84302  0.53218  1.0000
  N   N90       1.0  0.47842  0.86346  0.31170  1.0000
  H   H54       1.0  0.48062  0.85034  0.34500  1.0000
  C   C154      1.0  0.85644  0.41306  0.32274  1.0000
  C   C155      1.0  0.85605  0.42285  0.40868  1.0000
  C   C156      1.0  0.85619  0.44708  0.41677  1.0000
  H   H55       1.0  0.85616  0.45427  0.47889  1.0000
  N   N91       1.0  0.85649  0.40864  0.48437  1.0000
  O   O91       1.0  0.87690  0.42215  0.53042  1.0000
  O   O92       1.0  0.83651  0.40182  0.53261  1.0000
  N   N92       1.0  0.85691  0.39000  0.31215  1.0000
  H   H56       1.0  0.84372  0.37469  0.34533  1.0000
  C   C157      1.0  0.60355  0.46176  0.32314  1.0000
  C   C158      1.0  0.59376  0.45149  0.40900  1.0000
  C   C159      1.0  0.56954  0.42739  0.41691  1.0000
  H   H57       1.0  0.56233  0.42011  0.47898  1.0000
  N   N93       1.0  0.60793  0.46610  0.48481  1.0000
  O   O93       1.0  0.59439  0.47294  0.53097  1.0000
  O   O94       1.0  0.61477  0.45292  0.53290  1.0000
  N   N94       1.0  0.62657  0.48533  0.31284  1.0000
  H   H58       1.0  0.64193  0.48748  0.34576  1.0000
  C   C160      1.0  0.55517  0.16044  0.32129  1.0000
  C   C161      1.0  0.56527  0.16073  0.40729  1.0000
  C   C162      1.0  0.58930  0.16049  0.41552  1.0000
  H   H59       1.0  0.59646  0.16045  0.47768  1.0000
  N   N95       1.0  0.55059  0.16030  0.48290  1.0000
  O   O95       1.0  0.54358  0.13983  0.52880  1.0000
  O   O96       1.0  0.56377  0.18023  0.53131  1.0000
  N   N96       1.0  0.53169  0.16006  0.31052  1.0000
  H   H60       1.0  0.52957  0.17323  0.34377  1.0000
  C   C163      1.0  0.03057  0.40607  0.36956  1.0000
  C   C164      1.0  0.00796  0.39490  0.42507  1.0000
  C   C165      1.0  0.98255  0.38186  0.38571  1.0000
  H   H61       1.0  0.96629  0.37487  0.42610  1.0000
  N   N97       1.0  0.01138  0.39749  0.51852  1.0000
  O   O97       1.0  0.00131  0.37522  0.55557  1.0000
  O   O98       1.0  0.00105  0.41004  0.55110  1.0000
  N   N98       1.0  0.05508  0.42258  0.40420  1.0000
  H   H62       1.0  0.05702  0.43808  0.43569  1.0000
  C   C166      1.0  0.61026  0.64265  0.36861  1.0000
  C   C167      1.0  0.62136  0.63118  0.42433  1.0000
  C   C168      1.0  0.63452  0.61891  0.38518  1.0000
  H   H63       1.0  0.64141  0.60956  0.42565  1.0000
  N   N99       1.0  0.61859  0.63189  0.51772  1.0000
  O   O99       1.0  0.64078  0.64408  0.55524  1.0000
  O   O100      1.0  0.60601  0.60897  0.54998  1.0000
  N   N100      1.0  0.59372  0.65064  0.40300  1.0000
  H   H64       1.0  0.57827  0.63715  0.43492  1.0000
  C   C169      1.0  0.37394  0.98592  0.37101  1.0000
  C   C170      1.0  0.38526  0.00849  0.42678  1.0000
  C   C171      1.0  0.39766  0.03393  0.38767  1.0000
  H   H65       1.0  0.40687  0.05015  0.42827  1.0000
  N   N101      1.0  0.38427  0.00498  0.52020  1.0000
  O   O101      1.0  0.37197  0.01499  0.55702  1.0000
  O   O102      1.0  0.40708  0.01530  0.55325  1.0000
  N   N102      1.0  0.36585  0.96139  0.40560  1.0000
  H   H66       1.0  0.37938  0.95938  0.43699  1.0000
  C   C172      1.0  0.97930  0.61698  0.37031  1.0000
  C   C173      1.0  0.00193  0.62819  0.42579  1.0000
  C   C174      1.0  0.02732  0.64124  0.38635  1.0000
  H   H67       1.0  0.04360  0.64826  0.42669  1.0000
  N   N103      1.0  0.99853  0.62561  0.51924  1.0000
  O   O103      1.0  0.00857  0.64787  0.55626  1.0000
  O   O104      1.0  0.00888  0.61308  0.55181  1.0000
  N   N104      1.0  0.95480  0.60050  0.40503  1.0000
  H   H68       1.0  0.95286  0.58494  0.43609  1.0000
  C   C175      1.0  0.39959  0.38061  0.36946  1.0000
  C   C176      1.0  0.38842  0.39205  0.42500  1.0000
  C   C177      1.0  0.37539  0.40443  0.38566  1.0000
  H   H69       1.0  0.36839  0.41369  0.42607  1.0000
  N   N105      1.0  0.39101  0.39121  0.51844  1.0000
  O   O105      1.0  0.36874  0.37901  0.55548  1.0000
  O   O106      1.0  0.40357  0.41408  0.55105  1.0000
  N   N106      1.0  0.41610  0.37260  0.40406  1.0000
  H   H70       1.0  0.43160  0.38616  0.43553  1.0000
  C   C178      1.0  0.63589  0.03728  0.37083  1.0000
  C   C179      1.0  0.62454  0.01465  0.42627  1.0000
  C   C180      1.0  0.61220  0.98926  0.38677  1.0000
  H   H71       1.0  0.60294  0.97298  0.42708  1.0000
  N   N107      1.0  0.62543  0.01803  0.51974  1.0000
  O   O107      1.0  0.63771  0.00800  0.55648  1.0000
  O   O108      1.0  0.60258  0.00765  0.55254  1.0000
  N   N108      1.0  0.64396  0.06177  0.40580  1.0000
  H   H72       1.0  0.63031  0.06376  0.43645  1.0000
