data_image0
_chemical_formula_structural       C3HNO2C3HNO2C3HNO2C3HNO2C3HNO2C3HNO2C3HNO2C3HNO2C3HNO2C3HNO2C3HNO2C3HNO2C3HNO2C3HNO2C3HNO2C3HNO2C3HNO2C3HNO2C3HNO2C3HNO2C3HNO2C3HNO2C3HNO2C3HNO2CNCNCNCNCNCNCNCNCNCNCNCNCNCNCNCNCNCNCNCNCNCNCNCNCNCNCNCNCNCNCNCNCNCNCNCNCNCNCNCNCNCNCNCNCNCNCNCNC3HNO2C3HNO2C3HNO2C3HNO2C3HNO2C3HNO2C3HNO2C3HNO2C3HNO2C3HNO2C3HNO2C3HNO2C3HNO2C3HNO2C3HNO2C3HNO2C3HNO2C3HNO2C3HNO2C3HNO2C3HNO2C3HNO2C3HNO2C3HNO2
_chemical_formula_sum              "C192 H48 N96 O96"
_cell_length_a       43.8421
_cell_length_b       34.379
_cell_length_c       14.7468
_cell_angle_alpha    90
_cell_angle_beta     90
_cell_angle_gamma    90

_space_group_name_H-M_alt    "P 1"
_space_group_IT_number       1

loop_
  _space_group_symop_operation_xyz
  'x, y, z'

loop_
  _atom_site_type_symbol
  _atom_site_label
  _atom_site_symmetry_multiplicity
  _atom_site_fract_x
  _atom_site_fract_y
  _atom_site_fract_z
  _atom_site_occupancy
  C   C1        1.0  0.00860  0.96660  0.34897  1.0000
  C   C2        1.0  0.00858  0.98810  0.26674  1.0000
  C   C3        1.0  0.00854  0.02951  0.26893  1.0000
  H   H1        1.0  0.00853  0.04443  0.20880  1.0000
  N   N1        1.0  0.00855  0.96755  0.18352  1.0000
  O   O1        1.0  0.98524  0.97529  0.13736  1.0000
  O   O2        1.0  0.03181  0.97533  0.13715  1.0000
  C   C4        1.0  0.50849  0.46653  0.34894  1.0000
  C   C5        1.0  0.50849  0.48804  0.26671  1.0000
  C   C6        1.0  0.50851  0.52945  0.26892  1.0000
  H   H2        1.0  0.50851  0.54436  0.20878  1.0000
  N   N2        1.0  0.50845  0.46749  0.18350  1.0000
  O   O3        1.0  0.48514  0.47527  0.13734  1.0000
  O   O4        1.0  0.53171  0.47523  0.13712  1.0000
  C   C7        1.0  0.11730  0.22237  0.34925  1.0000
  C   C8        1.0  0.10341  0.21037  0.26691  1.0000
  C   C9        1.0  0.07704  0.18627  0.26900  1.0000
  H   H3        1.0  0.06709  0.17840  0.20887  1.0000
  N   N3        1.0  0.11593  0.22346  0.18382  1.0000
  O   O5        1.0  0.12438  0.19544  0.13522  1.0000
  O   O6        1.0  0.09708  0.24352  0.13984  1.0000
  C   C10       1.0  0.89987  0.79487  0.34972  1.0000
  C   C11       1.0  0.91370  0.80714  0.26751  1.0000
  C   C12       1.0  0.94007  0.83125  0.26990  1.0000
  H   H4        1.0  0.94999  0.83930  0.20986  1.0000
  N   N4        1.0  0.90117  0.79425  0.18426  1.0000
  O   O7        1.0  0.89272  0.82237  0.13600  1.0000
  O   O8        1.0  0.92003  0.77429  0.14003  1.0000
  C   C13       1.0  0.95346  0.17402  0.34800  1.0000
  C   C14       1.0  0.93980  0.18663  0.26579  1.0000
  C   C15       1.0  0.91331  0.21051  0.26820  1.0000
  H   H5        1.0  0.90424  0.22006  0.20818  1.0000
  N   N5        1.0  0.95339  0.17571  0.18248  1.0000
  O   O9        1.0  0.93524  0.15637  0.13438  1.0000
  O   O10       1.0  0.96199  0.20494  0.13815  1.0000
  C   C16       1.0  0.06372  0.84323  0.34906  1.0000
  C   C17       1.0  0.07744  0.83091  0.26674  1.0000
  C   C18       1.0  0.10394  0.80703  0.26891  1.0000
  H   H6        1.0  0.11305  0.79765  0.20878  1.0000
  N   N6        1.0  0.06389  0.84206  0.18354  1.0000
  O   O11       1.0  0.08205  0.86157  0.13582  1.0000
  O   O12       1.0  0.05532  0.81295  0.13873  1.0000
  C   C19       1.0  0.61741  0.72225  0.34824  1.0000
  C   C20       1.0  0.60327  0.71045  0.26608  1.0000
  C   C21       1.0  0.57690  0.68636  0.26848  1.0000
  H   H7        1.0  0.56680  0.67863  0.20849  1.0000
  N   N7        1.0  0.61559  0.72369  0.18284  1.0000
  O   O13       1.0  0.62389  0.69576  0.13375  1.0000
  O   O14       1.0  0.59664  0.74386  0.13951  1.0000
  C   C22       1.0  0.39977  0.29476  0.34887  1.0000
  C   C23       1.0  0.41383  0.30680  0.26681  1.0000
  C   C24       1.0  0.44019  0.33092  0.26946  1.0000
  H   H8        1.0  0.45026  0.33881  0.20953  1.0000
  N   N8        1.0  0.40151  0.29373  0.18344  1.0000
  O   O15       1.0  0.39320  0.32175  0.13466  1.0000
  O   O16       1.0  0.42047  0.27366  0.13987  1.0000
  C   C25       1.0  0.45353  0.67401  0.34841  1.0000
  C   C26       1.0  0.43966  0.68644  0.26638  1.0000
  C   C27       1.0  0.41315  0.71029  0.26913  1.0000
  H   H9        1.0  0.40392  0.71972  0.20922  1.0000
  N   N9        1.0  0.45307  0.67541  0.18289  1.0000
  O   O17       1.0  0.43482  0.65599  0.13527  1.0000
  O   O18       1.0  0.46157  0.70459  0.13819  1.0000
  C   C28       1.0  0.56362  0.34318  0.34936  1.0000
  C   C29       1.0  0.57755  0.33102  0.26719  1.0000
  C   C30       1.0  0.60406  0.30716  0.26967  1.0000
  H   H10       1.0  0.61332  0.29790  0.20965  1.0000
  N   N10       1.0  0.56416  0.34228  0.18384  1.0000
  O   O19       1.0  0.58240  0.36187  0.13659  1.0000
  O   O20       1.0  0.55570  0.31323  0.13865  1.0000
  C   C31       1.0  0.38416  0.07995  0.34730  1.0000
  C   C32       1.0  0.38081  0.10080  0.26495  1.0000
  C   C33       1.0  0.37273  0.14069  0.26779  1.0000
  H   H11       1.0  0.37044  0.15563  0.20802  1.0000
  N   N11       1.0  0.38624  0.08153  0.18157  1.0000
  O   O21       1.0  0.36291  0.08171  0.13211  1.0000
  O   O22       1.0  0.40788  0.09692  0.13871  1.0000
  C   C34       1.0  0.63285  0.93720  0.34877  1.0000
  C   C35       1.0  0.63581  0.91637  0.26624  1.0000
  C   C36       1.0  0.64388  0.87648  0.26863  1.0000
  H   H12       1.0  0.64590  0.86158  0.20874  1.0000
  N   N12       1.0  0.63005  0.93572  0.18314  1.0000
  O   O23       1.0  0.65315  0.93551  0.13275  1.0000
  O   O24       1.0  0.60818  0.92045  0.14110  1.0000
  C   C37       1.0  0.64810  0.16037  0.34963  1.0000
  C   C38       1.0  0.64468  0.13970  0.26711  1.0000
  C   C39       1.0  0.63693  0.09971  0.26987  1.0000
  H   H13       1.0  0.63315  0.08533  0.21001  1.0000
  N   N13       1.0  0.64826  0.15965  0.18374  1.0000
  O   O25       1.0  0.66935  0.14508  0.13709  1.0000
  O   O26       1.0  0.62410  0.15909  0.13793  1.0000
  C   C40       1.0  0.36914  0.85681  0.34900  1.0000
  C   C41       1.0  0.37227  0.87742  0.26631  1.0000
  C   C42       1.0  0.38004  0.91741  0.26867  1.0000
  H   H14       1.0  0.38357  0.93176  0.20865  1.0000
  N   N14       1.0  0.36844  0.85740  0.18312  1.0000
  O   O27       1.0  0.34725  0.87197  0.13688  1.0000
  O   O28       1.0  0.39249  0.85787  0.13677  1.0000
  C   C43       1.0  0.88427  0.58004  0.34711  1.0000
  C   C44       1.0  0.88191  0.60140  0.26516  1.0000
  C   C45       1.0  0.87385  0.64129  0.26856  1.0000
  H   H15       1.0  0.87222  0.65659  0.20912  1.0000
  N   N15       1.0  0.88824  0.58264  0.18169  1.0000
  O   O29       1.0  0.91040  0.59820  0.14162  1.0000
  O   O30       1.0  0.86550  0.58325  0.12989  1.0000
  C   C46       1.0  0.13275  0.43727  0.34917  1.0000
  C   C47       1.0  0.13545  0.41625  0.26684  1.0000
  C   C48       1.0  0.14353  0.37636  0.26962  1.0000
  H   H16       1.0  0.14538  0.36130  0.20991  1.0000
  N   N16       1.0  0.12942  0.43537  0.18361  1.0000
  O   O31       1.0  0.15237  0.43500  0.13257  1.0000
  O   O32       1.0  0.10742  0.41998  0.14243  1.0000
  C   C49       1.0  0.14815  0.66041  0.34863  1.0000
  C   C50       1.0  0.14488  0.63950  0.26640  1.0000
  C   C51       1.0  0.13709  0.59952  0.26968  1.0000
  H   H17       1.0  0.13343  0.58497  0.21000  1.0000
  N   N17       1.0  0.14862  0.65918  0.18274  1.0000
  O   O33       1.0  0.16972  0.64437  0.13657  1.0000
  O   O34       1.0  0.12451  0.65855  0.13667  1.0000
  C   C52       1.0  0.86900  0.35685  0.34784  1.0000
  C   C53       1.0  0.87188  0.37777  0.26548  1.0000
  C   C54       1.0  0.87963  0.41776  0.26842  1.0000
  H   H18       1.0  0.88300  0.43231  0.20859  1.0000
  N   N18       1.0  0.86785  0.35804  0.18198  1.0000
  O   O35       1.0  0.84658  0.37280  0.13644  1.0000
  O   O36       1.0  0.89180  0.35867  0.13517  1.0000
  C   C55       1.0  0.54068  0.00869  0.34884  1.0000
  C   C56       1.0  0.52461  0.00872  0.26560  1.0000
  C   C57       1.0  0.49240  0.00877  0.26766  1.0000
  H   H19       1.0  0.48060  0.00879  0.20764  1.0000
  N   N19       1.0  0.54094  0.00871  0.18266  1.0000
  O   O37       1.0  0.53497  0.03840  0.13624  1.0000
  O   O38       1.0  0.53498  0.97901  0.13627  1.0000
  C   C58       1.0  0.04062  0.50876  0.34911  1.0000
  C   C59       1.0  0.02456  0.50862  0.26585  1.0000
  C   C60       1.0  0.99235  0.50858  0.26787  1.0000
  H   H20       1.0  0.98055  0.50850  0.20784  1.0000
  N   N20       1.0  0.04090  0.50855  0.18293  1.0000
  O   O39       1.0  0.03487  0.53817  0.13629  1.0000
  O   O40       1.0  0.03500  0.47877  0.13674  1.0000
  C   C61       1.0  0.22579  0.26074  0.34992  1.0000
  C   C62       1.0  0.24253  0.26066  0.26756  1.0000
  C   C63       1.0  0.27486  0.25797  0.26984  1.0000
  H   H21       1.0  0.28657  0.25688  0.20975  1.0000
  N   N21       1.0  0.22651  0.26313  0.18434  1.0000
  O   O41       1.0  0.23422  0.29279  0.14012  1.0000
  O   O42       1.0  0.23100  0.23357  0.13604  1.0000
  C   C64       1.0  0.79134  0.75665  0.34989  1.0000
  C   C65       1.0  0.77456  0.75653  0.26759  1.0000
  C   C66       1.0  0.74223  0.75918  0.26992  1.0000
  H   H22       1.0  0.73050  0.76014  0.20985  1.0000
  N   N22       1.0  0.79056  0.75393  0.18436  1.0000
  O   O43       1.0  0.78288  0.72418  0.14045  1.0000
  O   O44       1.0  0.78604  0.78340  0.13578  1.0000
  C   C67       1.0  0.72584  0.25652  0.34840  1.0000
  C   C68       1.0  0.74259  0.25648  0.26604  1.0000
  C   C69       1.0  0.77491  0.25924  0.26828  1.0000
  H   H23       1.0  0.78662  0.26028  0.20819  1.0000
  N   N23       1.0  0.72657  0.25380  0.18287  1.0000
  O   O45       1.0  0.73422  0.22398  0.13918  1.0000
  O   O46       1.0  0.73109  0.28320  0.13406  1.0000
  C   C70       1.0  0.29134  0.76069  0.34842  1.0000
  C   C71       1.0  0.27458  0.76065  0.26608  1.0000
  C   C72       1.0  0.24226  0.75790  0.26842  1.0000
  H   H24       1.0  0.23054  0.75682  0.20835  1.0000
  N   N24       1.0  0.29059  0.76320  0.18287  1.0000
  O   O47       1.0  0.28292  0.79294  0.13892  1.0000
  O   O48       1.0  0.28607  0.73372  0.13435  1.0000
  C   C73       1.0  0.98134  0.15248  0.34924  1.0000
  N   N25       1.0  0.98178  0.11275  0.34941  1.0000
  C   C74       1.0  0.00852  0.09231  0.34989  1.0000
  N   N26       1.0  0.03526  0.11274  0.35049  1.0000
  C   C75       1.0  0.03571  0.15247  0.34990  1.0000
  N   N27       1.0  0.00853  0.17170  0.34942  1.0000
  C   C76       1.0  0.03583  0.86478  0.35051  1.0000
  N   N28       1.0  0.03537  0.90450  0.34982  1.0000
  C   C77       1.0  0.00863  0.92493  0.35038  1.0000
  N   N29       1.0  0.98189  0.90448  0.35090  1.0000
  C   C78       1.0  0.98146  0.86476  0.35117  1.0000
  N   N30       1.0  0.00865  0.84554  0.35105  1.0000
  C   C79       1.0  0.48140  0.65244  0.34934  1.0000
  N   N31       1.0  0.48182  0.61272  0.34951  1.0000
  C   C80       1.0  0.50854  0.59225  0.34988  1.0000
  N   N32       1.0  0.53530  0.61266  0.35038  1.0000
  C   C81       1.0  0.53578  0.65238  0.34982  1.0000
  N   N33       1.0  0.50860  0.67164  0.34943  1.0000
  C   C82       1.0  0.53573  0.36471  0.35051  1.0000
  N   N34       1.0  0.53526  0.40443  0.34984  1.0000
  C   C83       1.0  0.50851  0.42485  0.35035  1.0000
  N   N35       1.0  0.48178  0.40439  0.35083  1.0000
  C   C84       1.0  0.48135  0.36467  0.35113  1.0000
  N   N36       1.0  0.50855  0.34546  0.35103  1.0000
  C   C85       1.0  0.39827  0.97426  0.34961  1.0000
  N   N37       1.0  0.38265  0.00862  0.34901  1.0000
  C   C86       1.0  0.39819  0.04303  0.34846  1.0000
  N   N38       1.0  0.42911  0.04272  0.34849  1.0000
  C   C87       1.0  0.44461  0.00873  0.34904  1.0000
  N   N39       1.0  0.42919  0.97469  0.35002  1.0000
  C   C88       1.0  0.61896  0.04294  0.35164  1.0000
  N   N40       1.0  0.63451  0.00853  0.35130  1.0000
  C   C89       1.0  0.61890  0.97416  0.35055  1.0000
  N   N41       1.0  0.58798  0.97458  0.34984  1.0000
  C   C90       1.0  0.57255  0.00863  0.35060  1.0000
  N   N42       1.0  0.58804  0.04262  0.35132  1.0000
  C   C91       1.0  0.89817  0.47428  0.34992  1.0000
  N   N43       1.0  0.88261  0.50868  0.34905  1.0000
  C   C92       1.0  0.89821  0.54306  0.34824  1.0000
  N   N44       1.0  0.92913  0.54265  0.34836  1.0000
  C   C93       1.0  0.94456  0.50863  0.34920  1.0000
  N   N45       1.0  0.92909  0.47462  0.35034  1.0000
  C   C94       1.0  0.11889  0.54303  0.35195  1.0000
  N   N46       1.0  0.13443  0.50861  0.35151  1.0000
  C   C95       1.0  0.11881  0.47425  0.35069  1.0000
  N   N47       1.0  0.08790  0.47468  0.35005  1.0000
  C   C96       1.0  0.07248  0.50872  0.35090  1.0000
  N   N48       1.0  0.08797  0.54271  0.35164  1.0000
  C   C97       1.0  0.14141  0.25034  0.35091  1.0000
  N   N49       1.0  0.17169  0.24052  0.35056  1.0000
  C   C98       1.0  0.19392  0.26851  0.35144  1.0000
  N   N50       1.0  0.18540  0.30645  0.35195  1.0000
  C   C99       1.0  0.15561  0.31694  0.35189  1.0000
  N   N51       1.0  0.13385  0.28876  0.35134  1.0000
  C   C100      1.0  0.87573  0.76695  0.35104  1.0000
  N   N52       1.0  0.84545  0.77681  0.35079  1.0000
  C   C101      1.0  0.82320  0.74885  0.35147  1.0000
  N   N53       1.0  0.83170  0.71089  0.35174  1.0000
  C   C102      1.0  0.86148  0.70037  0.35164  1.0000
  N   N54       1.0  0.88326  0.72851  0.35121  1.0000
  C   C103      1.0  0.87565  0.25039  0.34943  1.0000
  N   N55       1.0  0.84538  0.24052  0.34991  1.0000
  C   C104      1.0  0.82312  0.26846  0.34926  1.0000
  N   N56       1.0  0.83159  0.30643  0.34880  1.0000
  C   C105      1.0  0.86137  0.31697  0.34870  1.0000
  N   N57       1.0  0.88317  0.28883  0.34902  1.0000
  C   C106      1.0  0.14153  0.76687  0.34976  1.0000
  N   N58       1.0  0.17181  0.77673  0.35012  1.0000
  C   C107      1.0  0.19406  0.74877  0.34946  1.0000
  N   N59       1.0  0.18557  0.71081  0.34919  1.0000
  C   C108      1.0  0.15579  0.70029  0.34919  1.0000
  N   N60       1.0  0.13401  0.72843  0.34951  1.0000
  C   C109      1.0  0.64151  0.75022  0.34960  1.0000
  N   N61       1.0  0.67180  0.74041  0.35017  1.0000
  C   C110      1.0  0.69403  0.76839  0.35091  1.0000
  N   N62       1.0  0.68551  0.80634  0.35134  1.0000
  C   C111      1.0  0.65572  0.81683  0.35035  1.0000
  N   N63       1.0  0.63396  0.78865  0.34957  1.0000
  C   C112      1.0  0.37561  0.26686  0.34995  1.0000
  N   N64       1.0  0.34534  0.27675  0.35043  1.0000
  C   C113      1.0  0.32307  0.24882  0.35081  1.0000
  N   N65       1.0  0.33153  0.21085  0.35096  1.0000
  C   C114      1.0  0.36130  0.20030  0.35010  1.0000
  N   N66       1.0  0.38311  0.22841  0.34970  1.0000
  C   C115      1.0  0.37573  0.75036  0.35083  1.0000
  N   N67       1.0  0.34545  0.74051  0.35041  1.0000
  C   C116      1.0  0.32320  0.76848  0.34992  1.0000
  N   N68       1.0  0.33170  0.80643  0.34955  1.0000
  C   C117      1.0  0.36148  0.81694  0.35038  1.0000
  N   N69       1.0  0.38326  0.78880  0.35087  1.0000
  C   C118      1.0  0.64145  0.26683  0.35096  1.0000
  N   N70       1.0  0.67173  0.27669  0.35044  1.0000
  C   C119      1.0  0.69398  0.24873  0.34996  1.0000
  N   N71       1.0  0.68549  0.21078  0.34976  1.0000
  C   C120      1.0  0.65572  0.20025  0.35066  1.0000
  N   N72       1.0  0.63393  0.22839  0.35116  1.0000
  C   C121      1.0  0.00852  0.05064  0.35129  1.0000
  C   C122      1.0  0.00851  0.02913  0.43352  1.0000
  C   C123      1.0  0.00855  0.98773  0.43132  1.0000
  H   H25       1.0  0.00853  0.97281  0.49146  1.0000
  N   N73       1.0  0.00843  0.04968  0.51673  1.0000
  O   O49       1.0  0.98512  0.04188  0.56285  1.0000
  O   O50       1.0  0.03169  0.04197  0.56315  1.0000
  C   C124      1.0  0.50851  0.55057  0.35127  1.0000
  C   C125      1.0  0.50846  0.52907  0.43350  1.0000
  C   C126      1.0  0.50845  0.48765  0.43129  1.0000
  H   H26       1.0  0.50842  0.47274  0.49143  1.0000
  N   N74       1.0  0.50839  0.54961  0.51671  1.0000
  O   O51       1.0  0.48506  0.54185  0.56279  1.0000
  O   O52       1.0  0.53163  0.54185  0.56317  1.0000
  C   C127      1.0  0.06360  0.17400  0.35138  1.0000
  C   C128      1.0  0.07727  0.18638  0.43375  1.0000
  C   C129      1.0  0.10378  0.21024  0.43163  1.0000
  H   H27       1.0  0.11284  0.21967  0.49177  1.0000
  N   N75       1.0  0.06367  0.17528  0.51691  1.0000
  O   O53       1.0  0.08179  0.15578  0.56475  1.0000
  O   O54       1.0  0.05510  0.20442  0.56163  1.0000
  C   C130      1.0  0.95358  0.84321  0.35242  1.0000
  C   C131      1.0  0.93997  0.83053  0.43464  1.0000
  C   C132      1.0  0.91344  0.80672  0.43224  1.0000
  H   H28       1.0  0.90442  0.79708  0.49226  1.0000
  N   N76       1.0  0.95363  0.84133  0.51794  1.0000
  O   O55       1.0  0.93553  0.86064  0.56628  1.0000
  O   O56       1.0  0.96223  0.81202  0.56201  1.0000
  C   C133      1.0  0.89979  0.22247  0.35071  1.0000
  C   C134      1.0  0.91367  0.21027  0.43291  1.0000
  C   C135      1.0  0.94002  0.18613  0.43053  1.0000
  H   H29       1.0  0.94998  0.17814  0.49057  1.0000
  N   N77       1.0  0.90120  0.22325  0.51617  1.0000
  O   O57       1.0  0.89276  0.19517  0.56459  1.0000
  O   O58       1.0  0.92009  0.24323  0.56022  1.0000
  C   C136      1.0  0.11740  0.79481  0.35129  1.0000
  C   C137      1.0  0.10346  0.80676  0.43361  1.0000
  C   C138      1.0  0.07709  0.83087  0.43148  1.0000
  H   H30       1.0  0.06711  0.83870  0.49158  1.0000
  N   N78       1.0  0.11592  0.79361  0.51674  1.0000
  O   O59       1.0  0.12435  0.82158  0.56550  1.0000
  O   O60       1.0  0.09703  0.77353  0.56053  1.0000
  C   C139      1.0  0.56368  0.67389  0.35101  1.0000
  C   C140      1.0  0.57756  0.68611  0.43320  1.0000
  C   C141      1.0  0.60408  0.70995  0.43076  1.0000
  H   H31       1.0  0.61329  0.71927  0.49080  1.0000
  N   N79       1.0  0.56412  0.67492  0.51653  1.0000
  O   O61       1.0  0.58232  0.65536  0.56395  1.0000
  O   O62       1.0  0.55564  0.70402  0.56156  1.0000
  C   C142      1.0  0.45348  0.34311  0.35212  1.0000
  C   C143      1.0  0.43965  0.33064  0.43420  1.0000
  C   C144      1.0  0.41312  0.30684  0.43153  1.0000
  H   H32       1.0  0.40394  0.29734  0.49146  1.0000
  N   N80       1.0  0.45313  0.34160  0.51764  1.0000
  O   O63       1.0  0.43493  0.36100  0.56545  1.0000
  O   O64       1.0  0.46163  0.31238  0.56218  1.0000
  C   C145      1.0  0.39986  0.72243  0.35182  1.0000
  C   C146      1.0  0.41398  0.71043  0.43383  1.0000
  C   C147      1.0  0.44032  0.68629  0.43111  1.0000
  H   H33       1.0  0.45043  0.67843  0.49101  1.0000
  N   N81       1.0  0.40171  0.72355  0.51724  1.0000
  O   O65       1.0  0.39341  0.69555  0.56613  1.0000
  O   O66       1.0  0.42070  0.74363  0.56066  1.0000
  C   C148      1.0  0.61731  0.29476  0.35222  1.0000
  C   C149      1.0  0.60315  0.30653  0.43436  1.0000
  C   C150      1.0  0.57678  0.33063  0.43191  1.0000
  H   H34       1.0  0.56665  0.33834  0.49188  1.0000
  N   N82       1.0  0.61542  0.29325  0.51763  1.0000
  O   O67       1.0  0.62371  0.32116  0.56680  1.0000
  O   O68       1.0  0.59644  0.27308  0.56085  1.0000
  C   C151      1.0  0.36892  0.16042  0.35098  1.0000
  C   C152      1.0  0.37234  0.13969  0.43339  1.0000
  C   C153      1.0  0.38015  0.09971  0.43046  1.0000
  H   H35       1.0  0.38391  0.08529  0.49025  1.0000
  N   N83       1.0  0.36872  0.15956  0.51686  1.0000
  O   O69       1.0  0.34766  0.14490  0.56342  1.0000
  O   O70       1.0  0.39289  0.15902  0.56269  1.0000
  C   C154      1.0  0.64804  0.85669  0.35160  1.0000
  C   C155      1.0  0.64497  0.87738  0.43420  1.0000
  C   C156      1.0  0.63720  0.91738  0.43170  1.0000
  H   H36       1.0  0.63368  0.93175  0.49168  1.0000
  N   N84       1.0  0.64882  0.85742  0.51746  1.0000
  O   O71       1.0  0.67003  0.87201  0.56358  1.0000
  O   O72       1.0  0.62479  0.85793  0.56390  1.0000
  C   C157      1.0  0.63297  0.07989  0.35296  1.0000
  C   C158      1.0  0.63632  0.10064  0.43542  1.0000
  C   C159      1.0  0.64433  0.14056  0.43274  1.0000
  H   H37       1.0  0.64665  0.15544  0.49257  1.0000
  N   N85       1.0  0.63094  0.08128  0.51872  1.0000
  O   O73       1.0  0.65430  0.08147  0.56810  1.0000
  O   O74       1.0  0.60930  0.09658  0.56173  1.0000
  C   C160      1.0  0.38431  0.93730  0.35155  1.0000
  C   C161      1.0  0.38131  0.91656  0.43418  1.0000
  C   C162      1.0  0.37327  0.87665  0.43192  1.0000
  H   H38       1.0  0.37119  0.86181  0.49186  1.0000
  N   N86       1.0  0.38704  0.93598  0.51720  1.0000
  O   O75       1.0  0.36392  0.93579  0.56753  1.0000
  O   O76       1.0  0.40891  0.92076  0.55937  1.0000
  C   C163      1.0  0.86912  0.66050  0.35199  1.0000
  C   C164      1.0  0.87167  0.63926  0.43401  1.0000
  C   C165      1.0  0.87940  0.59927  0.43050  1.0000
  H   H39       1.0  0.88253  0.58448  0.49012  1.0000
  N   N87       1.0  0.86742  0.65870  0.51777  1.0000
  O   O77       1.0  0.84602  0.64381  0.56253  1.0000
  O   O78       1.0  0.89124  0.65788  0.56515  1.0000
  C   C166      1.0  0.14794  0.35680  0.35279  1.0000
  C   C167      1.0  0.14509  0.37771  0.43518  1.0000
  C   C168      1.0  0.13734  0.41771  0.43229  1.0000
  H   H40       1.0  0.13398  0.43225  0.49213  1.0000
  N   N88       1.0  0.14911  0.35797  0.51864  1.0000
  O   O79       1.0  0.17038  0.37272  0.56424  1.0000
  O   O80       1.0  0.12516  0.35858  0.56544  1.0000
  C   C169      1.0  0.13292  0.57995  0.35302  1.0000
  C   C170      1.0  0.13606  0.60099  0.43517  1.0000
  C   C171      1.0  0.14414  0.64087  0.43199  1.0000
  H   H41       1.0  0.14633  0.65594  0.49161  1.0000
  N   N89       1.0  0.13043  0.58191  0.51867  1.0000
  O   O81       1.0  0.15363  0.58222  0.56865  1.0000
  O   O82       1.0  0.10868  0.59738  0.56084  1.0000
  C   C172      1.0  0.88416  0.43734  0.35157  1.0000
  C   C173      1.0  0.88145  0.41629  0.43385  1.0000
  C   C174      1.0  0.87340  0.37639  0.43102  1.0000
  H   H42       1.0  0.87151  0.36133  0.49073  1.0000
  N   N90       1.0  0.88744  0.43541  0.51708  1.0000
  O   O83       1.0  0.86449  0.43501  0.56807  1.0000
  O   O84       1.0  0.90945  0.42004  0.55831  1.0000
  C   C175      1.0  0.47647  0.00877  0.35077  1.0000
  C   C176      1.0  0.49255  0.00874  0.43401  1.0000
  C   C177      1.0  0.52476  0.00872  0.43195  1.0000
  H   H43       1.0  0.53656  0.00870  0.49197  1.0000
  N   N91       1.0  0.47622  0.00876  0.51695  1.0000
  O   O85       1.0  0.48224  0.03842  0.56341  1.0000
  O   O86       1.0  0.48214  0.97903  0.56330  1.0000
  C   C178      1.0  0.97642  0.50863  0.35097  1.0000
  C   C179      1.0  0.99248  0.50876  0.43424  1.0000
  C   C180      1.0  0.02469  0.50884  0.43221  1.0000
  H   H44       1.0  0.03648  0.50893  0.49224  1.0000
  N   N92       1.0  0.97614  0.50884  0.51716  1.0000
  O   O87       1.0  0.98209  0.53859  0.56340  1.0000
  O   O88       1.0  0.98210  0.47920  0.56374  1.0000
  C   C181      1.0  0.29122  0.25666  0.35243  1.0000
  C   C182      1.0  0.27446  0.25663  0.43476  1.0000
  C   C183      1.0  0.24214  0.25938  0.43250  1.0000
  H   H45       1.0  0.23043  0.26042  0.49259  1.0000
  N   N93       1.0  0.29048  0.25400  0.51794  1.0000
  O   O89       1.0  0.28283  0.22419  0.56172  1.0000
  O   O90       1.0  0.28595  0.28342  0.56666  1.0000
  C   C184      1.0  0.72590  0.76063  0.35254  1.0000
  C   C185      1.0  0.74268  0.76080  0.43483  1.0000
  C   C186      1.0  0.77501  0.75810  0.43250  1.0000
  H   H46       1.0  0.78673  0.75714  0.49257  1.0000
  N   N94       1.0  0.72668  0.76348  0.51802  1.0000
  O   O91       1.0  0.73431  0.79333  0.56165  1.0000
  O   O92       1.0  0.73124  0.73411  0.56687  1.0000
  C   C187      1.0  0.79126  0.26064  0.35088  1.0000
  C   C188      1.0  0.77452  0.26058  0.43325  1.0000
  C   C189      1.0  0.74220  0.25789  0.43098  1.0000
  H   H47       1.0  0.73049  0.25682  0.49107  1.0000
  N   N95       1.0  0.79055  0.26304  0.51644  1.0000
  O   O93       1.0  0.78285  0.29270  0.56069  1.0000
  O   O94       1.0  0.78608  0.23347  0.56471  1.0000
  C   C190      1.0  0.22592  0.75658  0.35104  1.0000
  C   C191      1.0  0.24268  0.75662  0.43337  1.0000
  C   C192      1.0  0.27501  0.75932  0.43104  1.0000
  H   H48       1.0  0.28673  0.76041  0.49111  1.0000
  N   N96       1.0  0.22667  0.75410  0.51659  1.0000
  O   O95       1.0  0.23439  0.72441  0.56070  1.0000
  O   O96       1.0  0.23117  0.78363  0.56498  1.0000
