data_image0
_chemical_formula_structural       C2H2C2H2NC4H2CHCNC5H3NC8H5C3H2NC3H4NHC2HC2NC4NC2NC6H8CH2NC12H6C3H3CN2CNC3N2
_chemical_formula_sum              "C66 H42 N14"
_cell_length_a       32.3354
_cell_length_b       32.3343
_cell_length_c       14.5297
_cell_angle_alpha    90
_cell_angle_beta     90
_cell_angle_gamma    120.002

_space_group_name_H-M_alt    "P 1"
_space_group_IT_number       1

loop_
  _space_group_symop_operation_xyz
  'x, y, z'

loop_
  _atom_site_type_symbol
  _atom_site_label
  _atom_site_symmetry_multiplicity
  _atom_site_fract_x
  _atom_site_fract_y
  _atom_site_fract_z
  _atom_site_occupancy
  C   C1        1.0  0.27612  0.65233  0.29988  1.0000
  C   C2        1.0  0.22602  0.62425  0.30935  1.0000
  H   H1        1.0  0.29018  0.67092  0.24021  1.0000
  H   H2        1.0  0.20493  0.62291  0.25559  1.0000
  C   C3        1.0  0.07568  0.54365  0.36059  1.0000
  C   C4        1.0  0.04932  0.52970  0.27774  1.0000
  H   H3        1.0  0.06847  0.54166  0.00286  1.0000
  H   H4        1.0  0.06681  0.53904  0.21584  1.0000
  N   N1        1.0  0.12350  0.57007  0.35494  1.0000
  C   C5        1.0  0.30697  0.65463  0.37106  1.0000
  C   C6        1.0  0.20512  0.59734  0.39033  1.0000
  C   C7        1.0  0.23640  0.60047  0.46186  1.0000
  C   C8        1.0  0.28630  0.62874  0.45263  1.0000
  H   H5        1.0  0.30765  0.62998  0.50574  1.0000
  H   H6        1.0  0.22309  0.58181  0.52186  1.0000
  C   C9        1.0  0.15592  0.56693  0.40104  1.0000
  H   H7        1.0  0.14525  0.54093  0.44751  1.0000
  C   C10       1.0  0.04983  0.53025  0.44461  1.0000
  N   N2        1.0  0.07259  0.54345  0.52735  1.0000
  C   C11       1.0  0.04961  0.53094  0.60942  1.0000
  C   C12       1.0  0.40858  0.76434  0.29989  1.0000
  C   C13       1.0  0.43063  0.81444  0.30938  1.0000
  C   C14       1.0  0.38813  0.63188  0.29988  1.0000
  C   C15       1.0  0.41619  0.60984  0.30937  1.0000
  H   H8        1.0  0.41312  0.75028  0.24022  1.0000
  H   H9        1.0  0.36954  0.62734  0.24021  1.0000
  H   H10       1.0  0.41755  0.59011  0.25558  1.0000
  N   N3        1.0  0.35761  0.68285  0.36128  1.0000
  C   C16       1.0  0.38003  0.73348  0.37106  1.0000
  C   C17       1.0  0.38582  0.66042  0.37106  1.0000
  C   C18       1.0  0.42458  0.83534  0.39033  1.0000
  C   C19       1.0  0.39644  0.80406  0.46186  1.0000
  C   C20       1.0  0.37481  0.75416  0.45263  1.0000
  C   C21       1.0  0.44311  0.61586  0.39033  1.0000
  C   C22       1.0  0.43998  0.64401  0.46186  1.0000
  C   C23       1.0  0.41172  0.66564  0.45263  1.0000
  H   H11       1.0  0.39109  0.81736  0.52188  1.0000
  H   H12       1.0  0.35472  0.73280  0.50577  1.0000
  H   H13       1.0  0.41046  0.68573  0.50577  1.0000
  H   H14       1.0  0.42805  0.89520  0.44754  1.0000
  H   H15       1.0  0.45035  0.83553  0.25559  1.0000
  C   C24       1.0  0.49681  0.54012  0.36059  1.0000
  C   C25       1.0  0.51076  0.52771  0.27774  1.0000
  C   C26       1.0  0.53824  0.50488  0.27802  1.0000
  H   H16       1.0  0.49880  0.53490  0.00286  1.0000
  H   H17       1.0  0.50143  0.53587  0.21584  1.0000
  N   N4        1.0  0.47039  0.56151  0.35494  1.0000
  C   C27       1.0  0.50034  0.96478  0.36059  1.0000
  C   C28       1.0  0.51275  0.99114  0.27775  1.0000
  C   C29       1.0  0.53559  0.04146  0.27802  1.0000
  H   H18       1.0  0.50556  0.97199  0.00286  1.0000
  H   H19       1.0  0.54369  0.05951  0.00338  1.0000
  H   H20       1.0  0.54364  0.05911  0.21631  1.0000
  H   H21       1.0  0.50460  0.97366  0.21584  1.0000
  N   N5        1.0  0.47894  0.91697  0.35494  1.0000
  H   H22       1.0  0.45863  0.64936  0.52188  1.0000
  C   C30       1.0  0.47353  0.59708  0.40104  1.0000
  C   C31       1.0  0.44338  0.88454  0.40105  1.0000
  H   H23       1.0  0.49952  0.61241  0.44752  1.0000
  C   C32       1.0  0.53795  0.50454  0.44490  1.0000
  C   C33       1.0  0.51021  0.52767  0.44461  1.0000
  N   N6        1.0  0.49701  0.53722  0.52735  1.0000
  C   C34       1.0  0.50952  0.52675  0.60942  1.0000
  C   C35       1.0  0.53778  0.50506  0.60972  1.0000
  C   C36       1.0  0.53593  0.04151  0.44490  1.0000
  C   C37       1.0  0.51279  0.99063  0.44461  1.0000
  N   N7        1.0  0.50323  0.96788  0.52736  1.0000
  C   C38       1.0  0.51371  0.99086  0.60943  1.0000
  C   C39       1.0  0.53540  0.04081  0.60973  1.0000
  N   N8        1.0  0.54568  0.06403  0.52791  1.0000
  C   C40       1.0  0.63994  0.26810  0.30158  1.0000
  C   C41       1.0  0.61787  0.21799  0.31089  1.0000
  C   C42       1.0  0.77237  0.37994  0.30158  1.0000
  C   C43       1.0  0.82248  0.40799  0.31088  1.0000
  C   C44       1.0  0.66052  0.40052  0.30156  1.0000
  C   C45       1.0  0.63248  0.42259  0.31087  1.0000
  H   H24       1.0  0.63544  0.28222  0.24195  1.0000
  H   H25       1.0  0.59818  0.19696  0.25702  1.0000
  H   H26       1.0  0.75825  0.36132  0.24195  1.0000
  H   H27       1.0  0.84351  0.40931  0.25702  1.0000
  H   H28       1.0  0.67914  0.40503  0.24194  1.0000
  H   H29       1.0  0.63114  0.44228  0.25700  1.0000
  H   H30       1.0  0.54818  0.49677  0.00337  1.0000
  H   H31       1.0  0.54785  0.49683  0.21630  1.0000
  C   C46       1.0  0.99901  0.50223  0.27802  1.0000
  H   H32       1.0  0.98096  0.49228  0.00338  1.0000
  H   H33       1.0  0.98135  0.49262  0.21631  1.0000
  N   N9        1.0  0.69095  0.34953  0.36322  1.0000
  C   C47       1.0  0.74159  0.37769  0.37285  1.0000
  C   C48       1.0  0.66847  0.29888  0.37285  1.0000
  C   C49       1.0  0.66278  0.37201  0.37285  1.0000
  C   C50       1.0  0.62387  0.19701  0.39175  1.0000
  C   C51       1.0  0.65199  0.22821  0.46340  1.0000
  C   C52       1.0  0.67365  0.27813  0.45435  1.0000
  C   C53       1.0  0.84346  0.43497  0.39175  1.0000
  C   C54       1.0  0.81226  0.43189  0.46339  1.0000
  C   C55       1.0  0.76235  0.40363  0.45435  1.0000
  C   C56       1.0  0.60551  0.41661  0.39175  1.0000
  C   C57       1.0  0.60859  0.38848  0.46338  1.0000
  C   C58       1.0  0.63685  0.36683  0.45435  1.0000
  H   H34       1.0  0.65733  0.21485  0.52334  1.0000
  H   H35       1.0  0.69374  0.29943  0.50753  1.0000
  H   H36       1.0  0.74105  0.40242  0.50752  1.0000
  H   H37       1.0  0.82563  0.45059  0.52334  1.0000
  H   H38       1.0  0.58989  0.38315  0.52334  1.0000
  H   H39       1.0  0.63806  0.34674  0.50753  1.0000
  C   C59       1.0  0.57507  0.43537  0.40222  1.0000
  C   C60       1.0  0.89267  0.46540  0.40223  1.0000
  C   C61       1.0  0.60510  0.14780  0.40223  1.0000
  H   H40       1.0  0.54901  0.42002  0.44857  1.0000
  H   H41       1.0  0.90339  0.49145  0.44860  1.0000
  H   H42       1.0  0.62044  0.13708  0.44859  1.0000
  C   C62       1.0  0.55180  0.49230  0.36114  1.0000
  N   N10       1.0  0.55072  0.49479  0.52791  1.0000
  N   N11       1.0  0.57822  0.47090  0.35594  1.0000
  C   C63       1.0  0.54817  0.06760  0.36115  1.0000
  N   N12       1.0  0.56958  0.11542  0.35594  1.0000
  C   C64       1.0  0.97287  0.48867  0.36114  1.0000
  C   C65       1.0  0.99895  0.50251  0.44490  1.0000
  C   C66       1.0  0.99965  0.50268  0.60972  1.0000
  N   N13       1.0  0.97644  0.48974  0.52791  1.0000
  N   N14       1.0  0.92504  0.46225  0.35594  1.0000
