data_image0
_chemical_formula_structural       C5H2C2HC3HCH2C7HCH2C2NC3NHCH3C2NC3NHCH3CNC3NH2C2NC3NHCH3C2NC3NHCH3C2NC3NHCH3C8HC7HCH4C8HC7HCH4C2HC4H3C2HC5H3C7H3C2HC5H3C2HC5H3C2HC5H3
_chemical_formula_sum              "C126 H66 N12"
_cell_length_a       31.7091
_cell_length_b       31.7091
_cell_length_c       14.8661
_cell_angle_alpha    89.9984
_cell_angle_beta     90.0016
_cell_angle_gamma    120

_space_group_name_H-M_alt    "P 1"
_space_group_IT_number       1

loop_
  _space_group_symop_operation_xyz
  'x, y, z'

loop_
  _atom_site_type_symbol
  _atom_site_label
  _atom_site_symmetry_multiplicity
  _atom_site_fract_x
  _atom_site_fract_y
  _atom_site_fract_z
  _atom_site_occupancy
  C   C1        1.0  0.03351  0.51712  0.34053  1.0000
  C   C2        1.0  0.05974  0.56924  0.34045  1.0000
  C   C3        1.0  0.05965  0.49113  0.34065  1.0000
  C   C4        1.0  0.03303  0.59397  0.34078  1.0000
  C   C5        1.0  0.03282  0.43969  0.34105  1.0000
  H   H1        1.0  0.05053  0.63119  0.34072  1.0000
  H   H2        1.0  0.05023  0.41987  0.34109  1.0000
  C   C6        1.0  0.11159  0.59502  0.33972  1.0000
  C   C7        1.0  0.11150  0.51706  0.34022  1.0000
  H   H3        1.0  0.11564  0.61810  0.16611  1.0000
  C   C8        1.0  0.13624  0.56836  0.33943  1.0000
  C   C9        1.0  0.14227  0.64683  0.33936  1.0000
  C   C10       1.0  0.14892  0.65349  0.16690  1.0000
  H   H4        1.0  0.14221  0.67875  0.12805  1.0000
  C   C11       1.0  0.14201  0.49585  0.34225  1.0000
  H   H5        1.0  0.14930  0.65104  0.48108  1.0000
  H   H6        1.0  0.17368  0.58706  0.33921  1.0000
  C   C12       1.0  0.98124  0.49105  0.34053  1.0000
  C   C13       1.0  0.95509  0.51703  0.34061  1.0000
  C   C14       1.0  0.90323  0.49108  0.34020  1.0000
  C   C15       1.0  0.87851  0.43977  0.33948  1.0000
  C   C16       1.0  0.90317  0.41313  0.33976  1.0000
  C   C17       1.0  0.95502  0.43893  0.34049  1.0000
  C   C18       1.0  0.98192  0.56847  0.34098  1.0000
  H   H7        1.0  0.84107  0.42105  0.33934  1.0000
  C   C19       1.0  0.98172  0.41419  0.34087  1.0000
  H   H8        1.0  0.96451  0.58828  0.34098  1.0000
  H   H9        1.0  0.96422  0.37697  0.34083  1.0000
  C   C20       1.0  0.36406  0.49514  0.33975  1.0000
  C   C21       1.0  0.33806  0.49129  0.25927  1.0000
  N   N1        1.0  0.29315  0.48687  0.26504  1.0000
  C   C22       1.0  0.27021  0.48527  0.34327  1.0000
  C   C23       1.0  0.22559  0.48542  0.34363  1.0000
  C   C24       1.0  0.16383  0.49193  0.26220  1.0000
  N   N2        1.0  0.20421  0.48740  0.26559  1.0000
  H   H10       1.0  0.15207  0.49644  0.20083  1.0000
  C   C25       1.0  0.35745  0.49504  0.16719  1.0000
  H   H11       1.0  0.39284  0.49717  0.16641  1.0000
  H   H12       1.0  0.36113  0.52749  0.13430  1.0000
  H   H13       1.0  0.33219  0.46306  0.12836  1.0000
  C   C26       1.0  0.51578  0.86857  0.33964  1.0000
  C   C27       1.0  0.51962  0.84644  0.25915  1.0000
  N   N3        1.0  0.52404  0.80594  0.26495  1.0000
  C   C28       1.0  0.52565  0.78462  0.34319  1.0000
  C   C29       1.0  0.52548  0.73984  0.34358  1.0000
  C   C30       1.0  0.51898  0.67156  0.26217  1.0000
  N   N4        1.0  0.52352  0.71648  0.26554  1.0000
  H   H14       1.0  0.51447  0.65529  0.20080  1.0000
  C   C31       1.0  0.51586  0.86207  0.16709  1.0000
  H   H15       1.0  0.51372  0.89534  0.16633  1.0000
  H   H16       1.0  0.48341  0.83331  0.13419  1.0000
  H   H17       1.0  0.54784  0.86882  0.12824  1.0000
  C   C32       1.0  0.16453  0.67286  0.25899  1.0000
  N   N5        1.0  0.20503  0.71776  0.26486  1.0000
  C   C33       1.0  0.22631  0.74065  0.34316  1.0000
  C   C34       1.0  0.27108  0.78527  0.34364  1.0000
  C   C35       1.0  0.33941  0.84709  0.26242  1.0000
  N   N6        1.0  0.29449  0.80670  0.26567  1.0000
  H   H18       1.0  0.35569  0.85889  0.20107  1.0000
  H   H19       1.0  0.17769  0.64980  0.13405  1.0000
  C   C36       1.0  0.64960  0.51092  0.33936  1.0000
  C   C37       1.0  0.67572  0.51495  0.25898  1.0000
  N   N7        1.0  0.72078  0.51972  0.26484  1.0000
  C   C38       1.0  0.74373  0.52145  0.34312  1.0000
  C   C39       1.0  0.78859  0.52177  0.34360  1.0000
  C   C40       1.0  0.85083  0.51606  0.26226  1.0000
  N   N8        1.0  0.81020  0.52015  0.26559  1.0000
  H   H20       1.0  0.86273  0.51173  0.20089  1.0000
  C   C41       1.0  0.65633  0.51113  0.16690  1.0000
  H   H21       1.0  0.62078  0.50867  0.16611  1.0000
  H   H22       1.0  0.65295  0.47884  0.13388  1.0000
  H   H23       1.0  0.68141  0.54325  0.12819  1.0000
  C   C42       1.0  0.50003  0.13835  0.33934  1.0000
  C   C43       1.0  0.49608  0.16051  0.25899  1.0000
  N   N9        1.0  0.49128  0.20078  0.26489  1.0000
  C   C44       1.0  0.48952  0.22195  0.34320  1.0000
  C   C45       1.0  0.48918  0.26649  0.34374  1.0000
  C   C46       1.0  0.49495  0.33451  0.26253  1.0000
  N   N10       1.0  0.49086  0.28978  0.26577  1.0000
  H   H24       1.0  0.49932  0.35076  0.20118  1.0000
  C   C47       1.0  0.49986  0.14493  0.16689  1.0000
  H   H25       1.0  0.50230  0.11183  0.16608  1.0000
  H   H26       1.0  0.53214  0.17384  0.13386  1.0000
  H   H27       1.0  0.46774  0.13791  0.12821  1.0000
  C   C48       1.0  0.87252  0.36132  0.33967  1.0000
  C   C49       1.0  0.85046  0.33525  0.25921  1.0000
  N   N11       1.0  0.81020  0.29016  0.26505  1.0000
  C   C50       1.0  0.78901  0.26717  0.34331  1.0000
  C   C51       1.0  0.74448  0.22230  0.34376  1.0000
  C   C52       1.0  0.67647  0.16011  0.26245  1.0000
  N   N12       1.0  0.72119  0.20076  0.26577  1.0000
  H   H28       1.0  0.66018  0.14831  0.20111  1.0000
  C   C53       1.0  0.86604  0.35462  0.16713  1.0000
  H   H29       1.0  0.89913  0.39017  0.16632  1.0000
  H   H30       1.0  0.83713  0.35799  0.13407  1.0000
  H   H31       1.0  0.87308  0.32953  0.12845  1.0000
  C   C54       1.0  0.49378  0.51606  0.34056  1.0000
  C   C55       1.0  0.44166  0.49018  0.34060  1.0000
  C   C56       1.0  0.41587  0.51624  0.33986  1.0000
  C   C57       1.0  0.44253  0.56755  0.33955  1.0000
  C   C58       1.0  0.49384  0.59411  0.34022  1.0000
  C   C59       1.0  0.51977  0.56819  0.34059  1.0000
  C   C60       1.0  0.41693  0.43874  0.34104  1.0000
  C   C61       1.0  0.57121  0.59281  0.34087  1.0000
  H   H32       1.0  0.42384  0.58630  0.33938  1.0000
  C   C62       1.0  0.51986  0.48987  0.34055  1.0000
  C   C63       1.0  0.49388  0.43774  0.34074  1.0000
  C   C64       1.0  0.51984  0.41184  0.34031  1.0000
  C   C65       1.0  0.57114  0.43843  0.33953  1.0000
  C   C66       1.0  0.59779  0.48973  0.33971  1.0000
  C   C67       1.0  0.57197  0.51576  0.34041  1.0000
  C   C68       1.0  0.44244  0.41313  0.34123  1.0000
  H   H33       1.0  0.58987  0.41971  0.33936  1.0000
  C   C69       1.0  0.59671  0.56721  0.34068  1.0000
  H   H34       1.0  0.42263  0.37591  0.34131  1.0000
  H   H35       1.0  0.37971  0.41901  0.34105  1.0000
  H   H36       1.0  0.63393  0.58694  0.34055  1.0000
  H   H37       1.0  0.59102  0.63003  0.34084  1.0000
  C   C70       1.0  0.49486  0.97737  0.34055  1.0000
  C   C71       1.0  0.52074  0.95113  0.34053  1.0000
  C   C72       1.0  0.49468  0.89928  0.33983  1.0000
  C   C73       1.0  0.44338  0.87464  0.33960  1.0000
  C   C74       1.0  0.41682  0.89939  0.34031  1.0000
  C   C75       1.0  0.44273  0.95124  0.34065  1.0000
  C   C76       1.0  0.57218  0.97784  0.34090  1.0000
  C   C77       1.0  0.41812  0.97806  0.34098  1.0000
  H   H38       1.0  0.42462  0.83720  0.33948  1.0000
  C   C78       1.0  0.52106  0.02964  0.34052  1.0000
  C   C79       1.0  0.57319  0.05578  0.34066  1.0000
  C   C80       1.0  0.59909  0.10764  0.34025  1.0000
  C   C81       1.0  0.57251  0.13237  0.33944  1.0000
  C   C82       1.0  0.52121  0.10772  0.33967  1.0000
  C   C83       1.0  0.49517  0.05587  0.34041  1.0000
  C   C84       1.0  0.59780  0.02895  0.34109  1.0000
  H   H39       1.0  0.59124  0.16981  0.33926  1.0000
  C   C85       1.0  0.44373  0.02917  0.34075  1.0000
  H   H40       1.0  0.63502  0.04636  0.34113  1.0000
  H   H41       1.0  0.59191  0.96034  0.34087  1.0000
  H   H42       1.0  0.42400  0.04666  0.34066  1.0000
  H   H43       1.0  0.38090  0.96066  0.34100  1.0000
  C   C86       1.0  0.29408  0.48769  0.42555  1.0000
  C   C87       1.0  0.34081  0.49238  0.42261  1.0000
  H   H44       1.0  0.35978  0.49796  0.48141  1.0000
  C   C88       1.0  0.16284  0.49324  0.42473  1.0000
  C   C89       1.0  0.20467  0.48810  0.42654  1.0000
  C   C90       1.0  0.22797  0.48904  0.50808  1.0000
  C   C91       1.0  0.27222  0.48881  0.50759  1.0000
  H   H45       1.0  0.21386  0.49171  0.56832  1.0000
  H   H46       1.0  0.28923  0.49133  0.56749  1.0000
  H   H47       1.0  0.14983  0.49913  0.48369  1.0000
  C   C92       1.0  0.52322  0.80606  0.42547  1.0000
  C   C93       1.0  0.51854  0.84810  0.42253  1.0000
  H   H48       1.0  0.51297  0.86151  0.48132  1.0000
  C   C94       1.0  0.51505  0.64582  0.34223  1.0000
  C   C95       1.0  0.51766  0.66927  0.42470  1.0000
  C   C96       1.0  0.52280  0.71624  0.42649  1.0000
  C   C97       1.0  0.52187  0.73861  0.50802  1.0000
  C   C98       1.0  0.52213  0.78310  0.50753  1.0000
  H   H49       1.0  0.51918  0.72182  0.56827  1.0000
  H   H50       1.0  0.51956  0.79756  0.56742  1.0000
  H   H51       1.0  0.51177  0.65038  0.48367  1.0000
  C   C99       1.0  0.20483  0.71673  0.42537  1.0000
  C   C100      1.0  0.16284  0.66997  0.42229  1.0000
  C   C101      1.0  0.36512  0.86890  0.34254  1.0000
  C   C102      1.0  0.34162  0.84792  0.42489  1.0000
  C   C103      1.0  0.29462  0.80614  0.42662  1.0000
  C   C104      1.0  0.27220  0.78282  0.50810  1.0000
  C   C105      1.0  0.22773  0.73857  0.50748  1.0000
  H   H52       1.0  0.28897  0.79685  0.56837  1.0000
  H   H53       1.0  0.21325  0.72148  0.56733  1.0000
  H   H54       1.0  0.36043  0.86100  0.48391  1.0000
  C   C106      1.0  0.71970  0.51872  0.42535  1.0000
  C   C107      1.0  0.67278  0.51358  0.42228  1.0000
  H   H55       1.0  0.65381  0.50803  0.48108  1.0000
  C   C108      1.0  0.87266  0.51222  0.34236  1.0000
  C   C109      1.0  0.85160  0.51446  0.42480  1.0000
  C   C110      1.0  0.80957  0.51925  0.42656  1.0000
  C   C111      1.0  0.78607  0.51798  0.50803  1.0000
  C   C112      1.0  0.74162  0.51779  0.50745  1.0000
  H   H56       1.0  0.80021  0.51540  0.56831  1.0000
  H   H57       1.0  0.72446  0.51500  0.56730  1.0000
  H   H58       1.0  0.86473  0.50874  0.48377  1.0000
  C   C113      1.0  0.49221  0.20061  0.42540  1.0000
  C   C114      1.0  0.49730  0.15881  0.42230  1.0000
  H   H59       1.0  0.50289  0.14538  0.48105  1.0000
  C   C115      1.0  0.49870  0.36014  0.34269  1.0000
  C   C116      1.0  0.49637  0.33673  0.42504  1.0000
  C   C117      1.0  0.49164  0.28993  0.42672  1.0000
  C   C118      1.0  0.49289  0.26767  0.50817  1.0000
  C   C119      1.0  0.49314  0.22343  0.50752  1.0000
  H   H60       1.0  0.49539  0.28433  0.56848  1.0000
  H   H61       1.0  0.49581  0.20899  0.56737  1.0000
  H   H62       1.0  0.50213  0.35556  0.48404  1.0000
  C   C120      1.0  0.81034  0.29114  0.42557  1.0000
  C   C121      1.0  0.85213  0.33804  0.42257  1.0000
  H   H63       1.0  0.86554  0.35704  0.48133  1.0000
  C   C122      1.0  0.65079  0.13818  0.34253  1.0000
  C   C123      1.0  0.67421  0.15921  0.42492  1.0000
  C   C124      1.0  0.72102  0.20126  0.42670  1.0000
  C   C125      1.0  0.74327  0.22470  0.50820  1.0000
  C   C126      1.0  0.78751  0.26918  0.50765  1.0000
  H   H64       1.0  0.72659  0.21050  0.56848  1.0000
  H   H65       1.0  0.80194  0.28625  0.56753  1.0000
  H   H66       1.0  0.65535  0.14609  0.48388  1.0000
