data_image0
_chemical_formula_structural       C8H8C4HC6H7C16H4C2NCHNHC2NC3HC4NC3HC8H8C4HC6H7C16H4C2NCHNHC2NC3HC4NC3HC8H8C4HC6H7C16H4C2NCHNHC2NC3HC4NC3HC8H8C4HC6H7C16H4C2NCHNHC2NC3HC4NC3H
_chemical_formula_sum              "C196 H96 N16"
_cell_length_a       33.9459
_cell_length_b       33.946
_cell_length_c       15.1061
_cell_angle_alpha    90
_cell_angle_beta     90
_cell_angle_gamma    89.9983

_space_group_name_H-M_alt    "P 1"
_space_group_IT_number       1

loop_
  _space_group_symop_operation_xyz
  'x, y, z'

loop_
  _atom_site_type_symbol
  _atom_site_label
  _atom_site_symmetry_multiplicity
  _atom_site_fract_x
  _atom_site_fract_y
  _atom_site_fract_z
  _atom_site_occupancy
  C   C1        1.0  0.99730  0.47644  0.28530  1.0000
  C   C2        1.0  0.99492  0.01688  0.28563  1.0000
  C   C3        1.0  0.99359  0.09899  0.31582  1.0000
  C   C4        1.0  0.98432  0.08237  0.23153  1.0000
  C   C5        1.0  0.98694  0.04203  0.21482  1.0000
  C   C6        1.0  0.00463  0.45154  0.21377  1.0000
  C   C7        1.0  0.00732  0.41114  0.22956  1.0000
  C   C8        1.0  0.99875  0.39407  0.31381  1.0000
  H   H1        1.0  0.09967  0.01370  0.02274  1.0000
  H   H2        1.0  0.03181  0.00936  0.04846  1.0000
  H   H3        1.0  0.46066  0.48371  0.04854  1.0000
  H   H4        1.0  0.39274  0.47959  0.02248  1.0000
  H   H5        1.0  0.97584  0.09932  0.17909  1.0000
  H   H6        1.0  0.98120  0.03139  0.15310  1.0000
  H   H7        1.0  0.01014  0.46242  0.15219  1.0000
  H   H8        1.0  0.01579  0.39466  0.17646  1.0000
  C   C9        1.0  0.49554  0.35157  0.32161  1.0000
  C   C10       1.0  0.49604  0.26729  0.32813  1.0000
  C   C11       1.0  0.49330  0.28709  0.24565  1.0000
  C   C12       1.0  0.48972  0.32819  0.24485  1.0000
  H   H9        1.0  0.48381  0.34085  0.18506  1.0000
  C   C13       1.0  0.99761  0.22550  0.32867  1.0000
  C   C14       1.0  0.99747  0.14133  0.32379  1.0000
  C   C15       1.0  0.00562  0.16423  0.24743  1.0000
  C   C16       1.0  0.00234  0.20535  0.24704  1.0000
  C   C17       1.0  0.00221  0.22578  0.16587  1.0000
  C   C18       1.0  0.49546  0.26633  0.16505  1.0000
  H   H10       1.0  0.00461  0.21117  0.10678  1.0000
  H   H11       1.0  0.49445  0.28069  0.10545  1.0000
  H   H12       1.0  0.01255  0.15107  0.18866  1.0000
  H   H13       1.0  0.15653  0.48744  0.01042  1.0000
  H   H14       1.0  0.28179  0.49393  0.31122  1.0000
  H   H15       1.0  0.21085  0.49687  0.31128  1.0000
  H   H16       1.0  0.33658  0.50786  0.00933  1.0000
  C   C19       1.0  0.99594  0.46229  0.37178  1.0000
  C   C20       1.0  0.99664  0.03068  0.37241  1.0000
  C   C21       1.0  0.99762  0.07192  0.38766  1.0000
  C   C22       1.0  0.99501  0.42098  0.38615  1.0000
  C   C23       1.0  0.03056  0.99593  0.49561  1.0000
  C   C24       1.0  0.01670  0.99720  0.58238  1.0000
  C   C25       1.0  0.47598  0.49527  0.58231  1.0000
  C   C26       1.0  0.46218  0.49668  0.49552  1.0000
  C   C27       1.0  0.45027  0.48884  0.65301  1.0000
  C   C28       1.0  0.40978  0.48683  0.63605  1.0000
  C   C29       1.0  0.39332  0.49389  0.55046  1.0000
  C   C30       1.0  0.42099  0.49731  0.47949  1.0000
  C   C31       1.0  0.07177  0.99556  0.47976  1.0000
  C   C32       1.0  0.09941  0.99915  0.55081  1.0000
  C   C33       1.0  0.08279  0.00620  0.63628  1.0000
  C   C34       1.0  0.04230  0.00394  0.65311  1.0000
  H   H17       1.0  0.41179  0.50050  0.41562  1.0000
  H   H18       1.0  0.08100  0.99258  0.41588  1.0000
  H   H19       1.0  0.00173  0.08168  0.45090  1.0000
  H   H20       1.0  0.99137  0.41109  0.44940  1.0000
  C   C35       1.0  0.99638  0.99637  0.43388  1.0000
  C   C36       1.0  0.49807  0.33000  0.40203  1.0000
  N   N1        1.0  0.49768  0.28976  0.40278  1.0000
  C   C37       1.0  0.99322  0.16311  0.40347  1.0000
  H   H21       1.0  0.50134  0.34401  0.46127  1.0000
  N   N2        1.0  0.99388  0.20336  0.40346  1.0000
  H   H22       1.0  0.98811  0.14924  0.46226  1.0000
  C   C38       1.0  0.14204  0.49701  0.53990  1.0000
  C   C39       1.0  0.16696  0.49218  0.61489  1.0000
  N   N3        1.0  0.20647  0.49311  0.60861  1.0000
  C   C40       1.0  0.22572  0.49637  0.53086  1.0000
  C   C41       1.0  0.20405  0.49715  0.45090  1.0000
  C   C42       1.0  0.16224  0.49844  0.45696  1.0000
  H   H23       1.0  0.14665  0.50080  0.39945  1.0000
  C   C43       1.0  0.26713  0.49735  0.53074  1.0000
  C   C44       1.0  0.32598  0.50239  0.61423  1.0000
  C   C45       1.0  0.35075  0.49637  0.53946  1.0000
  C   C46       1.0  0.33052  0.49402  0.45670  1.0000
  N   N4        1.0  0.28645  0.50155  0.60819  1.0000
  C   C47       1.0  0.28871  0.49546  0.45075  1.0000
  C   C48       1.0  0.26719  0.49486  0.37043  1.0000
  C   C49       1.0  0.22550  0.49676  0.37047  1.0000
  H   H24       1.0  0.34608  0.49073  0.39937  1.0000
  C   C50       1.0  0.99730  0.97643  0.28530  1.0000
  C   C51       1.0  0.99492  0.51688  0.28563  1.0000
  C   C52       1.0  0.99359  0.59899  0.31582  1.0000
  C   C53       1.0  0.98432  0.58237  0.23153  1.0000
  C   C54       1.0  0.98694  0.54203  0.21482  1.0000
  C   C55       1.0  0.00463  0.95154  0.21377  1.0000
  C   C56       1.0  0.00732  0.91114  0.22956  1.0000
  C   C57       1.0  0.99875  0.89407  0.31381  1.0000
  H   H25       1.0  0.09967  0.51369  0.02274  1.0000
  H   H26       1.0  0.03181  0.50936  0.04846  1.0000
  H   H27       1.0  0.46066  0.98371  0.04854  1.0000
  H   H28       1.0  0.39274  0.97959  0.02248  1.0000
  H   H29       1.0  0.97584  0.59931  0.17909  1.0000
  H   H30       1.0  0.98120  0.53139  0.15310  1.0000
  H   H31       1.0  0.01014  0.96242  0.15219  1.0000
  H   H32       1.0  0.01579  0.89466  0.17646  1.0000
  C   C58       1.0  0.49554  0.85157  0.32161  1.0000
  C   C59       1.0  0.49604  0.76728  0.32813  1.0000
  C   C60       1.0  0.49330  0.78709  0.24565  1.0000
  C   C61       1.0  0.48972  0.82819  0.24485  1.0000
  H   H33       1.0  0.48381  0.84085  0.18506  1.0000
  C   C62       1.0  0.99761  0.72550  0.32867  1.0000
  C   C63       1.0  0.99747  0.64133  0.32379  1.0000
  C   C64       1.0  0.00562  0.66423  0.24743  1.0000
  C   C65       1.0  0.00234  0.70535  0.24704  1.0000
  C   C66       1.0  0.00221  0.72578  0.16587  1.0000
  C   C67       1.0  0.49546  0.76632  0.16505  1.0000
  H   H34       1.0  0.00461  0.71117  0.10678  1.0000
  H   H35       1.0  0.49445  0.78068  0.10545  1.0000
  H   H36       1.0  0.01255  0.65107  0.18866  1.0000
  H   H37       1.0  0.15653  0.98744  0.01042  1.0000
  H   H38       1.0  0.28179  0.99393  0.31122  1.0000
  H   H39       1.0  0.21085  0.99687  0.31128  1.0000
  H   H40       1.0  0.33658  0.00786  0.00933  1.0000
  C   C68       1.0  0.99594  0.96229  0.37178  1.0000
  C   C69       1.0  0.99664  0.53068  0.37241  1.0000
  C   C70       1.0  0.99762  0.57191  0.38766  1.0000
  C   C71       1.0  0.99501  0.92098  0.38615  1.0000
  C   C72       1.0  0.03056  0.49593  0.49561  1.0000
  C   C73       1.0  0.01670  0.49721  0.58238  1.0000
  C   C74       1.0  0.47598  0.99527  0.58231  1.0000
  C   C75       1.0  0.46218  0.99668  0.49552  1.0000
  C   C76       1.0  0.45027  0.98884  0.65301  1.0000
  C   C77       1.0  0.40978  0.98682  0.63605  1.0000
  C   C78       1.0  0.39332  0.99389  0.55046  1.0000
  C   C79       1.0  0.42099  0.99731  0.47949  1.0000
  C   C80       1.0  0.07177  0.49556  0.47976  1.0000
  C   C81       1.0  0.09941  0.49915  0.55081  1.0000
  C   C82       1.0  0.08279  0.50620  0.63628  1.0000
  C   C83       1.0  0.04230  0.50394  0.65311  1.0000
  H   H41       1.0  0.41179  0.00050  0.41562  1.0000
  H   H42       1.0  0.08100  0.49258  0.41588  1.0000
  H   H43       1.0  0.00173  0.58168  0.45090  1.0000
  H   H44       1.0  0.99138  0.91109  0.44940  1.0000
  C   C84       1.0  0.99638  0.49637  0.43388  1.0000
  C   C85       1.0  0.49807  0.83000  0.40203  1.0000
  N   N5        1.0  0.49768  0.78975  0.40278  1.0000
  C   C86       1.0  0.99322  0.66311  0.40347  1.0000
  H   H45       1.0  0.50134  0.84401  0.46127  1.0000
  N   N6        1.0  0.99388  0.70336  0.40346  1.0000
  H   H46       1.0  0.98811  0.64924  0.46226  1.0000
  C   C87       1.0  0.14204  0.99702  0.53990  1.0000
  C   C88       1.0  0.16696  0.99218  0.61489  1.0000
  N   N7        1.0  0.20647  0.99311  0.60861  1.0000
  C   C89       1.0  0.22572  0.99637  0.53086  1.0000
  C   C90       1.0  0.20405  0.99715  0.45090  1.0000
  C   C91       1.0  0.16224  0.99844  0.45696  1.0000
  H   H47       1.0  0.14665  0.00080  0.39945  1.0000
  C   C92       1.0  0.26713  0.99735  0.53074  1.0000
  C   C93       1.0  0.32598  0.00239  0.61423  1.0000
  C   C94       1.0  0.35075  0.99637  0.53946  1.0000
  C   C95       1.0  0.33052  0.99402  0.45670  1.0000
  N   N8        1.0  0.28645  0.00155  0.60819  1.0000
  C   C96       1.0  0.28871  0.99547  0.45075  1.0000
  C   C97       1.0  0.26719  0.99486  0.37043  1.0000
  C   C98       1.0  0.22550  0.99676  0.37047  1.0000
  H   H48       1.0  0.34608  0.99072  0.39937  1.0000
  C   C99       1.0  0.49730  0.47644  0.28530  1.0000
  C   C100      1.0  0.49492  0.01688  0.28563  1.0000
  C   C101      1.0  0.49359  0.09899  0.31582  1.0000
  C   C102      1.0  0.48432  0.08237  0.23153  1.0000
  C   C103      1.0  0.48694  0.04203  0.21482  1.0000
  C   C104      1.0  0.50463  0.45154  0.21377  1.0000
  C   C105      1.0  0.50732  0.41114  0.22956  1.0000
  C   C106      1.0  0.49875  0.39407  0.31381  1.0000
  H   H49       1.0  0.59967  0.01370  0.02274  1.0000
  H   H50       1.0  0.53181  0.00936  0.04846  1.0000
  H   H51       1.0  0.96065  0.48371  0.04854  1.0000
  H   H52       1.0  0.89274  0.47959  0.02248  1.0000
  H   H53       1.0  0.47584  0.09932  0.17909  1.0000
  H   H54       1.0  0.48120  0.03139  0.15310  1.0000
  H   H55       1.0  0.51014  0.46242  0.15219  1.0000
  H   H56       1.0  0.51579  0.39466  0.17646  1.0000
  C   C107      1.0  0.99554  0.35157  0.32161  1.0000
  C   C108      1.0  0.99604  0.26729  0.32813  1.0000
  C   C109      1.0  0.99330  0.28709  0.24565  1.0000
  C   C110      1.0  0.98971  0.32819  0.24485  1.0000
  H   H57       1.0  0.98381  0.34085  0.18506  1.0000
  C   C111      1.0  0.49761  0.22550  0.32867  1.0000
  C   C112      1.0  0.49747  0.14133  0.32379  1.0000
  C   C113      1.0  0.50562  0.16423  0.24743  1.0000
  C   C114      1.0  0.50234  0.20535  0.24704  1.0000
  C   C115      1.0  0.50221  0.22578  0.16587  1.0000
  C   C116      1.0  0.99547  0.26633  0.16505  1.0000
  H   H58       1.0  0.50461  0.21117  0.10678  1.0000
  H   H59       1.0  0.99445  0.28069  0.10545  1.0000
  H   H60       1.0  0.51255  0.15107  0.18866  1.0000
  H   H61       1.0  0.65653  0.48744  0.01042  1.0000
  H   H62       1.0  0.78179  0.49393  0.31122  1.0000
  H   H63       1.0  0.71085  0.49687  0.31128  1.0000
  H   H64       1.0  0.83658  0.50786  0.00933  1.0000
  C   C117      1.0  0.49594  0.46229  0.37178  1.0000
  C   C118      1.0  0.49664  0.03068  0.37241  1.0000
  C   C119      1.0  0.49762  0.07192  0.38766  1.0000
  C   C120      1.0  0.49501  0.42098  0.38615  1.0000
  C   C121      1.0  0.53056  0.99593  0.49561  1.0000
  C   C122      1.0  0.51670  0.99720  0.58238  1.0000
  C   C123      1.0  0.97598  0.49527  0.58231  1.0000
  C   C124      1.0  0.96218  0.49668  0.49552  1.0000
  C   C125      1.0  0.95027  0.48884  0.65301  1.0000
  C   C126      1.0  0.90978  0.48683  0.63605  1.0000
  C   C127      1.0  0.89332  0.49389  0.55046  1.0000
  C   C128      1.0  0.92099  0.49731  0.47949  1.0000
  C   C129      1.0  0.57177  0.99556  0.47976  1.0000
  C   C130      1.0  0.59941  0.99915  0.55081  1.0000
  C   C131      1.0  0.58279  0.00620  0.63628  1.0000
  C   C132      1.0  0.54230  0.00394  0.65311  1.0000
  H   H65       1.0  0.91179  0.50050  0.41562  1.0000
  H   H66       1.0  0.58100  0.99258  0.41588  1.0000
  H   H67       1.0  0.50173  0.08168  0.45090  1.0000
  H   H68       1.0  0.49138  0.41109  0.44940  1.0000
  C   C133      1.0  0.49638  0.99637  0.43388  1.0000
  C   C134      1.0  0.99807  0.33000  0.40203  1.0000
  N   N9        1.0  0.99768  0.28976  0.40278  1.0000
  C   C135      1.0  0.49322  0.16311  0.40347  1.0000
  H   H69       1.0  0.00134  0.34401  0.46127  1.0000
  N   N10       1.0  0.49388  0.20336  0.40346  1.0000
  H   H70       1.0  0.48811  0.14924  0.46226  1.0000
  C   C136      1.0  0.64204  0.49701  0.53990  1.0000
  C   C137      1.0  0.66696  0.49218  0.61489  1.0000
  N   N11       1.0  0.70647  0.49311  0.60861  1.0000
  C   C138      1.0  0.72572  0.49637  0.53086  1.0000
  C   C139      1.0  0.70405  0.49715  0.45090  1.0000
  C   C140      1.0  0.66224  0.49844  0.45696  1.0000
  H   H71       1.0  0.64665  0.50080  0.39945  1.0000
  C   C141      1.0  0.76713  0.49735  0.53074  1.0000
  C   C142      1.0  0.82598  0.50239  0.61423  1.0000
  C   C143      1.0  0.85075  0.49637  0.53946  1.0000
  C   C144      1.0  0.83052  0.49402  0.45670  1.0000
  N   N12       1.0  0.78645  0.50155  0.60819  1.0000
  C   C145      1.0  0.78872  0.49546  0.45075  1.0000
  C   C146      1.0  0.76719  0.49486  0.37043  1.0000
  C   C147      1.0  0.72550  0.49676  0.37047  1.0000
  H   H72       1.0  0.84608  0.49073  0.39937  1.0000
  C   C148      1.0  0.49730  0.97643  0.28530  1.0000
  C   C149      1.0  0.49492  0.51688  0.28563  1.0000
  C   C150      1.0  0.49359  0.59899  0.31582  1.0000
  C   C151      1.0  0.48432  0.58237  0.23153  1.0000
  C   C152      1.0  0.48694  0.54203  0.21482  1.0000
  C   C153      1.0  0.50463  0.95154  0.21377  1.0000
  C   C154      1.0  0.50732  0.91114  0.22956  1.0000
  C   C155      1.0  0.49875  0.89407  0.31381  1.0000
  H   H73       1.0  0.59967  0.51369  0.02274  1.0000
  H   H74       1.0  0.53181  0.50936  0.04846  1.0000
  H   H75       1.0  0.96065  0.98371  0.04854  1.0000
  H   H76       1.0  0.89274  0.97959  0.02248  1.0000
  H   H77       1.0  0.47584  0.59931  0.17909  1.0000
  H   H78       1.0  0.48120  0.53139  0.15310  1.0000
  H   H79       1.0  0.51014  0.96242  0.15219  1.0000
  H   H80       1.0  0.51579  0.89466  0.17646  1.0000
  C   C156      1.0  0.99554  0.85157  0.32161  1.0000
  C   C157      1.0  0.99604  0.76728  0.32813  1.0000
  C   C158      1.0  0.99330  0.78709  0.24565  1.0000
  C   C159      1.0  0.98971  0.82819  0.24485  1.0000
  H   H81       1.0  0.98381  0.84085  0.18506  1.0000
  C   C160      1.0  0.49761  0.72550  0.32867  1.0000
  C   C161      1.0  0.49747  0.64133  0.32379  1.0000
  C   C162      1.0  0.50562  0.66423  0.24743  1.0000
  C   C163      1.0  0.50234  0.70535  0.24704  1.0000
  C   C164      1.0  0.50221  0.72578  0.16587  1.0000
  C   C165      1.0  0.99547  0.76632  0.16505  1.0000
  H   H82       1.0  0.50461  0.71117  0.10678  1.0000
  H   H83       1.0  0.99445  0.78068  0.10545  1.0000
  H   H84       1.0  0.51255  0.65107  0.18866  1.0000
  H   H85       1.0  0.65653  0.98744  0.01042  1.0000
  H   H86       1.0  0.78179  0.99393  0.31122  1.0000
  H   H87       1.0  0.71085  0.99687  0.31128  1.0000
  H   H88       1.0  0.83658  0.00786  0.00933  1.0000
  C   C166      1.0  0.49594  0.96229  0.37178  1.0000
  C   C167      1.0  0.49664  0.53068  0.37241  1.0000
  C   C168      1.0  0.49762  0.57191  0.38766  1.0000
  C   C169      1.0  0.49501  0.92098  0.38615  1.0000
  C   C170      1.0  0.53056  0.49593  0.49561  1.0000
  C   C171      1.0  0.51670  0.49721  0.58238  1.0000
  C   C172      1.0  0.97598  0.99527  0.58231  1.0000
  C   C173      1.0  0.96218  0.99668  0.49552  1.0000
  C   C174      1.0  0.95027  0.98884  0.65301  1.0000
  C   C175      1.0  0.90978  0.98682  0.63605  1.0000
  C   C176      1.0  0.89332  0.99389  0.55046  1.0000
  C   C177      1.0  0.92099  0.99731  0.47949  1.0000
  C   C178      1.0  0.57177  0.49556  0.47976  1.0000
  C   C179      1.0  0.59941  0.49915  0.55081  1.0000
  C   C180      1.0  0.58279  0.50620  0.63628  1.0000
  C   C181      1.0  0.54230  0.50394  0.65311  1.0000
  H   H89       1.0  0.91179  0.00050  0.41562  1.0000
  H   H90       1.0  0.58100  0.49258  0.41588  1.0000
  H   H91       1.0  0.50173  0.58168  0.45090  1.0000
  H   H92       1.0  0.49138  0.91109  0.44940  1.0000
  C   C182      1.0  0.49638  0.49637  0.43388  1.0000
  C   C183      1.0  0.99807  0.83000  0.40203  1.0000
  N   N13       1.0  0.99768  0.78975  0.40278  1.0000
  C   C184      1.0  0.49322  0.66311  0.40347  1.0000
  H   H93       1.0  0.00134  0.84401  0.46127  1.0000
  N   N14       1.0  0.49388  0.70336  0.40346  1.0000
  H   H94       1.0  0.48811  0.64924  0.46226  1.0000
  C   C185      1.0  0.64204  0.99702  0.53990  1.0000
  C   C186      1.0  0.66696  0.99218  0.61489  1.0000
  N   N15       1.0  0.70647  0.99311  0.60861  1.0000
  C   C187      1.0  0.72572  0.99637  0.53086  1.0000
  C   C188      1.0  0.70405  0.99715  0.45090  1.0000
  C   C189      1.0  0.66224  0.99844  0.45696  1.0000
  H   H95       1.0  0.64665  0.00080  0.39945  1.0000
  C   C190      1.0  0.76713  0.99735  0.53074  1.0000
  C   C191      1.0  0.82598  0.00239  0.61423  1.0000
  C   C192      1.0  0.85075  0.99637  0.53946  1.0000
  C   C193      1.0  0.83052  0.99402  0.45670  1.0000
  N   N16       1.0  0.78645  0.00155  0.60819  1.0000
  C   C194      1.0  0.78872  0.99547  0.45075  1.0000
  C   C195      1.0  0.76719  0.99486  0.37043  1.0000
  C   C196      1.0  0.72550  0.99676  0.37047  1.0000
  H   H96       1.0  0.84608  0.99072  0.39937  1.0000
