data_image0
_chemical_formula_structural       C5H2C3N2CH2C8H4NC3NOCHCHC3NOCHCHC3NOCHCHC3NOCHCHC3NOCHCHC3NOCHCHNC8HC7HCH4N4C8HC7HCH4N4C3NOCHC3NOCHCHC3NOC2HC3NOCHCHC3NOCHCHC3NOCHCH
_chemical_formula_sum              "C108 H42 N24 O12"
_cell_length_a       32.4124
_cell_length_b       32.4124
_cell_length_c       14.8581
_cell_angle_alpha    89.9996
_cell_angle_beta     90.0004
_cell_angle_gamma    120

_space_group_name_H-M_alt    "P 1"
_space_group_IT_number       1

loop_
  _space_group_symop_operation_xyz
  'x, y, z'

loop_
  _atom_site_type_symbol
  _atom_site_label
  _atom_site_symmetry_multiplicity
  _atom_site_fract_x
  _atom_site_fract_y
  _atom_site_fract_z
  _atom_site_occupancy
  C   C1        1.0  0.04431  0.53037  0.35759  1.0000
  C   C2        1.0  0.06690  0.50216  0.35751  1.0000
  C   C3        1.0  0.07270  0.58129  0.35543  1.0000
  C   C4        1.0  0.03837  0.45206  0.35862  1.0000
  C   C5        1.0  0.04919  0.60810  0.35676  1.0000
  H   H1        1.0  0.05358  0.43098  0.35779  1.0000
  H   H2        1.0  0.06816  0.64455  0.35517  1.0000
  C   C6        1.0  0.11725  0.52477  0.35396  1.0000
  C   C7        1.0  0.12322  0.60402  0.34826  1.0000
  C   C8        1.0  0.14397  0.57466  0.34865  1.0000
  N   N1        1.0  0.15134  0.65260  0.34243  1.0000
  N   N2        1.0  0.14364  0.50299  0.35597  1.0000
  C   C9        1.0  0.15994  0.47205  0.36189  1.0000
  H   H3        1.0  0.13711  0.43857  0.38543  1.0000
  H   H4        1.0  0.15920  0.79891  0.46956  1.0000
  C   C10       1.0  0.99336  0.50749  0.35755  1.0000
  C   C11       1.0  0.96498  0.45657  0.35540  1.0000
  C   C12       1.0  0.91446  0.43385  0.34814  1.0000
  C   C13       1.0  0.89372  0.46321  0.34838  1.0000
  C   C14       1.0  0.92043  0.51309  0.35376  1.0000
  C   C15       1.0  0.97078  0.53570  0.35739  1.0000
  C   C16       1.0  0.98850  0.42977  0.35680  1.0000
  C   C17       1.0  0.99931  0.58580  0.35844  1.0000
  H   H5        1.0  0.85754  0.44775  0.35163  1.0000
  H   H6        1.0  0.18014  0.59013  0.35199  1.0000
  H   H7        1.0  0.96952  0.39332  0.35522  1.0000
  H   H8        1.0  0.98410  0.60688  0.35764  1.0000
  N   N3        1.0  0.88634  0.38527  0.34237  1.0000
  C   C18       1.0  0.30942  0.51879  0.32458  1.0000
  C   C19       1.0  0.28877  0.54562  0.29277  1.0000
  C   C20       1.0  0.24039  0.53016  0.30415  1.0000
  N   N4        1.0  0.23275  0.56278  0.26530  1.0000
  O   O1        1.0  0.31174  0.58841  0.24917  1.0000
  C   C21       1.0  0.27496  0.59659  0.23374  1.0000
  H   H9        1.0  0.27926  0.62610  0.20070  1.0000
  C   C22       1.0  0.35914  0.53827  0.31734  1.0000
  H   H10       1.0  0.37740  0.57125  0.28852  1.0000
  C   C23       1.0  0.51912  0.80968  0.32434  1.0000
  C   C24       1.0  0.49233  0.76222  0.29239  1.0000
  C   C25       1.0  0.50778  0.72929  0.30380  1.0000
  N   N5        1.0  0.47524  0.68908  0.26470  1.0000
  O   O2        1.0  0.44959  0.74243  0.24859  1.0000
  C   C26       1.0  0.44146  0.69750  0.23303  1.0000
  H   H11       1.0  0.41201  0.67232  0.19978  1.0000
  C   C27       1.0  0.49960  0.83989  0.31721  1.0000
  H   H12       1.0  0.46664  0.82519  0.28834  1.0000
  C   C28       1.0  0.22809  0.72843  0.32438  1.0000
  C   C29       1.0  0.27555  0.74908  0.29246  1.0000
  C   C30       1.0  0.30850  0.79745  0.30387  1.0000
  N   N6        1.0  0.34871  0.80511  0.26477  1.0000
  O   O3        1.0  0.29532  0.72612  0.24865  1.0000
  C   C31       1.0  0.34027  0.76289  0.23313  1.0000
  H   H13       1.0  0.36543  0.75862  0.19983  1.0000
  C   C32       1.0  0.19786  0.67871  0.31724  1.0000
  H   H14       1.0  0.21256  0.66044  0.28835  1.0000
  C   C33       1.0  0.72834  0.51915  0.32428  1.0000
  C   C34       1.0  0.74902  0.49239  0.29221  1.0000
  C   C35       1.0  0.79740  0.50785  0.30355  1.0000
  N   N7        1.0  0.80506  0.47527  0.26454  1.0000
  O   O4        1.0  0.72606  0.44963  0.24847  1.0000
  C   C36       1.0  0.76285  0.44149  0.23290  1.0000
  H   H15       1.0  0.75856  0.41200  0.19976  1.0000
  C   C37       1.0  0.67862  0.49964  0.31718  1.0000
  H   H16       1.0  0.66035  0.46667  0.28832  1.0000
  C   C38       1.0  0.51867  0.22819  0.32455  1.0000
  C   C39       1.0  0.54549  0.27566  0.29270  1.0000
  C   C40       1.0  0.53004  0.30859  0.30406  1.0000
  N   N8        1.0  0.56265  0.34884  0.26518  1.0000
  O   O5        1.0  0.58828  0.29548  0.24908  1.0000
  C   C41       1.0  0.59646  0.34043  0.23362  1.0000
  H   H17       1.0  0.62597  0.36565  0.20056  1.0000
  C   C42       1.0  0.53816  0.19795  0.31734  1.0000
  H   H18       1.0  0.57114  0.21267  0.28851  1.0000
  C   C43       1.0  0.80961  0.30941  0.32436  1.0000
  C   C44       1.0  0.76215  0.28874  0.29243  1.0000
  C   C45       1.0  0.72921  0.24037  0.30390  1.0000
  N   N9        1.0  0.68899  0.23269  0.26481  1.0000
  O   O6        1.0  0.74236  0.31168  0.24861  1.0000
  C   C46       1.0  0.69742  0.27488  0.23309  1.0000
  H   H19       1.0  0.67223  0.27915  0.19983  1.0000
  C   C47       1.0  0.83983  0.35914  0.31716  1.0000
  H   H20       1.0  0.82513  0.37738  0.28823  1.0000
  N   N10       1.0  0.89404  0.53487  0.35561  1.0000
  C   C48       1.0  0.53031  0.50491  0.35752  1.0000
  C   C49       1.0  0.58123  0.52743  0.35536  1.0000
  C   C50       1.0  0.60394  0.49961  0.34818  1.0000
  C   C51       1.0  0.57456  0.44951  0.34853  1.0000
  C   C52       1.0  0.52468  0.42636  0.35386  1.0000
  C   C53       1.0  0.50208  0.45411  0.35742  1.0000
  C   C54       1.0  0.60806  0.57775  0.35670  1.0000
  C   C55       1.0  0.45198  0.43256  0.35850  1.0000
  H   H21       1.0  0.59001  0.42878  0.35190  1.0000
  C   C56       1.0  0.50746  0.53300  0.35752  1.0000
  C   C57       1.0  0.53569  0.58379  0.35738  1.0000
  C   C58       1.0  0.51310  0.61155  0.35382  1.0000
  C   C59       1.0  0.46321  0.58839  0.34857  1.0000
  C   C60       1.0  0.43383  0.53829  0.34823  1.0000
  C   C61       1.0  0.45653  0.51048  0.35542  1.0000
  C   C62       1.0  0.58579  0.60535  0.35839  1.0000
  H   H22       1.0  0.44777  0.60914  0.35182  1.0000
  C   C63       1.0  0.42971  0.46016  0.35677  1.0000
  H   H23       1.0  0.60688  0.64163  0.35767  1.0000
  H   H24       1.0  0.64451  0.59520  0.35514  1.0000
  H   H25       1.0  0.39326  0.44270  0.35521  1.0000
  H   H26       1.0  0.43089  0.39627  0.35771  1.0000
  N   N11       1.0  0.50287  0.37818  0.35587  1.0000
  N   N12       1.0  0.65251  0.52005  0.34236  1.0000
  N   N13       1.0  0.38525  0.51786  0.34245  1.0000
  N   N14       1.0  0.53491  0.65973  0.35571  1.0000
  C   C64       1.0  0.53291  0.04439  0.35772  1.0000
  C   C65       1.0  0.51038  0.07278  0.35554  1.0000
  C   C66       1.0  0.53820  0.12331  0.34834  1.0000
  C   C67       1.0  0.58830  0.14403  0.34872  1.0000
  C   C68       1.0  0.61146  0.11731  0.35400  1.0000
  C   C69       1.0  0.58370  0.06696  0.35760  1.0000
  C   C70       1.0  0.46006  0.04928  0.35687  1.0000
  C   C71       1.0  0.60527  0.03842  0.35864  1.0000
  H   H27       1.0  0.60902  0.18022  0.35189  1.0000
  C   C72       1.0  0.50482  0.99344  0.35771  1.0000
  C   C73       1.0  0.45403  0.97087  0.35755  1.0000
  C   C74       1.0  0.42628  0.92052  0.35393  1.0000
  C   C75       1.0  0.44944  0.89380  0.34868  1.0000
  C   C76       1.0  0.49954  0.91453  0.34831  1.0000
  C   C77       1.0  0.52735  0.96504  0.35557  1.0000
  C   C78       1.0  0.43247  0.99941  0.35859  1.0000
  H   H28       1.0  0.42871  0.85761  0.35173  1.0000
  C   C79       1.0  0.57767  0.98854  0.35693  1.0000
  H   H29       1.0  0.39618  0.98421  0.35771  1.0000
  H   H30       1.0  0.44260  0.06827  0.35522  1.0000
  H   H31       1.0  0.59513  0.96956  0.35528  1.0000
  H   H32       1.0  0.64155  0.05361  0.35782  1.0000
  N   N15       1.0  0.65963  0.14369  0.35588  1.0000
  N   N16       1.0  0.51775  0.15144  0.34250  1.0000
  N   N17       1.0  0.51999  0.88640  0.34244  1.0000
  N   N18       1.0  0.37810  0.89413  0.35576  1.0000
  C   C80       1.0  0.20849  0.48677  0.34749  1.0000
  C   C81       1.0  0.22871  0.45893  0.37588  1.0000
  C   C82       1.0  0.27749  0.47484  0.36584  1.0000
  N   N19       1.0  0.28551  0.44240  0.40423  1.0000
  O   O7        1.0  0.20607  0.41666  0.42082  1.0000
  C   C83       1.0  0.24307  0.40846  0.43516  1.0000
  H   H33       1.0  0.23894  0.37930  0.46932  1.0000
  C   C84       1.0  0.55115  0.74077  0.34722  1.0000
  C   C85       1.0  0.57897  0.78883  0.37570  1.0000
  C   C86       1.0  0.56301  0.82166  0.36582  1.0000
  N   N20       1.0  0.59535  0.86207  0.40451  1.0000
  O   O8        1.0  0.62114  0.80840  0.42098  1.0000
  C   C87       1.0  0.62923  0.85353  0.43568  1.0000
  H   H34       1.0  0.65841  0.87859  0.46975  1.0000
  C   C88       1.0  0.56589  0.70696  0.36154  1.0000
  H   H35       1.0  0.59931  0.71755  0.38531  1.0000
  C   C89       1.0  0.29703  0.82936  0.34726  1.0000
  C   C90       1.0  0.24898  0.80915  0.37572  1.0000
  C   C91       1.0  0.21613  0.76036  0.36584  1.0000
  N   N21       1.0  0.17572  0.75232  0.40450  1.0000
  O   O9        1.0  0.22942  0.83178  0.42094  1.0000
  C   C92       1.0  0.18429  0.79474  0.43572  1.0000
  C   C93       1.0  0.33087  0.87791  0.36156  1.0000
  H   H36       1.0  0.32030  0.90076  0.38535  1.0000
  C   C94       1.0  0.82928  0.55118  0.34708  1.0000
  C   C95       1.0  0.80906  0.57900  0.37557  1.0000
  C   C96       1.0  0.76027  0.56307  0.36563  1.0000
  N   N22       1.0  0.75219  0.59533  0.40461  1.0000
  O   O10       1.0  0.83164  0.62111  0.42109  1.0000
  C   C97       1.0  0.79462  0.62924  0.43568  1.0000
  H   H37       1.0  0.79867  0.65821  0.47045  1.0000
  C   C98       1.0  0.87782  0.56588  0.36147  1.0000
  H   H38       1.0  0.90066  0.59928  0.38535  1.0000
  C   C99       1.0  0.48666  0.29711  0.34741  1.0000
  C   C100      1.0  0.45882  0.24905  0.37582  1.0000
  C   C101      1.0  0.47472  0.21618  0.36581  1.0000
  N   N23       1.0  0.44229  0.17573  0.40423  1.0000
  O   O11       1.0  0.41654  0.22943  0.42078  1.0000
  C   C102      1.0  0.40835  0.18423  0.43515  1.0000
  H   H39       1.0  0.37919  0.15920  0.46933  1.0000
  C   C103      1.0  0.47193  0.33093  0.36180  1.0000
  H   H40       1.0  0.43846  0.32030  0.38535  1.0000
  C   C104      1.0  0.74069  0.20849  0.34735  1.0000
  C   C105      1.0  0.78874  0.22872  0.37582  1.0000
  C   C106      1.0  0.82158  0.27751  0.36588  1.0000
  N   N24       1.0  0.86199  0.28558  0.40457  1.0000
  O   O12       1.0  0.80831  0.20613  0.42113  1.0000
  C   C107      1.0  0.85345  0.24317  0.43580  1.0000
  H   H41       1.0  0.87851  0.23905  0.46987  1.0000
  C   C108      1.0  0.70687  0.15993  0.36170  1.0000
  H   H42       1.0  0.71745  0.13710  0.38552  1.0000
