data_image0
_chemical_formula_structural       C8H6NC2H2C8H6NC2H2C8H6NC2H2C6H5NCHC8H6NC2H2C8H6NC2H2CHC3HNH2NC3HNH2NC3H2NC3H2NC3H2NC3H2NC3H2NC3H2NC10H4CNCNHCHCHC10H4CNCNHCHCHC10H4CNCNHCHCHC9H4CNCNHC2HC10H4CNCNHCHCHC10H4CNCNHCHCHC2HNC3H2NC3H2NC3HNH2NC3HNH2NC3HNH2NC3HNH2NC3HNH2NC3HNH2NC2HCHCH2NC2NHCH
_chemical_formula_sum              "C198 H135 N45"
_cell_length_a       77.8823
_cell_length_b       77.8822
_cell_length_c       14.8402
_cell_angle_alpha    90
_cell_angle_beta     90
_cell_angle_gamma    120

_space_group_name_H-M_alt    "P 1"
_space_group_IT_number       1

loop_
  _space_group_symop_operation_xyz
  'x, y, z'

loop_
  _atom_site_type_symbol
  _atom_site_label
  _atom_site_symmetry_multiplicity
  _atom_site_fract_x
  _atom_site_fract_y
  _atom_site_fract_z
  _atom_site_occupancy
  C   C1        1.0  0.12550  0.56778  0.33923  1.0000
  C   C2        1.0  0.08292  0.54908  0.32339  1.0000
  C   C3        1.0  0.09517  0.56993  0.31930  1.0000
  C   C4        1.0  0.11590  0.57903  0.32760  1.0000
  C   C5        1.0  0.18402  0.64115  0.31419  1.0000
  C   C6        1.0  0.19724  0.66171  0.30544  1.0000
  C   C7        1.0  0.19363  0.53894  0.38754  1.0000
  C   C8        1.0  0.18105  0.54706  0.37883  1.0000
  H   H1        1.0  0.08909  0.57879  0.30909  1.0000
  H   H2        1.0  0.12394  0.59415  0.32279  1.0000
  H   H3        1.0  0.16984  0.63543  0.29077  1.0000
  H   H4        1.0  0.19216  0.67029  0.27681  1.0000
  H   H5        1.0  0.18809  0.52531  0.41715  1.0000
  H   H6        1.0  0.16691  0.53923  0.40345  1.0000
  N   N1        1.0  0.15800  0.59757  0.34521  1.0000
  C   C9        1.0  0.14674  0.57732  0.34360  1.0000
  C   C10       1.0  0.06260  0.54069  0.30826  1.0000
  H   H7        1.0  0.05825  0.54790  0.26724  1.0000
  H   H8        1.0  0.22319  0.53221  0.42405  1.0000
  C   C11       1.0  0.44570  0.56046  0.33913  1.0000
  C   C12       1.0  0.46440  0.53658  0.32328  1.0000
  C   C13       1.0  0.44356  0.52798  0.31913  1.0000
  C   C14       1.0  0.43445  0.53961  0.32742  1.0000
  C   C15       1.0  0.37233  0.54561  0.31415  1.0000
  C   C16       1.0  0.35177  0.53828  0.30534  1.0000
  C   C17       1.0  0.47460  0.65744  0.38718  1.0000
  C   C18       1.0  0.46643  0.63673  0.37873  1.0000
  H   H9        1.0  0.43470  0.51305  0.30893  1.0000
  H   H10       1.0  0.41934  0.53253  0.32264  1.0000
  H   H11       1.0  0.37805  0.53719  0.29026  1.0000
  H   H12       1.0  0.34320  0.52466  0.27633  1.0000
  H   H13       1.0  0.48826  0.66553  0.41644  1.0000
  H   H14       1.0  0.47431  0.63043  0.40283  1.0000
  N   N2        1.0  0.41591  0.56316  0.34519  1.0000
  C   C19       1.0  0.43616  0.57216  0.34357  1.0000
  C   C20       1.0  0.47280  0.52465  0.30823  1.0000
  H   H15       1.0  0.46560  0.51309  0.26719  1.0000
  H   H16       1.0  0.48140  0.69376  0.42368  1.0000
  C   C21       1.0  0.45303  0.88797  0.33917  1.0000
  C   C22       1.0  0.47692  0.93055  0.32336  1.0000
  C   C23       1.0  0.48551  0.91830  0.31921  1.0000
  C   C24       1.0  0.47388  0.89756  0.32752  1.0000
  C   C25       1.0  0.46787  0.82944  0.31422  1.0000
  C   C26       1.0  0.47520  0.81622  0.30546  1.0000
  C   C27       1.0  0.35605  0.81985  0.38750  1.0000
  C   C28       1.0  0.37675  0.83242  0.37882  1.0000
  H   H17       1.0  0.50044  0.92437  0.30899  1.0000
  H   H18       1.0  0.48095  0.88952  0.32267  1.0000
  H   H19       1.0  0.47630  0.84360  0.29050  1.0000
  H   H20       1.0  0.48884  0.82128  0.27664  1.0000
  H   H21       1.0  0.34797  0.82539  0.41718  1.0000
  H   H22       1.0  0.38306  0.84656  0.40347  1.0000
  N   N3        1.0  0.45031  0.85547  0.34515  1.0000
  C   C29       1.0  0.44132  0.86673  0.34355  1.0000
  C   C30       1.0  0.48885  0.95087  0.30828  1.0000
  H   H23       1.0  0.50040  0.95522  0.26723  1.0000
  H   H24       1.0  0.31977  0.79029  0.42410  1.0000
  C   C31       1.0  0.89066  0.44229  0.35068  1.0000
  C   C32       1.0  0.90011  0.43093  0.36372  1.0000
  C   C33       1.0  0.83195  0.36911  0.31446  1.0000
  C   C34       1.0  0.81870  0.34854  0.30621  1.0000
  C   C35       1.0  0.82262  0.47137  0.38558  1.0000
  C   C36       1.0  0.83525  0.46331  0.37647  1.0000
  H   H25       1.0  0.89195  0.41585  0.36988  1.0000
  H   H26       1.0  0.84630  0.37468  0.29379  1.0000
  H   H27       1.0  0.82391  0.33981  0.28065  1.0000
  H   H28       1.0  0.82788  0.48459  0.41868  1.0000
  H   H29       1.0  0.84910  0.47075  0.40440  1.0000
  N   N4        1.0  0.85799  0.41268  0.34651  1.0000
  C   C37       1.0  0.86943  0.43292  0.34622  1.0000
  H   H30       1.0  0.79306  0.47805  0.42020  1.0000
  C   C38       1.0  0.57119  0.45111  0.35066  1.0000
  C   C39       1.0  0.55280  0.47533  0.36436  1.0000
  C   C40       1.0  0.57359  0.48370  0.37085  1.0000
  C   C41       1.0  0.58255  0.47191  0.36366  1.0000
  C   C42       1.0  0.64437  0.46557  0.31434  1.0000
  C   C43       1.0  0.66494  0.47289  0.30606  1.0000
  C   C44       1.0  0.54211  0.35398  0.38548  1.0000
  C   C45       1.0  0.55019  0.37468  0.37651  1.0000
  H   H31       1.0  0.58253  0.49860  0.38155  1.0000
  H   H32       1.0  0.59763  0.47885  0.36979  1.0000
  H   H33       1.0  0.63880  0.47435  0.29364  1.0000
  H   H34       1.0  0.67367  0.48683  0.28043  1.0000
  H   H35       1.0  0.52886  0.34602  0.41836  1.0000
  H   H36       1.0  0.54270  0.38107  0.40407  1.0000
  N   N5        1.0  0.60081  0.44805  0.34653  1.0000
  C   C46       1.0  0.58057  0.43925  0.34624  1.0000
  C   C47       1.0  0.54453  0.48747  0.37655  1.0000
  H   H37       1.0  0.55202  0.49960  0.41404  1.0000
  H   H38       1.0  0.53536  0.31771  0.41988  1.0000
  C   C48       1.0  0.56238  0.12281  0.35070  1.0000
  C   C49       1.0  0.53816  0.08019  0.36432  1.0000
  C   C50       1.0  0.52979  0.09261  0.37079  1.0000
  C   C51       1.0  0.54157  0.11336  0.36367  1.0000
  C   C52       1.0  0.54791  0.18152  0.31442  1.0000
  C   C53       1.0  0.54060  0.19478  0.30606  1.0000
  C   C54       1.0  0.65951  0.19082  0.38527  1.0000
  C   C55       1.0  0.63881  0.17822  0.37645  1.0000
  H   H39       1.0  0.51488  0.08665  0.38143  1.0000
  H   H40       1.0  0.53464  0.12151  0.36974  1.0000
  H   H41       1.0  0.53916  0.16720  0.29335  1.0000
  H   H42       1.0  0.52668  0.18959  0.28014  1.0000
  H   H43       1.0  0.66748  0.18552  0.41799  1.0000
  H   H44       1.0  0.63242  0.16432  0.40385  1.0000
  N   N6        1.0  0.56543  0.15547  0.34661  1.0000
  C   C56       1.0  0.57423  0.14404  0.34631  1.0000
  C   C57       1.0  0.52601  0.05978  0.37640  1.0000
  H   H45       1.0  0.51387  0.05513  0.41383  1.0000
  H   H46       1.0  0.69581  0.22031  0.41962  1.0000
  C   C58       1.0  0.01875  0.51605  0.26597  1.0000
  H   H47       1.0  0.02652  0.52389  0.21054  1.0000
  C   C59       1.0  0.49744  0.50545  0.26593  1.0000
  C   C60       1.0  0.50759  0.49455  0.26333  1.0000
  C   C61       1.0  0.51893  0.49496  0.33941  1.0000
  H   H48       1.0  0.48961  0.50538  0.21048  1.0000
  N   N7        1.0  0.50630  0.48415  0.18743  1.0000
  H   H49       1.0  0.49854  0.48400  0.13569  1.0000
  H   H50       1.0  0.51302  0.47651  0.18224  1.0000
  N   N8        1.0  0.52851  0.48459  0.33756  1.0000
  C   C62       1.0  0.50806  0.99472  0.26596  1.0000
  C   C63       1.0  0.51897  0.01576  0.26335  1.0000
  C   C64       1.0  0.51856  0.02670  0.33942  1.0000
  H   H51       1.0  0.50813  0.98695  0.21053  1.0000
  N   N9        1.0  0.52937  0.02487  0.18746  1.0000
  H   H52       1.0  0.52952  0.01726  0.13573  1.0000
  H   H53       1.0  0.53701  0.03923  0.18226  1.0000
  N   N10       1.0  0.52892  0.04664  0.33755  1.0000
  C   C65       1.0  0.28889  0.55026  0.27333  1.0000
  C   C66       1.0  0.27097  0.55043  0.26698  1.0000
  C   C67       1.0  0.25879  0.54658  0.34318  1.0000
  H   H54       1.0  0.29778  0.55392  0.21760  1.0000
  H   H55       1.0  0.26718  0.55404  0.20674  1.0000
  N   N11       1.0  0.24342  0.54949  0.33564  1.0000
  C   C68       1.0  0.46325  0.74137  0.27329  1.0000
  C   C69       1.0  0.46310  0.72328  0.26698  1.0000
  C   C70       1.0  0.46701  0.71499  0.34314  1.0000
  H   H56       1.0  0.45953  0.74656  0.21761  1.0000
  H   H57       1.0  0.45945  0.71586  0.20680  1.0000
  N   N12       1.0  0.46404  0.69669  0.33565  1.0000
  C   C71       1.0  0.27206  0.72465  0.27308  1.0000
  C   C72       1.0  0.29016  0.74257  0.26678  1.0000
  C   C73       1.0  0.29851  0.75471  0.34306  1.0000
  H   H58       1.0  0.26683  0.71578  0.21732  1.0000
  H   H59       1.0  0.29755  0.74637  0.20652  1.0000
  N   N13       1.0  0.31680  0.77008  0.33552  1.0000
  C   C74       1.0  0.72757  0.46051  0.26909  1.0000
  C   C75       1.0  0.74550  0.46038  0.26234  1.0000
  C   C76       1.0  0.75761  0.46397  0.33858  1.0000
  H   H60       1.0  0.71873  0.45704  0.21329  1.0000
  H   H61       1.0  0.74934  0.45696  0.20176  1.0000
  N   N14       1.0  0.77304  0.46115  0.33036  1.0000
  C   C77       1.0  0.55307  0.26982  0.26936  1.0000
  C   C78       1.0  0.55323  0.28791  0.26259  1.0000
  C   C79       1.0  0.54955  0.29638  0.33872  1.0000
  H   H62       1.0  0.55659  0.26448  0.21364  1.0000
  H   H63       1.0  0.55670  0.29518  0.20206  1.0000
  N   N15       1.0  0.55239  0.31463  0.33055  1.0000
  C   C80       1.0  0.74366  0.28594  0.26923  1.0000
  C   C81       1.0  0.72559  0.26800  0.26252  1.0000
  C   C82       1.0  0.71714  0.25583  0.33863  1.0000
  H   H64       1.0  0.74896  0.29483  0.21354  1.0000
  H   H65       1.0  0.71829  0.26421  0.20203  1.0000
  N   N16       1.0  0.69887  0.24045  0.33051  1.0000
  C   C83       1.0  0.19052  0.62843  0.34870  1.0000
  C   C84       1.0  0.18825  0.56634  0.34354  1.0000
  C   C85       1.0  0.11314  0.54688  0.34416  1.0000
  C   C86       1.0  0.09229  0.53770  0.33667  1.0000
  C   C87       1.0  0.21730  0.67034  0.33272  1.0000
  C   C88       1.0  0.22359  0.65772  0.37042  1.0000
  C   C89       1.0  0.21048  0.63723  0.37804  1.0000
  C   C90       1.0  0.20815  0.57662  0.31262  1.0000
  C   C91       1.0  0.22060  0.56848  0.32035  1.0000
  C   C92       1.0  0.21371  0.54958  0.35946  1.0000
  H   H66       1.0  0.21596  0.62874  0.40382  1.0000
  H   H67       1.0  0.23803  0.66316  0.38942  1.0000
  H   H68       1.0  0.21413  0.59056  0.28590  1.0000
  H   H69       1.0  0.23504  0.57697  0.30026  1.0000
  C   C93       1.0  0.17681  0.57603  0.34458  1.0000
  N   N17       1.0  0.18682  0.59609  0.34748  1.0000
  C   C94       1.0  0.17814  0.60739  0.34854  1.0000
  N   N18       1.0  0.15660  0.56686  0.34370  1.0000
  H   H70       1.0  0.11923  0.53800  0.35225  1.0000
  C   C95       1.0  0.22663  0.54240  0.37636  1.0000
  H   H71       1.0  0.08404  0.52256  0.33846  1.0000
  C   C96       1.0  0.23076  0.69027  0.31623  1.0000
  H   H72       1.0  0.22851  0.69690  0.26390  1.0000
  C   C97       1.0  0.38505  0.56481  0.34889  1.0000
  C   C98       1.0  0.44712  0.62465  0.34382  1.0000
  C   C99       1.0  0.46660  0.56900  0.34413  1.0000
  C   C100      1.0  0.47578  0.55733  0.33660  1.0000
  C   C101      1.0  0.34313  0.54969  0.33292  1.0000
  C   C102      1.0  0.35575  0.56857  0.37089  1.0000
  C   C103      1.0  0.37624  0.57595  0.37851  1.0000
  C   C104      1.0  0.43681  0.63427  0.31328  1.0000
  C   C105      1.0  0.44497  0.65486  0.32098  1.0000
  C   C106      1.0  0.46393  0.66688  0.35955  1.0000
  H   H73       1.0  0.38473  0.58990  0.40444  1.0000
  H   H74       1.0  0.35032  0.57756  0.39007  1.0000
  H   H75       1.0  0.42285  0.62631  0.28675  1.0000
  H   H76       1.0  0.43648  0.66082  0.30104  1.0000
  C   C107      1.0  0.43744  0.60352  0.34473  1.0000
  N   N19       1.0  0.41738  0.59346  0.34764  1.0000
  C   C108      1.0  0.40609  0.57348  0.34857  1.0000
  N   N20       1.0  0.44661  0.59248  0.34375  1.0000
  H   H77       1.0  0.47548  0.58397  0.35229  1.0000
  C   C109      1.0  0.47115  0.68699  0.37626  1.0000
  H   H78       1.0  0.49092  0.56422  0.33849  1.0000
  C   C110      1.0  0.32322  0.54325  0.31631  1.0000
  H   H79       1.0  0.31660  0.53441  0.26384  1.0000
  C   C111      1.0  0.44864  0.82295  0.34873  1.0000
  C   C112      1.0  0.38882  0.82522  0.34352  1.0000
  C   C113      1.0  0.44449  0.90033  0.34415  1.0000
  C   C114      1.0  0.45617  0.92118  0.33668  1.0000
  C   C115      1.0  0.46378  0.79616  0.33284  1.0000
  C   C116      1.0  0.44487  0.78988  0.37056  1.0000
  C   C117      1.0  0.43749  0.80299  0.37821  1.0000
  C   C118      1.0  0.37920  0.80532  0.31261  1.0000
  C   C119      1.0  0.35861  0.79288  0.32029  1.0000
  C   C120      1.0  0.34660  0.79977  0.35940  1.0000
  H   H80       1.0  0.42353  0.79753  0.40402  1.0000
  H   H81       1.0  0.43588  0.77545  0.38973  1.0000
  H   H82       1.0  0.38717  0.79934  0.28584  1.0000
  H   H83       1.0  0.35265  0.77843  0.30021  1.0000
  C   C121      1.0  0.40996  0.83666  0.34455  1.0000
  N   N21       1.0  0.42000  0.82665  0.34744  1.0000
  C   C122      1.0  0.43998  0.83532  0.34845  1.0000
  N   N22       1.0  0.42100  0.85687  0.34366  1.0000
  H   H84       1.0  0.42952  0.89424  0.35229  1.0000
  C   C123      1.0  0.32651  0.78685  0.37634  1.0000
  H   H85       1.0  0.44928  0.92944  0.33853  1.0000
  C   C124      1.0  0.47023  0.78270  0.31632  1.0000
  H   H86       1.0  0.47913  0.78495  0.26403  1.0000
  C   C125      1.0  0.82530  0.38203  0.34473  1.0000
  C   C126      1.0  0.82835  0.44447  0.33675  1.0000
  C   C127      1.0  0.90318  0.46313  0.34360  1.0000
  C   C128      1.0  0.79845  0.34010  0.32991  1.0000
  C   C129      1.0  0.79198  0.35292  0.36331  1.0000
  C   C130      1.0  0.80512  0.37341  0.37044  1.0000
  C   C131      1.0  0.80878  0.43463  0.30177  1.0000
  C   C132      1.0  0.79630  0.44273  0.30990  1.0000
  C   C133      1.0  0.80281  0.46111  0.35367  1.0000
  H   H87       1.0  0.79953  0.38204  0.39322  1.0000
  H   H88       1.0  0.77741  0.34761  0.37973  1.0000
  H   H89       1.0  0.80305  0.42100  0.27196  1.0000
  H   H90       1.0  0.78205  0.43452  0.28688  1.0000
  C   C134      1.0  0.83960  0.43458  0.33874  1.0000
  N   N23       1.0  0.82937  0.41452  0.34038  1.0000
  C   C135      1.0  0.83784  0.40304  0.34452  1.0000
  N   N24       1.0  0.85977  0.44355  0.34305  1.0000
  H   H91       1.0  0.89722  0.47209  0.33426  1.0000
  C   C136      1.0  0.78977  0.46811  0.37145  1.0000
  C   C137      1.0  0.78502  0.32015  0.31398  1.0000
  H   H92       1.0  0.78751  0.31333  0.26314  1.0000
  C   C138      1.0  0.63146  0.44602  0.34477  1.0000
  C   C139      1.0  0.56903  0.38662  0.33684  1.0000
  C   C140      1.0  0.55034  0.44278  0.34363  1.0000
  C   C141      1.0  0.54132  0.45461  0.35005  1.0000
  C   C142      1.0  0.67339  0.46109  0.32990  1.0000
  C   C143      1.0  0.66057  0.44182  0.36353  1.0000
  C   C144      1.0  0.64007  0.43446  0.37060  1.0000
  C   C145      1.0  0.57888  0.37689  0.30196  1.0000
  C   C146      1.0  0.57079  0.35631  0.31018  1.0000
  C   C147      1.0  0.55239  0.34443  0.35375  1.0000
  H   H93       1.0  0.63145  0.42026  0.39348  1.0000
  H   H94       1.0  0.66588  0.43256  0.37992  1.0000
  H   H95       1.0  0.59253  0.38479  0.27232  1.0000
  H   H96       1.0  0.57901  0.35028  0.28724  1.0000
  C   C148      1.0  0.57891  0.40776  0.33880  1.0000
  N   N25       1.0  0.59897  0.41760  0.34046  1.0000
  C   C149      1.0  0.61044  0.43754  0.34459  1.0000
  N   N26       1.0  0.56994  0.41896  0.34308  1.0000
  H   H97       1.0  0.54139  0.42786  0.33433  1.0000
  C   C150      1.0  0.54538  0.32439  0.37145  1.0000
  H   H98       1.0  0.52621  0.44786  0.34616  1.0000
  C   C151      1.0  0.69334  0.46761  0.31393  1.0000
  H   H99       1.0  0.70012  0.47685  0.26285  1.0000
  C   C152      1.0  0.56744  0.18815  0.34499  1.0000
  C   C153      1.0  0.62687  0.18516  0.33710  1.0000
  C   C154      1.0  0.57071  0.11030  0.34366  1.0000
  C   C155      1.0  0.55888  0.08944  0.35006  1.0000
  C   C156      1.0  0.55238  0.21501  0.33010  1.0000
  C   C157      1.0  0.57164  0.22146  0.36389  1.0000
  C   C158      1.0  0.57899  0.20832  0.37097  1.0000
  C   C159      1.0  0.63659  0.20475  0.30242  1.0000
  C   C160      1.0  0.65718  0.21723  0.31057  1.0000
  C   C161      1.0  0.66906  0.21067  0.35381  1.0000
  H   H100      1.0  0.59319  0.21389  0.39395  1.0000
  H   H101      1.0  0.58089  0.23602  0.38038  1.0000
  H   H102      1.0  0.62870  0.21051  0.27286  1.0000
  H   H103      1.0  0.66321  0.23148  0.28766  1.0000
  C   C162      1.0  0.60573  0.17389  0.33906  1.0000
  N   N27       1.0  0.59588  0.18411  0.34068  1.0000
  C   C163      1.0  0.57594  0.17563  0.34472  1.0000
  N   N28       1.0  0.59453  0.15371  0.34322  1.0000
  H   H104      1.0  0.58564  0.11626  0.33438  1.0000
  C   C164      1.0  0.68911  0.22368  0.37137  1.0000
  H   H105      1.0  0.56563  0.08107  0.34614  1.0000
  C   C165      1.0  0.54587  0.22845  0.31402  1.0000
  H   H106      1.0  0.53668  0.22603  0.26278  1.0000
  C   C166      1.0  0.01829  0.50419  0.41700  1.0000
  C   C167      1.0  0.02935  0.51552  0.34244  1.0000
  H   H107      1.0  0.02540  0.50348  0.47365  1.0000
  N   N29       1.0  0.04922  0.52494  0.34815  1.0000
  C   C168      1.0  0.51945  0.50611  0.41588  1.0000
  C   C169      1.0  0.50930  0.51684  0.41696  1.0000
  C   C170      1.0  0.49798  0.51659  0.34238  1.0000
  H   H108      1.0  0.52711  0.50639  0.47228  1.0000
  H   H109      1.0  0.51000  0.52466  0.47361  1.0000
  N   N30       1.0  0.48855  0.52702  0.34809  1.0000
  C   C171      1.0  0.50740  0.01607  0.41588  1.0000
  C   C172      1.0  0.49666  0.99519  0.41696  1.0000
  C   C173      1.0  0.49692  0.98412  0.34242  1.0000
  H   H110      1.0  0.50711  0.02346  0.47226  1.0000
  H   H111      1.0  0.48884  0.98808  0.47362  1.0000
  N   N31       1.0  0.48649  0.96426  0.34814  1.0000
  C   C174      1.0  0.26513  0.54284  0.42642  1.0000
  C   C175      1.0  0.28334  0.54296  0.43460  1.0000
  C   C176      1.0  0.29524  0.54648  0.35650  1.0000
  H   H112      1.0  0.25684  0.54100  0.48290  1.0000
  N   N32       1.0  0.28905  0.54003  0.51711  1.0000
  H   H113      1.0  0.28080  0.53762  0.57012  1.0000
  H   H114      1.0  0.30134  0.53984  0.52556  1.0000
  N   N33       1.0  0.31354  0.54939  0.36399  1.0000
  C   C177      1.0  0.47073  0.72507  0.42636  1.0000
  C   C178      1.0  0.47057  0.74313  0.43455  1.0000
  C   C179      1.0  0.46702  0.75149  0.35645  1.0000
  H   H115      1.0  0.47257  0.71862  0.48285  1.0000
  N   N34       1.0  0.47348  0.75177  0.51706  1.0000
  H   H116      1.0  0.47589  0.74594  0.57009  1.0000
  H   H117      1.0  0.47362  0.76423  0.52553  1.0000
  N   N35       1.0  0.46408  0.76687  0.36392  1.0000
  C   C180      1.0  0.28845  0.74835  0.42632  1.0000
  C   C181      1.0  0.27038  0.73012  0.43448  1.0000
  C   C182      1.0  0.26197  0.71825  0.35630  1.0000
  H   H118      1.0  0.29493  0.75658  0.48288  1.0000
  N   N36       1.0  0.26177  0.72436  0.51705  1.0000
  H   H119      1.0  0.26763  0.73259  0.57011  1.0000
  H   H120      1.0  0.24931  0.71206  0.52551  1.0000
  N   N37       1.0  0.24659  0.69994  0.36380  1.0000
  C   C183      1.0  0.75122  0.46747  0.42221  1.0000
  C   C184      1.0  0.73299  0.46730  0.43080  1.0000
  C   C185      1.0  0.72115  0.46401  0.35269  1.0000
  H   H121      1.0  0.75945  0.46912  0.47867  1.0000
  N   N38       1.0  0.72721  0.46997  0.51363  1.0000
  H   H122      1.0  0.73543  0.47224  0.56664  1.0000
  H   H123      1.0  0.71491  0.47013  0.52235  1.0000
  N   N39       1.0  0.70283  0.46107  0.36031  1.0000
  C   C186      1.0  0.54597  0.28646  0.42230  1.0000
  C   C187      1.0  0.54609  0.26838  0.43089  1.0000
  C   C188      1.0  0.54945  0.25985  0.35288  1.0000
  H   H124      1.0  0.54423  0.29300  0.47869  1.0000
  N   N40       1.0  0.54332  0.25988  0.51367  1.0000
  H   H125      1.0  0.54101  0.26581  0.56662  1.0000
  H   H126      1.0  0.54313  0.24740  0.52237  1.0000
  N   N41       1.0  0.55238  0.24447  0.36052  1.0000
  C   C189      1.0  0.72707  0.26221  0.42220  1.0000
  C   C190      1.0  0.74512  0.28043  0.43077  1.0000
  C   C191      1.0  0.75363  0.29232  0.35274  1.0000
  H   H127      1.0  0.72052  0.25394  0.47861  1.0000
  N   N42       1.0  0.75362  0.28619  0.51355  1.0000
  H   H128      1.0  0.74768  0.27796  0.56653  1.0000
  H   H129      1.0  0.76606  0.29850  0.52225  1.0000
  N   N43       1.0  0.76897  0.31065  0.36031  1.0000
  C   C192      1.0  0.93328  0.46068  0.36436  1.0000
  C   C193      1.0  0.92085  0.43989  0.37089  1.0000
  H   H130      1.0  0.92681  0.43094  0.38163  1.0000
  C   C194      1.0  0.92403  0.47215  0.35001  1.0000
  H   H131      1.0  0.93240  0.48727  0.34608  1.0000
  C   C195      1.0  0.95369  0.46895  0.37650  1.0000
  H   H132      1.0  0.95833  0.46146  0.41401  1.0000
  H   H133      1.0  0.97424  0.50048  0.18227  1.0000
  N   N44       1.0  0.96683  0.48498  0.33758  1.0000
  C   C196      1.0  0.99771  0.50590  0.26337  1.0000
  C   C197      1.0  0.98677  0.49455  0.33944  1.0000
  N   N45       1.0  0.98860  0.50720  0.18747  1.0000
  H   H134      1.0  0.99621  0.51495  0.13574  1.0000
  C   C198      1.0  0.99741  0.49404  0.41591  1.0000
  H   H135      1.0  0.99002  0.48637  0.47230  1.0000
