data_image0
_chemical_formula_structural       C14H12C7NC12H12C2NC3NC3NC15H14C2O2H2C2O2H2C2O2H2C2O2H2C2O2H2C2O2H2C3NC2NC5NC3NC17H14CNC2NC4NC18H14C2NC19H12C4OHOHC4OHOHC4OHOHC4OHOHC4OHOHC4OHOH
_chemical_formula_sum              "C168 H102 N12 O24"
_cell_length_a       41.9139
_cell_length_b       41.914
_cell_length_c       15.0367
_cell_angle_alpha    90.0372
_cell_angle_beta     89.9628
_cell_angle_gamma    120

_space_group_name_H-M_alt    "P 1"
_space_group_IT_number       1

loop_
  _space_group_symop_operation_xyz
  'x, y, z'

loop_
  _atom_site_type_symbol
  _atom_site_label
  _atom_site_symmetry_multiplicity
  _atom_site_fract_x
  _atom_site_fract_y
  _atom_site_fract_z
  _atom_site_occupancy
  C   C1        1.0  0.94800  0.54737  0.33281  1.0000
  C   C2        1.0  0.09750  0.53594  0.33121  1.0000
  C   C3        1.0  0.10926  0.57426  0.33205  1.0000
  C   C4        1.0  0.14579  0.63574  0.32834  1.0000
  C   C5        1.0  0.14578  0.60301  0.33398  1.0000
  C   C6        1.0  0.15513  0.75513  0.26991  1.0000
  C   C7        1.0  0.12814  0.71758  0.26594  1.0000
  C   C8        1.0  0.12534  0.52543  0.32951  1.0000
  C   C9        1.0  0.18096  0.53036  0.26302  1.0000
  C   C10       1.0  0.15149  0.53729  0.25998  1.0000
  C   C11       1.0  0.92928  0.40411  0.26603  1.0000
  C   C12       1.0  0.90248  0.36649  0.26991  1.0000
  C   C13       1.0  0.90591  0.58427  0.25993  1.0000
  C   C14       1.0  0.87632  0.59102  0.26274  1.0000
  H   H1        1.0  0.85601  0.57786  0.21655  1.0000
  H   H2        1.0  0.90666  0.56806  0.20993  1.0000
  H   H3        1.0  0.99441  0.66456  0.32678  1.0000
  H   H4        1.0  0.94786  0.41315  0.21481  1.0000
  H   H5        1.0  0.90371  0.34956  0.22293  1.0000
  H   H6        1.0  0.06282  0.45707  0.32650  1.0000
  H   H7        1.0  0.16925  0.66086  0.32586  1.0000
  H   H8        1.0  0.16925  0.60136  0.33651  1.0000
  H   H9        1.0  0.15089  0.55353  0.20992  1.0000
  H   H10       1.0  0.20133  0.54342  0.21692  1.0000
  H   H11       1.0  0.10968  0.70860  0.21449  1.0000
  H   H12       1.0  0.15416  0.77213  0.22277  1.0000
  C   C15       1.0  0.43691  0.44954  0.32880  1.0000
  C   C16       1.0  0.44349  0.50619  0.33186  1.0000
  C   C17       1.0  0.54138  0.49226  0.33243  1.0000
  C   C18       1.0  0.61238  0.61268  0.33222  1.0000
  C   C19       1.0  0.61896  0.66932  0.32878  1.0000
  C   C20       1.0  0.55283  0.65319  0.33089  1.0000
  C   C21       1.0  0.51450  0.62663  0.33167  1.0000
  N   N1        1.0  0.49803  0.58939  0.33092  1.0000
  C   C22       1.0  0.45301  0.60167  0.32814  1.0000
  C   C23       1.0  0.48575  0.63441  0.33343  1.0000
  C   C24       1.0  0.33363  0.49162  0.26963  1.0000
  C   C25       1.0  0.37119  0.50220  0.26562  1.0000
  C   C26       1.0  0.56333  0.69154  0.32916  1.0000
  C   C27       1.0  0.58172  0.76767  0.32800  1.0000
  C   C28       1.0  0.55844  0.74222  0.26261  1.0000
  C   C29       1.0  0.55148  0.70580  0.25965  1.0000
  C   C30       1.0  0.68465  0.61676  0.26577  1.0000
  C   C31       1.0  0.72226  0.62754  0.26963  1.0000
  C   C32       1.0  0.50448  0.41323  0.25958  1.0000
  C   C33       1.0  0.49773  0.37689  0.26242  1.0000
  H   H13       1.0  0.51089  0.36972  0.21624  1.0000
  H   H14       1.0  0.52069  0.43016  0.20959  1.0000
  H   H15       1.0  0.42419  0.42149  0.32639  1.0000
  H   H16       1.0  0.67560  0.62624  0.21449  1.0000
  H   H17       1.0  0.73920  0.64568  0.22265  1.0000
  H   H18       1.0  0.63169  0.69737  0.32608  1.0000
  H   H19       1.0  0.42790  0.60002  0.32546  1.0000
  H   H20       1.0  0.48740  0.65953  0.33614  1.0000
  H   H21       1.0  0.53527  0.68896  0.20953  1.0000
  H   H22       1.0  0.54538  0.74950  0.21651  1.0000
  H   H23       1.0  0.38015  0.49265  0.21422  1.0000
  H   H24       1.0  0.31662  0.47361  0.22256  1.0000
  C   C34       1.0  0.63921  0.07901  0.32880  1.0000
  C   C35       1.0  0.58257  0.02894  0.33164  1.0000
  N   N2        1.0  0.58025  0.06011  0.33108  1.0000
  C   C36       1.0  0.62306  0.12899  0.33122  1.0000
  C   C37       1.0  0.59649  0.14075  0.33217  1.0000
  C   C38       1.0  0.47607  0.09133  0.33183  1.0000
  N   N3        1.0  0.47839  0.06015  0.33094  1.0000
  C   C39       1.0  0.41943  0.04126  0.32851  1.0000
  C   C40       1.0  0.43556  0.99126  0.33064  1.0000
  C   C41       1.0  0.46212  0.97949  0.33140  1.0000
  N   N4        1.0  0.49937  0.00027  0.33066  1.0000
  C   C42       1.0  0.48708  0.94297  0.32786  1.0000
  C   C43       1.0  0.45434  0.94297  0.33313  1.0000
  C   C44       1.0  0.56461  0.96338  0.33292  1.0000
  C   C45       1.0  0.58259  0.90537  0.33446  1.0000
  C   C46       1.0  0.59714  0.93362  0.26929  1.0000
  C   C47       1.0  0.58658  0.96061  0.26531  1.0000
  C   C48       1.0  0.39722  0.96342  0.32902  1.0000
  C   C49       1.0  0.32110  0.90567  0.32815  1.0000
  C   C50       1.0  0.34653  0.90778  0.26272  1.0000
  C   C51       1.0  0.38291  0.93729  0.25948  1.0000
  C   C52       1.0  0.47196  0.15947  0.26547  1.0000
  C   C53       1.0  0.46118  0.18630  0.26935  1.0000
  C   C54       1.0  0.67556  0.18286  0.25956  1.0000
  C   C55       1.0  0.73737  0.21483  0.32802  1.0000
  C   C56       1.0  0.71189  0.21246  0.26252  1.0000
  H   H25       1.0  0.71910  0.23277  0.21631  1.0000
  H   H26       1.0  0.65865  0.18213  0.20950  1.0000
  H   H27       1.0  0.66727  0.09434  0.32616  1.0000
  H   H28       1.0  0.55735  0.06012  0.33100  1.0000
  H   H29       1.0  0.50129  0.06014  0.33081  1.0000
  H   H30       1.0  0.46249  0.14093  0.21416  1.0000
  H   H31       1.0  0.44306  0.18511  0.22235  1.0000
  H   H32       1.0  0.39138  0.02594  0.32592  1.0000
  H   H33       1.0  0.48874  0.91951  0.32505  1.0000
  H   H34       1.0  0.42923  0.91950  0.33577  1.0000
  H   H35       1.0  0.39976  0.93782  0.20945  1.0000
  H   H36       1.0  0.33922  0.88738  0.21668  1.0000
  H   H37       1.0  0.59610  0.97908  0.21388  1.0000
  H   H38       1.0  0.61516  0.93461  0.22221  1.0000
  C   C57       1.0  0.23072  0.49823  0.25051  1.0000
  C   C58       1.0  0.26492  0.49904  0.25139  1.0000
  O   O1        1.0  0.21292  0.49276  0.17084  1.0000
  O   O2        1.0  0.28184  0.50301  0.17131  1.0000
  H   H39       1.0  0.22803  0.51414  0.13249  1.0000
  H   H40       1.0  0.26865  0.47901  0.14097  1.0000
  C   C59       1.0  0.59054  0.82410  0.25014  1.0000
  C   C60       1.0  0.58975  0.85749  0.25105  1.0000
  O   O3        1.0  0.59601  0.81173  0.17046  1.0000
  O   O4        1.0  0.58576  0.87040  0.17097  1.0000
  H   H41       1.0  0.57463  0.80544  0.13212  1.0000
  H   H42       1.0  0.60976  0.88120  0.14062  1.0000
  C   C61       1.0  0.26464  0.85800  0.25047  1.0000
  C   C62       1.0  0.23125  0.82382  0.25146  1.0000
  O   O5        1.0  0.27698  0.87578  0.17077  1.0000
  O   O6        1.0  0.21834  0.80686  0.17141  1.0000
  H   H43       1.0  0.28326  0.86067  0.13242  1.0000
  H   H44       1.0  0.20753  0.82002  0.14101  1.0000
  C   C63       1.0  0.82598  0.62246  0.25047  1.0000
  C   C64       1.0  0.79155  0.62117  0.25136  1.0000
  O   O7        1.0  0.84395  0.62829  0.17090  1.0000
  O   O8        1.0  0.77467  0.61705  0.17121  1.0000
  H   H45       1.0  0.82911  0.60693  0.13226  1.0000
  H   H46       1.0  0.78763  0.64110  0.14106  1.0000
  C   C65       1.0  0.46631  0.29512  0.25015  1.0000
  C   C66       1.0  0.46764  0.26201  0.25103  1.0000
  O   O9        1.0  0.46047  0.30722  0.17058  1.0000
  O   O10       1.0  0.47171  0.24915  0.17089  1.0000
  H   H47       1.0  0.48182  0.31371  0.13192  1.0000
  H   H48       1.0  0.44767  0.23809  0.14076  1.0000
  C   C67       1.0  0.79368  0.26280  0.25043  1.0000
  C   C68       1.0  0.82679  0.29723  0.25142  1.0000
  O   O11       1.0  0.78161  0.24485  0.17081  1.0000
  O   O12       1.0  0.83967  0.31416  0.17133  1.0000
  H   H49       1.0  0.77514  0.25972  0.13216  1.0000
  H   H50       1.0  0.85076  0.30118  0.14119  1.0000
  C   C69       1.0  0.00975  0.65184  0.32937  1.0000
  C   C70       1.0  0.04757  0.67074  0.33401  1.0000
  C   C71       1.0  0.05982  0.64527  0.33217  1.0000
  N   N5        1.0  0.02864  0.61177  0.33160  1.0000
  C   C72       1.0  0.99747  0.61411  0.33108  1.0000
  C   C73       1.0  0.95977  0.58570  0.33176  1.0000
  N   N6        1.0  0.96877  0.53089  0.33202  1.0000
  C   C74       1.0  0.94797  0.49365  0.33122  1.0000
  C   C75       1.0  0.91146  0.48590  0.32934  1.0000
  C   C76       1.0  0.91148  0.51864  0.33481  1.0000
  C   C77       1.0  0.95971  0.46707  0.33202  1.0000
  C   C78       1.0  0.99743  0.47637  0.33241  1.0000
  N   N7        1.0  0.02861  0.50987  0.33150  1.0000
  C   C79       1.0  0.05978  0.50754  0.33071  1.0000
  C   C80       1.0  0.04750  0.46980  0.32894  1.0000
  C   C81       1.0  0.00969  0.45091  0.33420  1.0000
  N   N8        1.0  0.08848  0.59073  0.33124  1.0000
  C   C82       1.0  0.10926  0.62797  0.33041  1.0000
  C   C83       1.0  0.09752  0.65455  0.33148  1.0000
  C   C84       1.0  0.12538  0.69287  0.33353  1.0000
  C   C85       1.0  0.15141  0.70700  0.40327  1.0000
  C   C86       1.0  0.18102  0.74333  0.40043  1.0000
  C   C87       1.0  0.18341  0.76884  0.33499  1.0000
  C   C88       1.0  0.12794  0.50345  0.39726  1.0000
  C   C89       1.0  0.15478  0.49268  0.39345  1.0000
  C   C90       1.0  0.18308  0.50706  0.32837  1.0000
  C   C91       1.0  0.93186  0.42873  0.33373  1.0000
  C   C92       1.0  0.87413  0.35260  0.33488  1.0000
  C   C93       1.0  0.87622  0.37805  0.40019  1.0000
  C   C94       1.0  0.90567  0.41447  0.40317  1.0000
  C   C95       1.0  0.93192  0.59618  0.32971  1.0000
  C   C96       1.0  0.92914  0.61812  0.39737  1.0000
  C   C97       1.0  0.90215  0.62869  0.39341  1.0000
  C   C98       1.0  0.87391  0.61414  0.32823  1.0000
  H   H51       1.0  0.90311  0.64666  0.44058  1.0000
  H   H52       1.0  0.94759  0.62762  0.44882  1.0000
  H   H53       1.0  0.06291  0.69879  0.33668  1.0000
  H   H54       1.0  0.02863  0.58886  0.33155  1.0000
  H   H55       1.0  0.02862  0.53278  0.33149  1.0000
  H   H56       1.0  0.88802  0.52031  0.33726  1.0000
  H   H57       1.0  0.88798  0.46079  0.32659  1.0000
  H   H58       1.0  0.90628  0.43133  0.45327  1.0000
  H   H59       1.0  0.85584  0.37076  0.44626  1.0000
  H   H60       1.0  0.99436  0.42287  0.33722  1.0000
  H   H61       1.0  0.10940  0.49400  0.44856  1.0000
  H   H62       1.0  0.15358  0.47458  0.44048  1.0000
  H   H63       1.0  0.20134  0.75049  0.44657  1.0000
  H   H64       1.0  0.15070  0.69006  0.45323  1.0000
  C   C99       1.0  0.41802  0.46846  0.33380  1.0000
  N   N9        1.0  0.47699  0.50851  0.33126  1.0000
  C   C100      1.0  0.47464  0.47500  0.33070  1.0000
  C   C101      1.0  0.50305  0.46570  0.33138  1.0000
  N   N10       1.0  0.55786  0.52950  0.33164  1.0000
  C   C102      1.0  0.59510  0.54595  0.33086  1.0000
  C   C103      1.0  0.60286  0.51719  0.32899  1.0000
  C   C104      1.0  0.57011  0.48446  0.33438  1.0000
  C   C105      1.0  0.62168  0.58427  0.33172  1.0000
  N   N11       1.0  0.57888  0.61036  0.33132  1.0000
  C   C106      1.0  0.58122  0.64387  0.33050  1.0000
  C   C107      1.0  0.63785  0.65041  0.33414  1.0000
  C   C108      1.0  0.46079  0.57293  0.33011  1.0000
  C   C109      1.0  0.43421  0.53461  0.33118  1.0000
  C   C110      1.0  0.39589  0.52415  0.33324  1.0000
  C   C111      1.0  0.38177  0.53608  0.40301  1.0000
  C   C112      1.0  0.34543  0.52934  0.40021  1.0000
  C   C113      1.0  0.31991  0.50618  0.33481  1.0000
  C   C114      1.0  0.58532  0.71616  0.39690  1.0000
  C   C115      1.0  0.59608  0.75376  0.39311  1.0000
  C   C116      1.0  0.66002  0.59475  0.33345  1.0000
  C   C117      1.0  0.73614  0.61314  0.33467  1.0000
  C   C118      1.0  0.71068  0.58983  0.39999  1.0000
  C   C119      1.0  0.67427  0.58287  0.40295  1.0000
  C   C120      1.0  0.49256  0.42737  0.32934  1.0000
  C   C121      1.0  0.47061  0.40268  0.39699  1.0000
  C   C122      1.0  0.46006  0.36513  0.39308  1.0000
  C   C123      1.0  0.47461  0.35139  0.32791  1.0000
  H   H65       1.0  0.44209  0.34814  0.44026  1.0000
  H   H66       1.0  0.46113  0.41167  0.44846  1.0000
  H   H67       1.0  0.38996  0.45575  0.33624  1.0000
  H   H68       1.0  0.49989  0.53140  0.33125  1.0000
  H   H69       1.0  0.55598  0.58747  0.33122  1.0000
  H   H70       1.0  0.56844  0.45934  0.33698  1.0000
  H   H71       1.0  0.62796  0.51881  0.32632  1.0000
  H   H72       1.0  0.65739  0.56661  0.45299  1.0000
  H   H73       1.0  0.71796  0.57674  0.44605  1.0000
  H   H74       1.0  0.66589  0.66312  0.33677  1.0000
  H   H75       1.0  0.59475  0.70709  0.44825  1.0000
  H   H76       1.0  0.61417  0.77069  0.44017  1.0000
  H   H77       1.0  0.33827  0.54252  0.44637  1.0000
  H   H78       1.0  0.39871  0.55233  0.45296  1.0000
  C   C124      1.0  0.62030  0.04119  0.33358  1.0000
  C   C125      1.0  0.61376  0.09128  0.33057  1.0000
  N   N12       1.0  0.55925  0.11999  0.33135  1.0000
  C   C126      1.0  0.54280  0.14078  0.33050  1.0000
  C   C127      1.0  0.57156  0.17730  0.32862  1.0000
  C   C128      1.0  0.60429  0.17728  0.33408  1.0000
  C   C129      1.0  0.50448  0.12904  0.33134  1.0000
  C   C130      1.0  0.44488  0.02898  0.33021  1.0000
  C   C131      1.0  0.43835  0.07907  0.33377  1.0000
  C   C132      1.0  0.51583  0.97949  0.32982  1.0000
  C   C133      1.0  0.55415  0.99124  0.33086  1.0000
  C   C134      1.0  0.55268  0.93735  0.40266  1.0000
  C   C135      1.0  0.55942  0.90775  0.39986  1.0000
  C   C136      1.0  0.37264  0.96085  0.39684  1.0000
  C   C137      1.0  0.33503  0.93401  0.39314  1.0000
  C   C138      1.0  0.49400  0.15690  0.33311  1.0000
  C   C139      1.0  0.47561  0.21463  0.33436  1.0000
  C   C140      1.0  0.49893  0.21252  0.39966  1.0000
  C   C141      1.0  0.50590  0.18307  0.40258  1.0000
  C   C142      1.0  0.66138  0.15683  0.32928  1.0000
  C   C143      1.0  0.68604  0.15960  0.39703  1.0000
  C   C144      1.0  0.72359  0.18659  0.39320  1.0000
  H   H79       1.0  0.74057  0.18560  0.44037  1.0000
  H   H80       1.0  0.67703  0.14111  0.44842  1.0000
  H   H81       1.0  0.63301  0.02585  0.33592  1.0000
  H   H82       1.0  0.62941  0.20074  0.33670  1.0000
  H   H83       1.0  0.56993  0.20077  0.32592  1.0000
  H   H84       1.0  0.52214  0.18247  0.45265  1.0000
  H   H85       1.0  0.51203  0.23291  0.44572  1.0000
  H   H86       1.0  0.42562  0.09440  0.33654  1.0000
  H   H87       1.0  0.38173  0.97938  0.44816  1.0000
  H   H88       1.0  0.31813  0.93519  0.44028  1.0000
  H   H89       1.0  0.54625  0.88744  0.44602  1.0000
  H   H90       1.0  0.53642  0.93805  0.45261  1.0000
  C   C145      1.0  0.28283  0.50022  0.33267  1.0000
  C   C146      1.0  0.26364  0.49788  0.41262  1.0000
  C   C147      1.0  0.23051  0.49916  0.41173  1.0000
  C   C148      1.0  0.21396  0.50070  0.33048  1.0000
  O   O13       1.0  0.21765  0.50324  0.49186  1.0000
  H   H91       1.0  0.20660  0.47920  0.52202  1.0000
  O   O14       1.0  0.27579  0.49211  0.49221  1.0000
  H   H92       1.0  0.28227  0.51349  0.53077  1.0000
  C   C149      1.0  0.58857  0.87426  0.33231  1.0000
  C   C150      1.0  0.59088  0.85743  0.41226  1.0000
  C   C151      1.0  0.58963  0.82302  0.41136  1.0000
  C   C152      1.0  0.58807  0.80490  0.33011  1.0000
  O   O15       1.0  0.58549  0.80612  0.49151  1.0000
  H   H93       1.0  0.60952  0.81909  0.52172  1.0000
  O   O16       1.0  0.59665  0.87537  0.49186  1.0000
  H   H94       1.0  0.57526  0.86050  0.53040  1.0000
  C   C153      1.0  0.21453  0.80592  0.33278  1.0000
  C   C154      1.0  0.23139  0.82512  0.41268  1.0000
  C   C155      1.0  0.26581  0.85826  0.41170  1.0000
  C   C156      1.0  0.28388  0.87479  0.33039  1.0000
  O   O17       1.0  0.28275  0.87114  0.49178  1.0000
  H   H95       1.0  0.26975  0.88220  0.52197  1.0000
  O   O18       1.0  0.21349  0.81300  0.49234  1.0000
  H   H96       1.0  0.22839  0.80652  0.53084  1.0000
  C   C157      1.0  0.77339  0.61954  0.33261  1.0000
  C   C158      1.0  0.79257  0.62197  0.41259  1.0000
  C   C159      1.0  0.82598  0.62121  0.41169  1.0000
  C   C160      1.0  0.84278  0.62009  0.33042  1.0000
  O   O19       1.0  0.83889  0.61720  0.49175  1.0000
  H   H97       1.0  0.84966  0.64119  0.52217  1.0000
  O   O20       1.0  0.78016  0.62736  0.49229  1.0000
  H   H98       1.0  0.77388  0.60596  0.53054  1.0000
  C   C161      1.0  0.46924  0.24550  0.33229  1.0000
  C   C162      1.0  0.46678  0.26227  0.41227  1.0000
  C   C163      1.0  0.46754  0.29643  0.41135  1.0000
  C   C164      1.0  0.46865  0.31431  0.33009  1.0000
  O   O21       1.0  0.47153  0.31338  0.49143  1.0000
  H   H99       1.0  0.44755  0.30018  0.52182  1.0000
  O   O22       1.0  0.46140  0.24450  0.49196  1.0000
  H   H100      1.0  0.48280  0.25964  0.53021  1.0000
  C   C165      1.0  0.84328  0.31535  0.33273  1.0000
  C   C166      1.0  0.82646  0.29615  0.41265  1.0000
  C   C167      1.0  0.79230  0.26272  0.41164  1.0000
  C   C168      1.0  0.77445  0.24596  0.33031  1.0000
  O   O23       1.0  0.77531  0.24981  0.49167  1.0000
  H   H101      1.0  0.78847  0.23902  0.52212  1.0000
  O   O24       1.0  0.84419  0.30853  0.49239  1.0000
  H   H102      1.0  0.82903  0.31481  0.53060  1.0000
