data_image0
_chemical_formula_structural       C4HCHCHC2HC2NO2C2HO2CHCHC4NOH2CHNOC5OHC4HOC4OHC4HOC4OHC2H2C2H2C2H2C2HC2H2C2H2C2H2C2H2C2H2C2H2C2H2C4H4C4H4C3HOC8H2N2O4C3HNO2C8H2N2O4C8H2N2O4C8H2N2O4
_chemical_formula_sum              "C108 H54 N12 O30"
_cell_length_a       31.7985
_cell_length_b       31.7984
_cell_length_c       14.7513
_cell_angle_alpha    90
_cell_angle_beta     90
_cell_angle_gamma    120

_space_group_name_H-M_alt    "P 1"
_space_group_IT_number       1

loop_
  _space_group_symop_operation_xyz
  'x, y, z'

loop_
  _atom_site_type_symbol
  _atom_site_label
  _atom_site_symmetry_multiplicity
  _atom_site_fract_x
  _atom_site_fract_y
  _atom_site_fract_z
  _atom_site_occupancy
  C   C1        1.0  0.03938  0.52158  0.35880  1.0000
  C   C2        1.0  0.06761  0.57298  0.34571  1.0000
  C   C3        1.0  0.11906  0.59879  0.34182  1.0000
  C   C4        1.0  0.14382  0.57236  0.34951  1.0000
  H   H1        1.0  0.05091  0.59287  0.33592  1.0000
  C   C5        1.0  0.15430  0.47803  0.29671  1.0000
  H   H2        1.0  0.13485  0.47407  0.23886  1.0000
  C   C6        1.0  0.18092  0.67363  0.26619  1.0000
  H   H3        1.0  0.18031  0.65398  0.21070  1.0000
  C   C7        1.0  0.11811  0.52184  0.36692  1.0000
  C   C8        1.0  0.06675  0.49747  0.37098  1.0000
  H   H4        1.0  0.04957  0.46126  0.38515  1.0000
  C   C9        1.0  0.14537  0.49740  0.37586  1.0000
  C   C10       1.0  0.17542  0.50524  0.45299  1.0000
  N   N1        1.0  0.16927  0.52215  0.53810  1.0000
  O   O1        1.0  0.17745  0.56504  0.53652  1.0000
  O   O2        1.0  0.12746  0.49502  0.56943  1.0000
  C   C11       1.0  0.15132  0.67894  0.41405  1.0000
  C   C12       1.0  0.14711  0.65073  0.33695  1.0000
  H   H5        1.0  0.12804  0.66289  0.46734  1.0000
  O   O3        1.0  0.15667  0.76046  0.50859  1.0000
  O   O4        1.0  0.19355  0.59656  0.34736  1.0000
  C   C13       1.0  0.19329  0.46890  0.29235  1.0000
  H   H6        1.0  0.19955  0.45704  0.23209  1.0000
  C   C14       1.0  0.21961  0.72156  0.27530  1.0000
  H   H7        1.0  0.20281  0.59153  0.28641  1.0000
  C   C15       1.0  0.21508  0.49694  0.44635  1.0000
  C   C16       1.0  0.22601  0.48005  0.36568  1.0000
  C   C17       1.0  0.22612  0.74936  0.35477  1.0000
  C   C18       1.0  0.18991  0.72768  0.42360  1.0000
  N   N2        1.0  0.19283  0.75465  0.50215  1.0000
  O   O5        1.0  0.19564  0.73442  0.57337  1.0000
  H   H8        1.0  0.27436  0.82158  0.23214  1.0000
  H   H9        1.0  0.24531  0.73451  0.22523  1.0000
  C   C19       1.0  0.27172  0.48095  0.35480  1.0000
  H   H10       1.0  0.23865  0.50743  0.49979  1.0000
  N   N3        1.0  0.26633  0.44227  0.50211  1.0000
  O   O6        1.0  0.26051  0.40030  0.50848  1.0000
  C   C20       1.0  0.27091  0.79507  0.36570  1.0000
  C   C21       1.0  0.98593  0.49527  0.35884  1.0000
  C   C22       1.0  0.88148  0.44449  0.34960  1.0000
  C   C23       1.0  0.90624  0.41805  0.34191  1.0000
  C   C24       1.0  0.95769  0.44386  0.34579  1.0000
  O   O7        1.0  0.83176  0.42028  0.34745  1.0000
  H   H11       1.0  0.97439  0.42398  0.33590  1.0000
  C   C25       1.0  0.49950  0.52200  0.35887  1.0000
  C   C26       1.0  0.44809  0.49884  0.34585  1.0000
  C   C27       1.0  0.42228  0.52448  0.34203  1.0000
  C   C28       1.0  0.44872  0.57567  0.34970  1.0000
  H   H12       1.0  0.42819  0.46225  0.33596  1.0000
  O   O8        1.0  0.42452  0.60119  0.34760  1.0000
  C   C29       1.0  0.52579  0.49485  0.35884  1.0000
  C   C30       1.0  0.57656  0.44117  0.34961  1.0000
  C   C31       1.0  0.60301  0.49236  0.34194  1.0000
  C   C32       1.0  0.57720  0.51801  0.34575  1.0000
  O   O9        1.0  0.60076  0.41564  0.34750  1.0000
  H   H13       1.0  0.59709  0.55460  0.33594  1.0000
  C   C33       1.0  0.49907  0.98172  0.35880  1.0000
  C   C34       1.0  0.52223  0.95348  0.34568  1.0000
  C   C35       1.0  0.49659  0.90203  0.34178  1.0000
  C   C36       1.0  0.44540  0.87727  0.34949  1.0000
  H   H14       1.0  0.55882  0.97018  0.33588  1.0000
  O   O10       1.0  0.41988  0.82755  0.34733  1.0000
  C   C37       1.0  0.52620  0.03516  0.35884  1.0000
  C   C38       1.0  0.57986  0.13961  0.34961  1.0000
  C   C39       1.0  0.52868  0.11485  0.34191  1.0000
  C   C40       1.0  0.50303  0.06340  0.34579  1.0000
  O   O11       1.0  0.60538  0.18933  0.34746  1.0000
  H   H15       1.0  0.46645  0.04670  0.33590  1.0000
  C   C41       1.0  0.34750  0.51153  0.26632  1.0000
  C   C42       1.0  0.29956  0.50229  0.27538  1.0000
  H   H16       1.0  0.36717  0.53059  0.21088  1.0000
  H   H17       1.0  0.28663  0.51506  0.22530  1.0000
  C   C43       1.0  0.55215  0.72858  0.29239  1.0000
  C   C44       1.0  0.54302  0.68046  0.29684  1.0000
  H   H18       1.0  0.56399  0.74666  0.23210  1.0000
  H   H19       1.0  0.54698  0.66495  0.23900  1.0000
  C   C45       1.0  0.50955  0.84015  0.26617  1.0000
  C   C46       1.0  0.51879  0.80147  0.27529  1.0000
  H   H20       1.0  0.49050  0.84075  0.21069  1.0000
  H   H21       1.0  0.50601  0.77575  0.22523  1.0000
  C   C47       1.0  0.29247  0.82782  0.29239  1.0000
  C   C48       1.0  0.34059  0.86682  0.29677  1.0000
  H   H22       1.0  0.35608  0.88629  0.23893  1.0000
  C   C49       1.0  0.83201  0.54794  0.29238  1.0000
  C   C50       1.0  0.87101  0.53881  0.29677  1.0000
  H   H23       1.0  0.82576  0.55979  0.23211  1.0000
  H   H24       1.0  0.89047  0.54278  0.23893  1.0000
  C   C51       1.0  0.67782  0.50531  0.26625  1.0000
  C   C52       1.0  0.72575  0.51455  0.27534  1.0000
  H   H25       1.0  0.65816  0.48626  0.21079  1.0000
  H   H26       1.0  0.73868  0.50177  0.22527  1.0000
  C   C53       1.0  0.47312  0.28830  0.29239  1.0000
  C   C54       1.0  0.48224  0.33642  0.29679  1.0000
  H   H27       1.0  0.46127  0.27021  0.23211  1.0000
  H   H28       1.0  0.47829  0.35193  0.23895  1.0000
  C   C55       1.0  0.51573  0.17672  0.26624  1.0000
  C   C56       1.0  0.50649  0.21541  0.27534  1.0000
  H   H29       1.0  0.53478  0.17612  0.21078  1.0000
  H   H30       1.0  0.51927  0.24113  0.22529  1.0000
  C   C57       1.0  0.73279  0.18905  0.29241  1.0000
  C   C58       1.0  0.68466  0.15005  0.29681  1.0000
  H   H31       1.0  0.75089  0.19528  0.23215  1.0000
  H   H32       1.0  0.66917  0.13059  0.23897  1.0000
  C   C59       1.0  0.84438  0.34323  0.26623  1.0000
  C   C60       1.0  0.80569  0.29530  0.27533  1.0000
  H   H33       1.0  0.84500  0.36288  0.21076  1.0000
  H   H34       1.0  0.77998  0.28236  0.22526  1.0000
  C   C61       1.0  0.95856  0.51937  0.37104  1.0000
  C   C62       1.0  0.90720  0.49500  0.36702  1.0000
  H   H35       1.0  0.82250  0.42532  0.28652  1.0000
  H   H36       1.0  0.97574  0.55559  0.38515  1.0000
  C   C63       1.0  0.49925  0.60047  0.36705  1.0000
  C   C64       1.0  0.52360  0.57347  0.37109  1.0000
  C   C65       1.0  0.50168  0.44338  0.37104  1.0000
  C   C66       1.0  0.52604  0.41638  0.36700  1.0000
  H   H37       1.0  0.42956  0.61551  0.28669  1.0000
  H   H38       1.0  0.59572  0.40133  0.28656  1.0000
  H   H39       1.0  0.55983  0.59250  0.38518  1.0000
  H   H40       1.0  0.46547  0.42435  0.38523  1.0000
  C   C67       1.0  0.42060  0.90299  0.36694  1.0000
  C   C68       1.0  0.44759  0.95435  0.37100  1.0000
  C   C69       1.0  0.57767  0.06253  0.37106  1.0000
  C   C70       1.0  0.60466  0.11389  0.36704  1.0000
  H   H41       1.0  0.40557  0.81829  0.28640  1.0000
  H   H42       1.0  0.61970  0.19859  0.28654  1.0000
  H   H43       1.0  0.42856  0.97153  0.38519  1.0000
  H   H44       1.0  0.59671  0.04535  0.38517  1.0000
  C   C71       1.0  0.29335  0.46637  0.42362  1.0000
  C   C72       1.0  0.34210  0.47653  0.41417  1.0000
  C   C73       1.0  0.37034  0.50059  0.33715  1.0000
  H   H45       1.0  0.35812  0.46926  0.46746  1.0000
  O   O12       1.0  0.28653  0.46527  0.57339  1.0000
  C   C74       1.0  0.52369  0.65217  0.37603  1.0000
  C   C75       1.0  0.51587  0.67444  0.45309  1.0000
  C   C76       1.0  0.52415  0.72239  0.44640  1.0000
  C   C77       1.0  0.54102  0.75018  0.36569  1.0000
  C   C78       1.0  0.54011  0.79498  0.35474  1.0000
  C   C79       1.0  0.55467  0.83121  0.42352  1.0000
  C   C80       1.0  0.54451  0.86979  0.41397  1.0000
  C   C81       1.0  0.52048  0.87398  0.33691  1.0000
  H   H46       1.0  0.55177  0.89309  0.46724  1.0000
  H   H47       1.0  0.51366  0.73548  0.49981  1.0000
  N   N4        1.0  0.57875  0.82831  0.50206  1.0000
  N   N5        1.0  0.49898  0.65141  0.53824  1.0000
  O   O13       1.0  0.55574  0.82553  0.57330  1.0000
  O   O14       1.0  0.45610  0.61668  0.53670  1.0000
  O   O15       1.0  0.62072  0.86447  0.50842  1.0000
  O   O16       1.0  0.52613  0.63676  0.56959  1.0000
  C   C82       1.0  0.36890  0.87572  0.37590  1.0000
  C   C83       1.0  0.34669  0.84565  0.45301  1.0000
  C   C84       1.0  0.29874  0.80599  0.44636  1.0000
  H   H48       1.0  0.28567  0.78240  0.49977  1.0000
  N   N6        1.0  0.36976  0.85178  0.53811  1.0000
  O   O17       1.0  0.40448  0.84362  0.53650  1.0000
  O   O18       1.0  0.38443  0.89358  0.56947  1.0000
  C   C85       1.0  0.87993  0.51944  0.37593  1.0000
  C   C86       1.0  0.84987  0.51160  0.45304  1.0000
  C   C87       1.0  0.81021  0.51989  0.44638  1.0000
  C   C88       1.0  0.79928  0.53678  0.36570  1.0000
  C   C89       1.0  0.75358  0.53587  0.35478  1.0000
  C   C90       1.0  0.73191  0.55043  0.42359  1.0000
  C   C91       1.0  0.68317  0.54028  0.41407  1.0000
  C   C92       1.0  0.65494  0.51625  0.33701  1.0000
  H   H49       1.0  0.66714  0.54754  0.46735  1.0000
  H   H50       1.0  0.78663  0.50939  0.49980  1.0000
  N   N7        1.0  0.75891  0.57451  0.50211  1.0000
  N   N8        1.0  0.85601  0.49469  0.53817  1.0000
  O   O19       1.0  0.73869  0.55150  0.57336  1.0000
  O   O20       1.0  0.84785  0.45180  0.53660  1.0000
  O   O21       1.0  0.76473  0.61649  0.50850  1.0000
  O   O22       1.0  0.89782  0.52182  0.56950  1.0000
  C   C93       1.0  0.50159  0.36466  0.37600  1.0000
  C   C94       1.0  0.50944  0.34247  0.45312  1.0000
  C   C95       1.0  0.50114  0.29452  0.44641  1.0000
  C   C96       1.0  0.48426  0.26671  0.36572  1.0000
  C   C97       1.0  0.48516  0.22191  0.35478  1.0000
  C   C98       1.0  0.47059  0.18568  0.42358  1.0000
  C   C99       1.0  0.48075  0.14710  0.41404  1.0000
  C   C100      1.0  0.50478  0.14290  0.33699  1.0000
  H   H51       1.0  0.47348  0.12380  0.46732  1.0000
  H   H52       1.0  0.51163  0.28142  0.49983  1.0000
  N   N9        1.0  0.44651  0.18859  0.50209  1.0000
  N   N10       1.0  0.52635  0.36552  0.53824  1.0000
  O   O23       1.0  0.46951  0.19137  0.57335  1.0000
  O   O24       1.0  0.56923  0.40025  0.53665  1.0000
  O   O25       1.0  0.40453  0.15243  0.50846  1.0000
  O   O26       1.0  0.49921  0.38019  0.56957  1.0000
  C   C101      1.0  0.65637  0.14116  0.37595  1.0000
  C   C102      1.0  0.67859  0.17122  0.45306  1.0000
  C   C103      1.0  0.72655  0.21088  0.44639  1.0000
  C   C104      1.0  0.75437  0.22179  0.36572  1.0000
  C   C105      1.0  0.79917  0.26748  0.35480  1.0000
  C   C106      1.0  0.83539  0.28915  0.42360  1.0000
  C   C107      1.0  0.87398  0.33789  0.41408  1.0000
  C   C108      1.0  0.87820  0.36612  0.33700  1.0000
  H   H53       1.0  0.89727  0.35392  0.46737  1.0000
  H   H54       1.0  0.73963  0.23446  0.49981  1.0000
  N   N11       1.0  0.83246  0.26216  0.50215  1.0000
  N   N12       1.0  0.65554  0.16509  0.53818  1.0000
  O   O27       1.0  0.82967  0.28239  0.57338  1.0000
  O   O28       1.0  0.62083  0.17327  0.53660  1.0000
  O   O29       1.0  0.86861  0.25634  0.50856  1.0000
  O   O30       1.0  0.64086  0.12329  0.56954  1.0000
