data_image0
_chemical_formula_structural       C2HC2H4CH4C3H2NHC3H2NHC2H2NHC29H17C3O3C29H17C3O3C3NOCHNHC3NOCHNHC2NONH
_chemical_formula_sum              "C87 H57 N9 O9"
_cell_length_a       45.0715
_cell_length_b       45.0715
_cell_length_c       14.9858
_cell_angle_alpha    90
_cell_angle_beta     90
_cell_angle_gamma    120

_space_group_name_H-M_alt    "P 1"
_space_group_IT_number       1

loop_
  _space_group_symop_operation_xyz
  'x, y, z'

loop_
  _atom_site_type_symbol
  _atom_site_label
  _atom_site_symmetry_multiplicity
  _atom_site_fract_x
  _atom_site_fract_y
  _atom_site_fract_z
  _atom_site_occupancy
  C   C1        1.0  0.00861  0.51067  0.54490  1.0000
  C   C2        1.0  0.01528  0.50256  0.24899  1.0000
  H   H1        1.0  0.01158  0.51372  0.61243  1.0000
  C   C3        1.0  0.02172  0.51238  0.40770  1.0000
  C   C4        1.0  0.40779  0.85455  0.32899  1.0000
  H   H2        1.0  0.39677  0.86954  0.33478  1.0000
  H   H3        1.0  0.36017  0.80936  0.31650  1.0000
  H   H4        1.0  0.47372  0.60443  0.33478  1.0000
  H   H5        1.0  0.13165  0.52747  0.33478  1.0000
  C   C5        1.0  0.59299  0.14625  0.34046  1.0000
  H   H6        1.0  0.60393  0.13115  0.33631  1.0000
  H   H7        1.0  0.64055  0.19128  0.35600  1.0000
  H   H8        1.0  0.52815  0.39723  0.33620  1.0000
  H   H9        1.0  0.87004  0.47304  0.33623  1.0000
  C   C6        1.0  0.48507  0.52146  0.32361  1.0000
  C   C7        1.0  0.49861  0.51294  0.24900  1.0000
  C   C8        1.0  0.51414  0.49260  0.25851  1.0000
  H   H10       1.0  0.52257  0.48609  0.20254  1.0000
  H   H11       1.0  0.49663  0.52103  0.18662  1.0000
  N   N1        1.0  0.47098  0.54208  0.31359  1.0000
  H   H12       1.0  0.48206  0.56067  0.27048  1.0000
  C   C9        1.0  0.47972  0.96384  0.32357  1.0000
  C   C10       1.0  0.48824  0.98591  0.24898  1.0000
  C   C11       1.0  0.50858  0.02178  0.25851  1.0000
  H   H13       1.0  0.51509  0.03673  0.20257  1.0000
  H   H14       1.0  0.48017  0.97586  0.18660  1.0000
  N   N2        1.0  0.45911  0.92914  0.31351  1.0000
  H   H15       1.0  0.44051  0.92161  0.27043  1.0000
  C   C12       1.0  0.03734  0.51610  0.32359  1.0000
  C   C13       1.0  0.97942  0.48703  0.25849  1.0000
  H   H16       1.0  0.96447  0.47860  0.20253  1.0000
  H   H17       1.0  0.02535  0.50454  0.18661  1.0000
  N   N3        1.0  0.07205  0.53018  0.31357  1.0000
  H   H18       1.0  0.07956  0.51910  0.27048  1.0000
  C   C14       1.0  0.44380  0.86914  0.33436  1.0000
  C   C15       1.0  0.45730  0.84678  0.32946  1.0000
  C   C16       1.0  0.43571  0.81123  0.31891  1.0000
  C   C17       1.0  0.39975  0.79680  0.31455  1.0000
  C   C18       1.0  0.38611  0.81898  0.31891  1.0000
  C   C19       1.0  0.37789  0.76174  0.30533  1.0000
  C   C20       1.0  0.37881  0.73830  0.35908  1.0000
  C   C21       1.0  0.35651  0.70323  0.35221  1.0000
  C   C22       1.0  0.32057  0.68932  0.35289  1.0000
  C   C23       1.0  0.29796  0.65351  0.35233  1.0000
  C   C24       1.0  0.31187  0.63148  0.35294  1.0000
  C   C25       1.0  0.34767  0.64468  0.35231  1.0000
  C   C26       1.0  0.36970  0.68061  0.35285  1.0000
  C   C27       1.0  0.36045  0.62238  0.35916  1.0000
  C   C28       1.0  0.38479  0.62329  0.30536  1.0000
  C   C29       1.0  0.39799  0.60143  0.31458  1.0000
  C   C30       1.0  0.43381  0.61508  0.31894  1.0000
  C   C31       1.0  0.37648  0.56548  0.31899  1.0000
  C   C32       1.0  0.39043  0.54389  0.32960  1.0000
  C   C33       1.0  0.42630  0.55740  0.33444  1.0000
  C   C34       1.0  0.44771  0.59341  0.32896  1.0000
  C   C35       1.0  0.26289  0.64074  0.35919  1.0000
  C   C36       1.0  0.23945  0.61638  0.30543  1.0000
  C   C37       1.0  0.20439  0.60319  0.31463  1.0000
  C   C38       1.0  0.18996  0.62470  0.31898  1.0000
  C   C39       1.0  0.18222  0.56737  0.31901  1.0000
  C   C40       1.0  0.14664  0.55348  0.32900  1.0000
  C   C41       1.0  0.13204  0.57489  0.33436  1.0000
  C   C42       1.0  0.15441  0.61076  0.32950  1.0000
  H   H19       1.0  0.48318  0.85618  0.33241  1.0000
  H   H20       1.0  0.44650  0.79597  0.31477  1.0000
  H   H21       1.0  0.39569  0.69044  0.35574  1.0000
  H   H22       1.0  0.31075  0.70549  0.35578  1.0000
  H   H23       1.0  0.29570  0.60549  0.35586  1.0000
  H   H24       1.0  0.20522  0.65076  0.31484  1.0000
  H   H25       1.0  0.45013  0.64102  0.31643  1.0000
  H   H26       1.0  0.37396  0.51802  0.33258  1.0000
  H   H27       1.0  0.35042  0.55468  0.31487  1.0000
  H   H28       1.0  0.14500  0.62723  0.33243  1.0000
  H   H29       1.0  0.19183  0.55104  0.31654  1.0000
  H   H30       1.0  0.39493  0.64122  0.25824  1.0000
  H   H31       1.0  0.35058  0.60464  0.40680  1.0000
  H   H32       1.0  0.35994  0.75397  0.25828  1.0000
  H   H33       1.0  0.39658  0.74618  0.40666  1.0000
  H   H34       1.0  0.24723  0.60622  0.25834  1.0000
  H   H35       1.0  0.25501  0.65063  0.40678  1.0000
  C   C43       1.0  0.09614  0.56105  0.34742  1.0000
  C   C44       1.0  0.44015  0.53535  0.34760  1.0000
  C   C45       1.0  0.46586  0.90504  0.34742  1.0000
  O   O1        1.0  0.42027  0.50516  0.38994  1.0000
  O   O2        1.0  0.49602  0.91535  0.38993  1.0000
  O   O3        1.0  0.08583  0.58091  0.38990  1.0000
  C   C46       1.0  0.55710  0.13185  0.33177  1.0000
  C   C47       1.0  0.54368  0.15432  0.33455  1.0000
  C   C48       1.0  0.56527  0.18980  0.34616  1.0000
  C   C49       1.0  0.60114  0.20409  0.35351  1.0000
  C   C50       1.0  0.61467  0.18178  0.35139  1.0000
  C   C51       1.0  0.62303  0.23913  0.36332  1.0000
  C   C52       1.0  0.62249  0.26272  0.30934  1.0000
  C   C53       1.0  0.64483  0.29774  0.31677  1.0000
  C   C54       1.0  0.68075  0.31155  0.31614  1.0000
  C   C55       1.0  0.70344  0.34733  0.31675  1.0000
  C   C56       1.0  0.68964  0.36945  0.31616  1.0000
  C   C57       1.0  0.65385  0.35635  0.31675  1.0000
  C   C58       1.0  0.63174  0.32043  0.31617  1.0000
  C   C59       1.0  0.64116  0.37869  0.30932  1.0000
  C   C60       1.0  0.61704  0.37815  0.36331  1.0000
  C   C61       1.0  0.60389  0.40003  0.35350  1.0000
  C   C62       1.0  0.56805  0.38650  0.35135  1.0000
  C   C63       1.0  0.62547  0.43591  0.34615  1.0000
  C   C64       1.0  0.61156  0.45749  0.33452  1.0000
  C   C65       1.0  0.57568  0.44407  0.33170  1.0000
  C   C66       1.0  0.55419  0.40818  0.34042  1.0000
  C   C67       1.0  0.73847  0.36002  0.30932  1.0000
  C   C68       1.0  0.76205  0.38414  0.36330  1.0000
  C   C69       1.0  0.79709  0.39730  0.35348  1.0000
  C   C70       1.0  0.81139  0.37572  0.34611  1.0000
  C   C71       1.0  0.81940  0.43313  0.35129  1.0000
  C   C72       1.0  0.85493  0.44699  0.34036  1.0000
  C   C73       1.0  0.86933  0.42550  0.33167  1.0000
  C   C74       1.0  0.84688  0.38962  0.33448  1.0000
  H   H36       1.0  0.51787  0.14501  0.32928  1.0000
  H   H37       1.0  0.55453  0.20514  0.34868  1.0000
  H   H38       1.0  0.60576  0.31068  0.31307  1.0000
  H   H39       1.0  0.69051  0.29532  0.31307  1.0000
  H   H40       1.0  0.70587  0.39543  0.31306  1.0000
  H   H41       1.0  0.79605  0.34964  0.34864  1.0000
  H   H42       1.0  0.55167  0.36062  0.35594  1.0000
  H   H43       1.0  0.62807  0.48330  0.32925  1.0000
  H   H44       1.0  0.65154  0.44665  0.34868  1.0000
  H   H45       1.0  0.85618  0.37312  0.32917  1.0000
  H   H46       1.0  0.80990  0.44952  0.35599  1.0000
  H   H47       1.0  0.60702  0.36046  0.41106  1.0000
  H   H48       1.0  0.65090  0.39616  0.26100  1.0000
  H   H49       1.0  0.64072  0.24680  0.41107  1.0000
  H   H50       1.0  0.60502  0.25498  0.26101  1.0000
  H   H51       1.0  0.75439  0.39416  0.41106  1.0000
  H   H52       1.0  0.74621  0.35029  0.26098  1.0000
  C   C75       1.0  0.90514  0.43933  0.31723  1.0000
  C   C76       1.0  0.56186  0.46606  0.31731  1.0000
  C   C77       1.0  0.53510  0.09604  0.31741  1.0000
  O   O4        1.0  0.58107  0.49518  0.27002  1.0000
  O   O5        1.0  0.50599  0.08613  0.27008  1.0000
  O   O6        1.0  0.91506  0.42011  0.27004  1.0000
  C   C78       1.0  0.51751  0.48074  0.34341  1.0000
  C   C79       1.0  0.50396  0.48936  0.41752  1.0000
  C   C80       1.0  0.48879  0.50956  0.40771  1.0000
  N   N4        1.0  0.48071  0.51497  0.48922  1.0000
  O   O7        1.0  0.50535  0.48156  0.50467  1.0000
  C   C81       1.0  0.49051  0.49816  0.54491  1.0000
  H   H53       1.0  0.48746  0.49808  0.61245  1.0000
  N   N5        1.0  0.53186  0.46038  0.35464  1.0000
  H   H54       1.0  0.52139  0.44244  0.39970  1.0000
  C   C82       1.0  0.52043  0.03701  0.34343  1.0000
  C   C83       1.0  0.51181  0.01483  0.41753  1.0000
  C   C84       1.0  0.49161  0.97946  0.40769  1.0000
  N   N6        1.0  0.48620  0.96596  0.48918  1.0000
  O   O8        1.0  0.51960  0.02401  0.50468  1.0000
  C   C85       1.0  0.50299  0.99256  0.54491  1.0000
  H   H55       1.0  0.50307  0.98958  0.61244  1.0000
  N   N7        1.0  0.54079  0.07171  0.35470  1.0000
  H   H56       1.0  0.55873  0.07918  0.39976  1.0000
  C   C86       1.0  0.96417  0.48366  0.34340  1.0000
  C   C87       1.0  0.98635  0.49721  0.41751  1.0000
  N   N8        1.0  0.03522  0.52047  0.48920  1.0000
  O   O9        1.0  0.97717  0.49583  0.50466  1.0000
  N   N9        1.0  0.92947  0.46932  0.35464  1.0000
  H   H57       1.0  0.92200  0.47979  0.39970  1.0000
