data_image0
_chemical_formula_structural       C6H6N2C8H5CN2HNC8H5CN2HNC8H5CN2HNC3H2CHC3H2CHC3H2CHC3H2CHC3H2CHC3H2CHC12H5CNC2NHN2C10H6CNCN2C10H6CNCN2C10H6CNCN2C3H2CHC3H2CHC3H2CHC3H2CHC3H2CHC3H2CH
_chemical_formula_sum              "C132 H84 N24"
_cell_length_a       57.0184
_cell_length_b       57.0282
_cell_length_c       14.8675
_cell_angle_alpha    90
_cell_angle_beta     90
_cell_angle_gamma    119.978

_space_group_name_H-M_alt    "P 1"
_space_group_IT_number       1

loop_
  _space_group_symop_operation_xyz
  'x, y, z'

loop_
  _atom_site_type_symbol
  _atom_site_label
  _atom_site_symmetry_multiplicity
  _atom_site_fract_x
  _atom_site_fract_y
  _atom_site_fract_z
  _atom_site_occupancy
  C   C1        1.0  0.96963  0.02774  0.33943  1.0000
  C   C2        1.0  0.93058  0.89953  0.35518  1.0000
  C   C3        1.0  0.94424  0.92804  0.35754  1.0000
  C   C4        1.0  0.94162  0.01395  0.31843  1.0000
  C   C5        1.0  0.92683  0.02768  0.31464  1.0000
  C   C6        1.0  0.93933  0.05556  0.33412  1.0000
  H   H1        1.0  0.91019  0.88899  0.36717  1.0000
  H   H2        1.0  0.93325  0.93723  0.37278  1.0000
  H   H3        1.0  0.93168  0.99373  0.30353  1.0000
  H   H4        1.0  0.90674  0.01710  0.29778  1.0000
  H   H5        1.0  0.11118  0.02305  0.36726  1.0000
  H   H6        1.0  0.06293  0.99785  0.37283  1.0000
  N   N1        1.0  0.97234  0.98642  0.34059  1.0000
  N   N2        1.0  0.92478  0.06791  0.32614  1.0000
  C   C7        1.0  0.46313  0.27609  0.35695  1.0000
  C   C8        1.0  0.36099  0.20486  0.36021  1.0000
  C   C9        1.0  0.33248  0.19067  0.36368  1.0000
  C   C10       1.0  0.50785  0.19740  0.35002  1.0000
  C   C11       1.0  0.49102  0.20874  0.35339  1.0000
  C   C12       1.0  0.48878  0.28709  0.39928  1.0000
  C   C13       1.0  0.50692  0.31506  0.40046  1.0000
  C   C14       1.0  0.50018  0.33301  0.35846  1.0000
  H   H7        1.0  0.32266  0.20072  0.38326  1.0000
  H   H8        1.0  0.50006  0.22893  0.36806  1.0000
  H   H9        1.0  0.52817  0.20969  0.36085  1.0000
  H   H10       1.0  0.49484  0.27480  0.42901  1.0000
  H   H11       1.0  0.52549  0.32211  0.43005  1.0000
  C   C15       1.0  0.44658  0.24754  0.34852  1.0000
  N   N3        1.0  0.45915  0.23283  0.34505  1.0000
  N   N4        1.0  0.41909  0.23363  0.34355  1.0000
  H   H12       1.0  0.37090  0.22484  0.37828  1.0000
  N   N5        1.0  0.51937  0.35880  0.35955  1.0000
  C   C16       1.0  0.72422  0.18916  0.35707  1.0000
  C   C17       1.0  0.79544  0.15823  0.36023  1.0000
  C   C18       1.0  0.80962  0.14389  0.36369  1.0000
  C   C19       1.0  0.80289  0.31250  0.35035  1.0000
  C   C20       1.0  0.79157  0.28436  0.35379  1.0000
  C   C21       1.0  0.71322  0.20380  0.39946  1.0000
  C   C22       1.0  0.68525  0.19401  0.40052  1.0000
  C   C23       1.0  0.66730  0.16936  0.35832  1.0000
  H   H13       1.0  0.79955  0.12402  0.38325  1.0000
  H   H14       1.0  0.77140  0.27321  0.36868  1.0000
  H   H15       1.0  0.79060  0.32053  0.36139  1.0000
  H   H16       1.0  0.72550  0.22212  0.42928  1.0000
  H   H17       1.0  0.67819  0.20552  0.43012  1.0000
  C   C24       1.0  0.75277  0.20115  0.34862  1.0000
  N   N6        1.0  0.76748  0.22842  0.34519  1.0000
  N   N7        1.0  0.76669  0.18758  0.34361  1.0000
  H   H18       1.0  0.77545  0.14817  0.37829  1.0000
  N   N8        1.0  0.64152  0.16282  0.35914  1.0000
  C   C25       1.0  0.81103  0.53701  0.35695  1.0000
  C   C26       1.0  0.84194  0.63913  0.36017  1.0000
  C   C27       1.0  0.85627  0.66763  0.36360  1.0000
  C   C28       1.0  0.68767  0.49236  0.35045  1.0000
  C   C29       1.0  0.71582  0.50919  0.35387  1.0000
  C   C30       1.0  0.79639  0.51136  0.39927  1.0000
  C   C31       1.0  0.80621  0.49321  0.40044  1.0000
  C   C32       1.0  0.83089  0.49994  0.35836  1.0000
  H   H19       1.0  0.87615  0.67743  0.38314  1.0000
  H   H20       1.0  0.72698  0.50017  0.36877  1.0000
  H   H21       1.0  0.67965  0.47205  0.36150  1.0000
  H   H22       1.0  0.77805  0.50532  0.42906  1.0000
  H   H23       1.0  0.79471  0.47465  0.43002  1.0000
  C   C33       1.0  0.79903  0.55357  0.34854  1.0000
  N   N9        1.0  0.77175  0.54102  0.34515  1.0000
  N   N10       1.0  0.81259  0.58105  0.34356  1.0000
  H   H24       1.0  0.85200  0.62921  0.37825  1.0000
  N   N11       1.0  0.83748  0.48073  0.35935  1.0000
  C   C34       1.0  0.22534  0.11071  0.24835  1.0000
  C   C35       1.0  0.19732  0.09678  0.26643  1.0000
  C   C36       1.0  0.24458  0.12016  0.31893  1.0000
  H   H25       1.0  0.18414  0.08951  0.21338  1.0000
  H   H26       1.0  0.23155  0.11333  0.18265  1.0000
  C   C37       1.0  0.27204  0.13171  0.29944  1.0000
  H   H27       1.0  0.27741  0.12544  0.24468  1.0000
  C   C38       1.0  0.88948  0.11655  0.24829  1.0000
  C   C39       1.0  0.90338  0.10243  0.26635  1.0000
  C   C40       1.0  0.88007  0.12638  0.31888  1.0000
  H   H28       1.0  0.91063  0.09649  0.21328  1.0000
  H   H29       1.0  0.88686  0.12015  0.18260  1.0000
  C   C41       1.0  0.86856  0.14234  0.29942  1.0000
  H   H30       1.0  0.87487  0.15399  0.24472  1.0000
  C   C42       1.0  0.88359  0.77481  0.24830  1.0000
  C   C43       1.0  0.89772  0.80282  0.26638  1.0000
  C   C44       1.0  0.87376  0.75557  0.31888  1.0000
  H   H31       1.0  0.90365  0.81600  0.21332  1.0000
  H   H32       1.0  0.87999  0.76859  0.18260  1.0000
  C   C45       1.0  0.85780  0.72811  0.29939  1.0000
  H   H33       1.0  0.84616  0.72278  0.24466  1.0000
  C   C46       1.0  0.59616  0.14669  0.33499  1.0000
  C   C47       1.0  0.57948  0.14563  0.26292  1.0000
  C   C48       1.0  0.55725  0.14953  0.27793  1.0000
  H   H34       1.0  0.58411  0.14331  0.19819  1.0000
  H   H35       1.0  0.54656  0.15006  0.22343  1.0000
  C   C49       1.0  0.61967  0.14583  0.31865  1.0000
  H   H36       1.0  0.62011  0.13390  0.27064  1.0000
  C   C50       1.0  0.85360  0.45150  0.33504  1.0000
  C   C51       1.0  0.85462  0.43586  0.26295  1.0000
  C   C52       1.0  0.85067  0.40972  0.27792  1.0000
  H   H37       1.0  0.85691  0.44281  0.19821  1.0000
  H   H38       1.0  0.85016  0.39852  0.22343  1.0000
  C   C53       1.0  0.85448  0.47589  0.31879  1.0000
  H   H39       1.0  0.86627  0.48814  0.27036  1.0000
  C   C54       1.0  0.54862  0.40411  0.33509  1.0000
  C   C55       1.0  0.56427  0.42073  0.26295  1.0000
  C   C56       1.0  0.59042  0.44289  0.27791  1.0000
  H   H40       1.0  0.55736  0.41602  0.19820  1.0000
  H   H41       1.0  0.60166  0.45351  0.22337  1.0000
  C   C57       1.0  0.52422  0.38062  0.31887  1.0000
  H   H42       1.0  0.51202  0.38011  0.27010  1.0000
  C   C58       1.0  0.97238  0.94370  0.33945  1.0000
  C   C59       1.0  0.05641  0.03046  0.33942  1.0000
  C   C60       1.0  0.98618  0.92948  0.31847  1.0000
  C   C61       1.0  0.97245  0.90097  0.31469  1.0000
  C   C62       1.0  0.94457  0.88559  0.33424  1.0000
  C   C63       1.0  0.96724  0.06954  0.35514  1.0000
  C   C64       1.0  0.98210  0.05587  0.35750  1.0000
  C   C65       1.0  0.07060  0.05847  0.31841  1.0000
  C   C66       1.0  0.09911  0.07326  0.31462  1.0000
  C   C67       1.0  0.11453  0.06079  0.33424  1.0000
  C   C68       1.0  0.10061  0.03288  0.35520  1.0000
  C   C69       1.0  0.07210  0.01801  0.35756  1.0000
  H   H43       1.0  0.98304  0.89146  0.29781  1.0000
  H   H44       1.0  0.00227  0.06685  0.37276  1.0000
  H   H45       1.0  0.97709  0.08993  0.36709  1.0000
  H   H46       1.0  0.06031  0.06839  0.30336  1.0000
  H   H47       1.0  0.10860  0.09335  0.29771  1.0000
  C   C70       1.0  0.02745  0.01529  0.34069  1.0000
  N   N12       1.0  0.01238  0.02775  0.34058  1.0000
  C   C71       1.0  0.98480  0.01395  0.34070  1.0000
  C   C72       1.0  0.98616  0.97265  0.34070  1.0000
  N   N13       1.0  0.01370  0.98772  0.34059  1.0000
  H   H48       1.0  0.00639  0.93975  0.30350  1.0000
  N   N14       1.0  0.14141  0.07534  0.32621  1.0000
  N   N15       1.0  0.93222  0.85871  0.32621  1.0000
  C   C73       1.0  0.46278  0.19305  0.33626  1.0000
  C   C74       1.0  0.37569  0.19180  0.33570  1.0000
  C   C75       1.0  0.31754  0.16303  0.34055  1.0000
  C   C76       1.0  0.33193  0.14977  0.31584  1.0000
  C   C77       1.0  0.36046  0.16390  0.31372  1.0000
  C   C78       1.0  0.45216  0.16527  0.31611  1.0000
  C   C79       1.0  0.46913  0.15381  0.31239  1.0000
  C   C80       1.0  0.49709  0.16967  0.33082  1.0000
  C   C81       1.0  0.47435  0.32247  0.31837  1.0000
  C   C82       1.0  0.45594  0.29431  0.31833  1.0000
  H   H49       1.0  0.32171  0.12954  0.30121  1.0000
  H   H50       1.0  0.36999  0.15341  0.29612  1.0000
  H   H51       1.0  0.43200  0.15320  0.30223  1.0000
  H   H52       1.0  0.46096  0.13377  0.29644  1.0000
  H   H53       1.0  0.46897  0.33513  0.28771  1.0000
  H   H54       1.0  0.43778  0.28716  0.28606  1.0000
  C   C83       1.0  0.44645  0.20558  0.33767  1.0000
  N   N16       1.0  0.41889  0.19249  0.33346  1.0000
  C   C84       1.0  0.40468  0.20602  0.33629  1.0000
  N   N17       1.0  0.51362  0.15954  0.32403  1.0000
  N   N18       1.0  0.29063  0.15030  0.34856  1.0000
  C   C85       1.0  0.80726  0.27180  0.33640  1.0000
  C   C86       1.0  0.80851  0.18598  0.33575  1.0000
  C   C87       1.0  0.83726  0.15656  0.34057  1.0000
  C   C88       1.0  0.85053  0.18419  0.31588  1.0000
  C   C89       1.0  0.83642  0.19862  0.31378  1.0000
  C   C90       1.0  0.83503  0.28896  0.31600  1.0000
  C   C91       1.0  0.84647  0.31738  0.31222  1.0000
  C   C92       1.0  0.83060  0.32947  0.33088  1.0000
  C   C93       1.0  0.67785  0.15408  0.31817  1.0000
  C   C94       1.0  0.70600  0.16378  0.31831  1.0000
  H   H55       1.0  0.87077  0.19419  0.30123  1.0000
  H   H56       1.0  0.84692  0.21863  0.29618  1.0000
  H   H57       1.0  0.84710  0.28088  0.30192  1.0000
  H   H58       1.0  0.86649  0.32924  0.29606  1.0000
  H   H59       1.0  0.66519  0.13608  0.28728  1.0000
  H   H60       1.0  0.71316  0.15281  0.28584  1.0000
  C   C95       1.0  0.79473  0.24295  0.33781  1.0000
  N   N19       1.0  0.80783  0.22848  0.33354  1.0000
  C   C96       1.0  0.79431  0.20076  0.33635  1.0000
  N   N20       1.0  0.84072  0.35612  0.32402  1.0000
  N   N21       1.0  0.84997  0.14236  0.34853  1.0000
  C   C97       1.0  0.72835  0.53741  0.33645  1.0000
  C   C98       1.0  0.81418  0.62446  0.33575  1.0000
  C   C99       1.0  0.84360  0.68261  0.34044  1.0000
  C   C100      1.0  0.81596  0.66826  0.31584  1.0000
  C   C101      1.0  0.80153  0.63972  0.31377  1.0000
  C   C102      1.0  0.71118  0.54802  0.31606  1.0000
  C   C103      1.0  0.68276  0.53103  0.31226  1.0000
  C   C104      1.0  0.67068  0.50309  0.33096  1.0000
  C   C105      1.0  0.84617  0.52577  0.31830  1.0000
  C   C106      1.0  0.83644  0.54419  0.31835  1.0000
  H   H61       1.0  0.80595  0.67849  0.30121  1.0000
  H   H62       1.0  0.78151  0.63022  0.29622  1.0000
  H   H63       1.0  0.71925  0.56815  0.30189  1.0000
  H   H64       1.0  0.67088  0.53918  0.29607  1.0000
  H   H65       1.0  0.86419  0.53112  0.28752  1.0000
  H   H66       1.0  0.84742  0.56233  0.28596  1.0000
  C   C107      1.0  0.75721  0.55374  0.33782  1.0000
  N   N22       1.0  0.77167  0.58129  0.33357  1.0000
  C   C108      1.0  0.79940  0.59548  0.33635  1.0000
  N   N23       1.0  0.64402  0.48655  0.32407  1.0000
  N   N24       1.0  0.85779  0.70951  0.34846  1.0000
  C   C109      1.0  0.18754  0.09156  0.35592  1.0000
  C   C110      1.0  0.20678  0.10131  0.42651  1.0000
  C   C111      1.0  0.23480  0.11547  0.40843  1.0000
  H   H67       1.0  0.20056  0.09761  0.49220  1.0000
  H   H68       1.0  0.24799  0.12141  0.46147  1.0000
  C   C112      1.0  0.16009  0.07546  0.37525  1.0000
  H   H69       1.0  0.15479  0.06364  0.42955  1.0000
  C   C113      1.0  0.90862  0.09788  0.35584  1.0000
  C   C114      1.0  0.89890  0.10740  0.42644  1.0000
  C   C115      1.0  0.88476  0.12128  0.40838  1.0000
  H   H70       1.0  0.90263  0.10490  0.49212  1.0000
  H   H71       1.0  0.87888  0.12859  0.46143  1.0000
  C   C116      1.0  0.92470  0.08650  0.37515  1.0000
  H   H72       1.0  0.93654  0.09302  0.42940  1.0000
  C   C117      1.0  0.90226  0.81260  0.35587  1.0000
  C   C118      1.0  0.89272  0.79336  0.42646  1.0000
  C   C119      1.0  0.87886  0.76535  0.40838  1.0000
  H   H73       1.0  0.89524  0.79958  0.49214  1.0000
  H   H74       1.0  0.87154  0.75216  0.46141  1.0000
  C   C120      1.0  0.91364  0.84005  0.37521  1.0000
  H   H75       1.0  0.90712  0.84536  0.42949  1.0000
  C   C121      1.0  0.56717  0.15459  0.43783  1.0000
  C   C122      1.0  0.58934  0.15071  0.42293  1.0000
  C   C123      1.0  0.55090  0.15442  0.36559  1.0000
  H   H76       1.0  0.60106  0.15183  0.47678  1.0000
  H   H77       1.0  0.56365  0.15854  0.50212  1.0000
  C   C124      1.0  0.53179  0.16234  0.38146  1.0000
  H   H78       1.0  0.53364  0.17259  0.43795  1.0000
  C   C125      1.0  0.84574  0.41463  0.43789  1.0000
  C   C126      1.0  0.84962  0.44068  0.42300  1.0000
  C   C127      1.0  0.84583  0.39850  0.36560  1.0000
  H   H79       1.0  0.84853  0.45128  0.47686  1.0000
  H   H80       1.0  0.84181  0.40717  0.50219  1.0000
  C   C128      1.0  0.83796  0.37150  0.38151  1.0000
  H   H81       1.0  0.82775  0.36311  0.43809  1.0000
  C   C129      1.0  0.58548  0.43313  0.43791  1.0000
  C   C130      1.0  0.55942  0.41099  0.42306  1.0000
  C   C131      1.0  0.60163  0.44928  0.36559  1.0000
  H   H82       1.0  0.54880  0.39933  0.47695  1.0000
  H   H83       1.0  0.59293  0.43667  0.50223  1.0000
  C   C132      1.0  0.62865  0.46837  0.38142  1.0000
  H   H84       1.0  0.63704  0.46654  0.43799  1.0000
