data_image0
_chemical_formula_structural       C3H2NHC3H2NHC3H2NHCNCNCNC18H12C3O3CNCNCNC18H12C3O3C3HCH3NHC3HCH3NHC3HCH3NH
_chemical_formula_sum              "C69 H48 N12 O6"
_cell_length_a       36.7506
_cell_length_b       36.75
_cell_length_c       15.0907
_cell_angle_alpha    90
_cell_angle_beta     90
_cell_angle_gamma    120

_space_group_name_H-M_alt    "P 1"
_space_group_IT_number       1

loop_
  _space_group_symop_operation_xyz
  'x, y, z'

loop_
  _atom_site_type_symbol
  _atom_site_label
  _atom_site_symmetry_multiplicity
  _atom_site_fract_x
  _atom_site_fract_y
  _atom_site_fract_z
  _atom_site_occupancy
  C   C1        1.0  0.52158  0.47960  0.31651  1.0000
  C   C2        1.0  0.47970  0.50940  0.26140  1.0000
  C   C3        1.0  0.50398  0.49041  0.24541  1.0000
  H   H1        1.0  0.46862  0.51832  0.20837  1.0000
  H   H2        1.0  0.50946  0.48525  0.18141  1.0000
  N   N1        1.0  0.54325  0.45916  0.29985  1.0000
  H   H3        1.0  0.53199  0.43777  0.25349  1.0000
  C   C4        1.0  0.51289  0.04047  0.31651  1.0000
  C   C5        1.0  0.48309  0.96879  0.26139  1.0000
  C   C6        1.0  0.50208  0.01206  0.24540  1.0000
  H   H4        1.0  0.47416  0.94880  0.20836  1.0000
  H   H5        1.0  0.50722  0.02269  0.18140  1.0000
  N   N2        1.0  0.53332  0.08258  0.29984  1.0000
  H   H6        1.0  0.55471  0.09272  0.25349  1.0000
  C   C7        1.0  0.95200  0.47092  0.31647  1.0000
  C   C8        1.0  0.02368  0.51281  0.26137  1.0000
  C   C9        1.0  0.98041  0.48855  0.24537  1.0000
  H   H7        1.0  0.04368  0.52389  0.20834  1.0000
  H   H8        1.0  0.96978  0.48303  0.18137  1.0000
  N   N3        1.0  0.90989  0.44921  0.29977  1.0000
  H   H9        1.0  0.89975  0.46048  0.25347  1.0000
  C   C10       1.0  0.28605  0.64782  0.32524  1.0000
  N   N4        1.0  0.30265  0.62207  0.32524  1.0000
  C   C11       1.0  0.34465  0.63672  0.32521  1.0000
  N   N5        1.0  0.37041  0.67907  0.32520  1.0000
  C   C12       1.0  0.35575  0.70642  0.32519  1.0000
  N   N6        1.0  0.31340  0.68983  0.32523  1.0000
  C   C13       1.0  0.36106  0.60897  0.32493  1.0000
  C   C14       1.0  0.33442  0.56484  0.33090  1.0000
  C   C15       1.0  0.35095  0.53762  0.33051  1.0000
  C   C16       1.0  0.39476  0.55373  0.32535  1.0000
  C   C17       1.0  0.42138  0.59767  0.31802  1.0000
  C   C18       1.0  0.40485  0.62478  0.31802  1.0000
  C   C19       1.0  0.24189  0.63142  0.32498  1.0000
  C   C20       1.0  0.21391  0.58763  0.31810  1.0000
  C   C21       1.0  0.17027  0.57111  0.31812  1.0000
  C   C22       1.0  0.15295  0.59774  0.32538  1.0000
  C   C23       1.0  0.18066  0.64154  0.33051  1.0000
  C   C24       1.0  0.22441  0.65807  0.33092  1.0000
  C   C25       1.0  0.38351  0.75058  0.32489  1.0000
  C   C26       1.0  0.36770  0.77856  0.31797  1.0000
  C   C27       1.0  0.39481  0.82220  0.31800  1.0000
  C   C28       1.0  0.43876  0.83952  0.32533  1.0000
  C   C29       1.0  0.45486  0.81182  0.33046  1.0000
  C   C30       1.0  0.42764  0.76807  0.33086  1.0000
  H   H10       1.0  0.15136  0.53934  0.31072  1.0000
  H   H11       1.0  0.22484  0.56703  0.31218  1.0000
  H   H12       1.0  0.16926  0.66180  0.33556  1.0000
  H   H13       1.0  0.24330  0.68995  0.33585  1.0000
  H   H14       1.0  0.33617  0.76763  0.31207  1.0000
  H   H15       1.0  0.38195  0.84111  0.31063  1.0000
  H   H16       1.0  0.44063  0.74919  0.33585  1.0000
  H   H17       1.0  0.48652  0.82322  0.33558  1.0000
  H   H18       1.0  0.42545  0.65631  0.31211  1.0000
  H   H19       1.0  0.45315  0.61054  0.31066  1.0000
  H   H20       1.0  0.33069  0.50596  0.33558  1.0000
  H   H21       1.0  0.30254  0.55184  0.33585  1.0000
  C   C31       1.0  0.10881  0.58074  0.32380  1.0000
  C   C32       1.0  0.46590  0.88367  0.32379  1.0000
  C   C33       1.0  0.41176  0.52658  0.32381  1.0000
  O   O1        1.0  0.38937  0.48879  0.28332  1.0000
  O   O2        1.0  0.50370  0.89907  0.28331  1.0000
  O   O3        1.0  0.09342  0.60314  0.28329  1.0000
  C   C34       1.0  0.70492  0.34606  0.31517  1.0000
  N   N7        1.0  0.68842  0.37189  0.31539  1.0000
  C   C35       1.0  0.64643  0.35735  0.31509  1.0000
  N   N8        1.0  0.62060  0.31502  0.31537  1.0000
  C   C36       1.0  0.63514  0.28757  0.31513  1.0000
  N   N9        1.0  0.67747  0.30407  0.31542  1.0000
  C   C37       1.0  0.63015  0.38520  0.31826  1.0000
  C   C38       1.0  0.65702  0.42934  0.32244  1.0000
  C   C39       1.0  0.64064  0.45658  0.32903  1.0000
  C   C40       1.0  0.59679  0.44057  0.33008  1.0000
  C   C41       1.0  0.56988  0.39657  0.32583  1.0000
  C   C42       1.0  0.58625  0.36941  0.32000  1.0000
  C   C43       1.0  0.74905  0.36234  0.31837  1.0000
  C   C44       1.0  0.77716  0.40623  0.32016  1.0000
  C   C45       1.0  0.82069  0.42260  0.32603  1.0000
  C   C46       1.0  0.83777  0.39568  0.33016  1.0000
  C   C47       1.0  0.80993  0.35184  0.32905  1.0000
  C   C48       1.0  0.76631  0.33546  0.32249  1.0000
  C   C49       1.0  0.60729  0.24344  0.31831  1.0000
  C   C50       1.0  0.62307  0.21533  0.32005  1.0000
  C   C51       1.0  0.59591  0.17180  0.32591  1.0000
  C   C52       1.0  0.55191  0.15471  0.33010  1.0000
  C   C53       1.0  0.53590  0.18255  0.32904  1.0000
  C   C54       1.0  0.56315  0.22618  0.32247  1.0000
  H   H22       1.0  0.83964  0.45452  0.32989  1.0000
  H   H23       1.0  0.76638  0.42706  0.31847  1.0000
  H   H24       1.0  0.82116  0.33138  0.33224  1.0000
  H   H25       1.0  0.74733  0.30350  0.32192  1.0000
  H   H26       1.0  0.65468  0.22611  0.31841  1.0000
  H   H27       1.0  0.60888  0.15285  0.32985  1.0000
  H   H28       1.0  0.55017  0.24516  0.32191  1.0000
  H   H29       1.0  0.50423  0.17133  0.33227  1.0000
  H   H30       1.0  0.56543  0.33780  0.31833  1.0000
  H   H31       1.0  0.53797  0.38360  0.32980  1.0000
  H   H32       1.0  0.66109  0.48826  0.33230  1.0000
  H   H33       1.0  0.68898  0.44231  0.32192  1.0000
  C   C55       1.0  0.88170  0.41260  0.33968  1.0000
  C   C56       1.0  0.52491  0.11079  0.33971  1.0000
  C   C57       1.0  0.57987  0.46757  0.33972  1.0000
  O   O4        1.0  0.60131  0.50258  0.38994  1.0000
  O   O5        1.0  0.48990  0.09721  0.38993  1.0000
  O   O6        1.0  0.89528  0.39117  0.38987  1.0000
  C   C58       1.0  0.51298  0.48675  0.40408  1.0000
  C   C59       1.0  0.48838  0.50566  0.42158  1.0000
  C   C60       1.0  0.47129  0.51683  0.34894  1.0000
  H   H34       1.0  0.52411  0.47714  0.45585  1.0000
  C   C61       1.0  0.47943  0.51190  0.51474  1.0000
  H   H35       1.0  0.49294  0.49977  0.56280  1.0000
  H   H36       1.0  0.44553  0.49572  0.52555  1.0000
  H   H37       1.0  0.49248  0.54534  0.52797  1.0000
  N   N10       1.0  0.44959  0.53760  0.36128  1.0000
  H   H38       1.0  0.46281  0.56238  0.39919  1.0000
  C   C62       1.0  0.50575  0.02473  0.40408  1.0000
  C   C63       1.0  0.48684  0.98121  0.42157  1.0000
  C   C64       1.0  0.47567  0.95296  0.34894  1.0000
  H   H39       1.0  0.51535  0.04547  0.45584  1.0000
  C   C65       1.0  0.48059  0.96603  0.51473  1.0000
  H   H40       1.0  0.49272  0.99166  0.56280  1.0000
  H   H41       1.0  0.49677  0.94830  0.52555  1.0000
  H   H42       1.0  0.44716  0.94564  0.52796  1.0000
  N   N11       1.0  0.45488  0.91048  0.36125  1.0000
  H   H43       1.0  0.43011  0.89893  0.39917  1.0000
  C   C66       1.0  0.96774  0.47953  0.40405  1.0000
  C   C67       1.0  0.01125  0.50414  0.42155  1.0000
  C   C68       1.0  0.03951  0.52123  0.34892  1.0000
  H   H44       1.0  0.94699  0.46836  0.45580  1.0000
  C   C69       1.0  0.02644  0.51307  0.51471  1.0000
  H   H45       1.0  0.00080  0.49957  0.56277  1.0000
  H   H46       1.0  0.04416  0.54698  0.52554  1.0000
  H   H47       1.0  0.04682  0.50002  0.52794  1.0000
  N   N12       1.0  0.08199  0.54291  0.36125  1.0000
  H   H48       1.0  0.09353  0.52969  0.39919  1.0000
