data_image0
_chemical_formula_structural       C6H4C2HC3N2HC2NC6HNC2HC19H12C2NC2HNCH2N2HC6H4C2HC3N2HC2NC6HNC2HC19H12C2NC2HNCH2N2HC6H4C2HC3N2HC2NC6HNC2HC19H12C2NC2HNCH2N2HC6H4C2HC3N2HC2NC6HNC2HC19H12C2NC2HNCH2N2H
_chemical_formula_sum              "C180 H96 N32"
_cell_length_a       32.5872
_cell_length_b       32.5876
_cell_length_c       15.0955
_cell_angle_alpha    90
_cell_angle_beta     90
_cell_angle_gamma    90.052

_space_group_name_H-M_alt    "P 1"
_space_group_IT_number       1

loop_
  _space_group_symop_operation_xyz
  'x, y, z'

loop_
  _atom_site_type_symbol
  _atom_site_label
  _atom_site_symmetry_multiplicity
  _atom_site_fract_x
  _atom_site_fract_y
  _atom_site_fract_z
  _atom_site_occupancy
  C   C1        1.0  0.07864  0.03421  0.05452  1.0000
  C   C2        1.0  0.09626  0.49692  0.08273  1.0000
  C   C3        1.0  0.07846  0.45960  0.05483  1.0000
  C   C4        1.0  0.41491  0.45984  0.05469  1.0000
  C   C5        1.0  0.39710  0.99718  0.08236  1.0000
  C   C6        1.0  0.41500  0.03442  0.05437  1.0000
  H   H1        1.0  0.09227  0.06166  0.07002  1.0000
  H   H2        1.0  0.09212  0.43213  0.06980  1.0000
  H   H3        1.0  0.40118  0.43240  0.06982  1.0000
  H   H4        1.0  0.40126  0.06187  0.06914  1.0000
  C   C7        1.0  0.99678  0.28965  0.26662  1.0000
  C   C8        1.0  0.99674  0.33298  0.26920  1.0000
  H   H5        1.0  0.99678  0.34947  0.21151  1.0000
  C   C9        1.0  0.49690  0.14026  0.35166  1.0000
  C   C10       1.0  0.49694  0.16065  0.26886  1.0000
  C   C11       1.0  0.49688  0.20399  0.26645  1.0000
  N   N1        1.0  0.49693  0.22665  0.19057  1.0000
  N   N2        1.0  0.99688  0.26706  0.19065  1.0000
  H   H6        1.0  0.49703  0.14422  0.21110  1.0000
  C   C12       1.0  0.13917  0.99677  0.09239  1.0000
  C   C13       1.0  0.16015  0.99680  0.17420  1.0000
  N   N3        1.0  0.20195  0.99679  0.17527  1.0000
  C   C14       1.0  0.22507  0.99674  0.10002  1.0000
  C   C15       1.0  0.20489  0.99670  0.01677  1.0000
  C   C16       1.0  0.16219  0.99671  0.01330  1.0000
  C   C17       1.0  0.26833  0.99679  0.09997  1.0000
  C   C18       1.0  0.35423  0.99696  0.09216  1.0000
  C   C19       1.0  0.33117  0.99691  0.01311  1.0000
  H   H7        1.0  0.14439  0.99687  0.23274  1.0000
  N   N4        1.0  0.29148  0.99686  0.17517  1.0000
  C   C20       1.0  0.28848  0.99681  0.01668  1.0000
  C   C21       1.0  0.33329  0.99695  0.17402  1.0000
  H   H8        1.0  0.34908  0.99702  0.23252  1.0000
  C   C22       1.0  0.49653  0.39611  0.36344  1.0000
  C   C23       1.0  0.45930  0.41414  0.39087  1.0000
  C   C24       1.0  0.45955  0.44665  0.45186  1.0000
  C   C25       1.0  0.49670  0.46156  0.48916  1.0000
  C   C26       1.0  0.03378  0.44665  0.45167  1.0000
  C   C27       1.0  0.03386  0.41398  0.39112  1.0000
  C   C28       1.0  0.49679  0.99693  0.55490  1.0000
  C   C29       1.0  0.49688  0.03222  0.48895  1.0000
  C   C30       1.0  0.03404  0.04708  0.45161  1.0000
  C   C31       1.0  0.03427  0.07963  0.39075  1.0000
  C   C32       1.0  0.49701  0.09741  0.36280  1.0000
  C   C33       1.0  0.45966  0.07952  0.39020  1.0000
  C   C34       1.0  0.45979  0.04706  0.45132  1.0000
  C   C35       1.0  0.46153  0.99702  0.62094  1.0000
  C   C36       1.0  0.03204  0.49693  0.62097  1.0000
  C   C37       1.0  0.04665  0.03405  0.65901  1.0000
  C   C38       1.0  0.04660  0.45981  0.65896  1.0000
  C   C39       1.0  0.44691  0.45995  0.65917  1.0000
  C   C40       1.0  0.44695  0.03417  0.65873  1.0000
  H   H9        1.0  0.03589  0.06177  0.63745  1.0000
  H   H10       1.0  0.03580  0.43209  0.63735  1.0000
  H   H11       1.0  0.45763  0.43221  0.63768  1.0000
  H   H12       1.0  0.45775  0.06187  0.63700  1.0000
  H   H13       1.0  0.43206  0.03618  0.47261  1.0000
  H   H14       1.0  0.43221  0.09325  0.37538  1.0000
  H   H15       1.0  0.06175  0.09330  0.37562  1.0000
  H   H16       1.0  0.06174  0.03616  0.47293  1.0000
  H   H17       1.0  0.06153  0.45757  0.47283  1.0000
  H   H18       1.0  0.43186  0.45763  0.47311  1.0000
  H   H19       1.0  0.43182  0.40039  0.37629  1.0000
  H   H20       1.0  0.06133  0.40033  0.37600  1.0000
  C   C41       1.0  0.99664  0.35331  0.35209  1.0000
  C   C42       1.0  0.99654  0.32967  0.43060  1.0000
  N   N5        1.0  0.99659  0.28851  0.42617  1.0000
  C   C43       1.0  0.99672  0.26819  0.34810  1.0000
  C   C44       1.0  0.49677  0.22538  0.34801  1.0000
  H   H21       1.0  0.99644  0.34301  0.49203  1.0000
  N   N6        1.0  0.49674  0.20499  0.42600  1.0000
  C   C45       1.0  0.49680  0.16383  0.43027  1.0000
  H   H22       1.0  0.49678  0.15043  0.49164  1.0000
  H   H23       1.0  0.14798  0.99672  0.61927  1.0000
  N   N7        1.0  0.26662  0.99676  0.60709  1.0000
  N   N8        1.0  0.22672  0.99671  0.60714  1.0000
  H   H24       1.0  0.34536  0.99695  0.61906  1.0000
  C   C46       1.0  0.07864  0.53421  0.05452  1.0000
  C   C47       1.0  0.09626  0.99692  0.08273  1.0000
  C   C48       1.0  0.07846  0.95960  0.05483  1.0000
  C   C49       1.0  0.41491  0.95984  0.05469  1.0000
  C   C50       1.0  0.39711  0.49719  0.08236  1.0000
  C   C51       1.0  0.41500  0.53443  0.05437  1.0000
  H   H25       1.0  0.09227  0.56166  0.07002  1.0000
  H   H26       1.0  0.09212  0.93213  0.06980  1.0000
  H   H27       1.0  0.40118  0.93240  0.06982  1.0000
  H   H28       1.0  0.40126  0.56188  0.06914  1.0000
  C   C52       1.0  0.99678  0.78965  0.26662  1.0000
  C   C53       1.0  0.99674  0.83299  0.26920  1.0000
  H   H29       1.0  0.99678  0.84947  0.21151  1.0000
  C   C54       1.0  0.49690  0.64026  0.35166  1.0000
  C   C55       1.0  0.49694  0.66065  0.26886  1.0000
  C   C56       1.0  0.49688  0.70399  0.26645  1.0000
  N   N9        1.0  0.49693  0.72665  0.19057  1.0000
  N   N10       1.0  0.99688  0.76706  0.19065  1.0000
  H   H30       1.0  0.49703  0.64422  0.21110  1.0000
  C   C57       1.0  0.13917  0.49676  0.09239  1.0000
  C   C58       1.0  0.16015  0.49680  0.17420  1.0000
  N   N11       1.0  0.20196  0.49679  0.17527  1.0000
  C   C59       1.0  0.22507  0.49674  0.10002  1.0000
  C   C60       1.0  0.20489  0.49670  0.01677  1.0000
  C   C61       1.0  0.16220  0.49671  0.01330  1.0000
  C   C62       1.0  0.26834  0.49679  0.09997  1.0000
  C   C63       1.0  0.35423  0.49696  0.09216  1.0000
  C   C64       1.0  0.33118  0.49691  0.01311  1.0000
  H   H31       1.0  0.14439  0.49687  0.23274  1.0000
  N   N12       1.0  0.29148  0.49686  0.17517  1.0000
  C   C65       1.0  0.28848  0.49680  0.01668  1.0000
  C   C66       1.0  0.33329  0.49695  0.17402  1.0000
  H   H32       1.0  0.34908  0.49702  0.23252  1.0000
  C   C67       1.0  0.49653  0.89611  0.36344  1.0000
  C   C68       1.0  0.45930  0.91414  0.39087  1.0000
  C   C69       1.0  0.45955  0.94665  0.45186  1.0000
  C   C70       1.0  0.49670  0.96156  0.48916  1.0000
  C   C71       1.0  0.03378  0.94665  0.45167  1.0000
  C   C72       1.0  0.03386  0.91398  0.39112  1.0000
  C   C73       1.0  0.49679  0.49693  0.55490  1.0000
  C   C74       1.0  0.49688  0.53222  0.48895  1.0000
  C   C75       1.0  0.03404  0.54708  0.45161  1.0000
  C   C76       1.0  0.03427  0.57963  0.39075  1.0000
  C   C77       1.0  0.49701  0.59741  0.36280  1.0000
  C   C78       1.0  0.45967  0.57952  0.39020  1.0000
  C   C79       1.0  0.45980  0.54706  0.45132  1.0000
  C   C80       1.0  0.46153  0.49702  0.62094  1.0000
  C   C81       1.0  0.03204  0.99693  0.62097  1.0000
  C   C82       1.0  0.04665  0.53405  0.65900  1.0000
  C   C83       1.0  0.04660  0.95981  0.65897  1.0000
  C   C84       1.0  0.44690  0.95995  0.65917  1.0000
  C   C85       1.0  0.44695  0.53417  0.65873  1.0000
  H   H33       1.0  0.03589  0.56177  0.63745  1.0000
  H   H34       1.0  0.03580  0.93209  0.63735  1.0000
  H   H35       1.0  0.45763  0.93221  0.63768  1.0000
  H   H36       1.0  0.45775  0.56187  0.63700  1.0000
  H   H37       1.0  0.43206  0.53618  0.47261  1.0000
  H   H38       1.0  0.43221  0.59325  0.37538  1.0000
  H   H39       1.0  0.06175  0.59330  0.37562  1.0000
  H   H40       1.0  0.06174  0.53616  0.47293  1.0000
  H   H41       1.0  0.06153  0.95757  0.47283  1.0000
  H   H42       1.0  0.43186  0.95763  0.47311  1.0000
  H   H43       1.0  0.43181  0.90039  0.37629  1.0000
  H   H44       1.0  0.06133  0.90033  0.37600  1.0000
  C   C86       1.0  0.99664  0.85331  0.35209  1.0000
  C   C87       1.0  0.99654  0.82967  0.43061  1.0000
  N   N13       1.0  0.99659  0.78851  0.42617  1.0000
  C   C88       1.0  0.99672  0.76819  0.34810  1.0000
  C   C89       1.0  0.49677  0.72538  0.34801  1.0000
  H   H45       1.0  0.99644  0.84302  0.49203  1.0000
  N   N14       1.0  0.49674  0.70499  0.42600  1.0000
  C   C90       1.0  0.49680  0.66383  0.43027  1.0000
  H   H46       1.0  0.49678  0.65043  0.49164  1.0000
  H   H47       1.0  0.14799  0.49672  0.61927  1.0000
  N   N15       1.0  0.26662  0.49676  0.60709  1.0000
  N   N16       1.0  0.22672  0.49671  0.60714  1.0000
  H   H48       1.0  0.34536  0.49695  0.61906  1.0000
  C   C91       1.0  0.57864  0.03421  0.05452  1.0000
  C   C92       1.0  0.59626  0.49692  0.08273  1.0000
  C   C93       1.0  0.57846  0.45960  0.05483  1.0000
  C   C94       1.0  0.91491  0.45984  0.05469  1.0000
  C   C95       1.0  0.89710  0.99718  0.08236  1.0000
  C   C96       1.0  0.91500  0.03442  0.05437  1.0000
  H   H49       1.0  0.59227  0.06166  0.07002  1.0000
  H   H50       1.0  0.59212  0.43213  0.06980  1.0000
  H   H51       1.0  0.90117  0.43240  0.06982  1.0000
  H   H52       1.0  0.90126  0.06187  0.06914  1.0000
  C   C97       1.0  0.49678  0.28965  0.26662  1.0000
  C   C98       1.0  0.49674  0.33298  0.26920  1.0000
  H   H53       1.0  0.49678  0.34947  0.21151  1.0000
  C   C99       1.0  0.99690  0.14026  0.35166  1.0000
  C   C100      1.0  0.99694  0.16065  0.26886  1.0000
  C   C101      1.0  0.99688  0.20399  0.26645  1.0000
  N   N17       1.0  0.99693  0.22665  0.19057  1.0000
  N   N18       1.0  0.49688  0.26706  0.19065  1.0000
  H   H54       1.0  0.99703  0.14422  0.21110  1.0000
  C   C102      1.0  0.63917  0.99677  0.09239  1.0000
  C   C103      1.0  0.66015  0.99680  0.17420  1.0000
  N   N19       1.0  0.70195  0.99679  0.17527  1.0000
  C   C104      1.0  0.72507  0.99674  0.10002  1.0000
  C   C105      1.0  0.70489  0.99670  0.01677  1.0000
  C   C106      1.0  0.66219  0.99671  0.01330  1.0000
  C   C107      1.0  0.76833  0.99679  0.09997  1.0000
  C   C108      1.0  0.85423  0.99696  0.09216  1.0000
  C   C109      1.0  0.83117  0.99691  0.01311  1.0000
  H   H55       1.0  0.64439  0.99687  0.23274  1.0000
  N   N20       1.0  0.79148  0.99686  0.17517  1.0000
  C   C110      1.0  0.78848  0.99681  0.01668  1.0000
  C   C111      1.0  0.83329  0.99695  0.17402  1.0000
  H   H56       1.0  0.84908  0.99702  0.23252  1.0000
  C   C112      1.0  0.99653  0.39611  0.36344  1.0000
  C   C113      1.0  0.95930  0.41414  0.39087  1.0000
  C   C114      1.0  0.95955  0.44665  0.45186  1.0000
  C   C115      1.0  0.99670  0.46156  0.48916  1.0000
  C   C116      1.0  0.53379  0.44665  0.45167  1.0000
  C   C117      1.0  0.53386  0.41398  0.39112  1.0000
  C   C118      1.0  0.99679  0.99693  0.55490  1.0000
  C   C119      1.0  0.99688  0.03222  0.48895  1.0000
  C   C120      1.0  0.53404  0.04708  0.45161  1.0000
  C   C121      1.0  0.53427  0.07963  0.39075  1.0000
  C   C122      1.0  0.99701  0.09741  0.36280  1.0000
  C   C123      1.0  0.95966  0.07952  0.39020  1.0000
  C   C124      1.0  0.95979  0.04706  0.45132  1.0000
  C   C125      1.0  0.96152  0.99702  0.62094  1.0000
  C   C126      1.0  0.53204  0.49693  0.62097  1.0000
  C   C127      1.0  0.54665  0.03405  0.65901  1.0000
  C   C128      1.0  0.54660  0.45981  0.65896  1.0000
  C   C129      1.0  0.94691  0.45995  0.65917  1.0000
  C   C130      1.0  0.94695  0.03417  0.65873  1.0000
  H   H57       1.0  0.53589  0.06177  0.63745  1.0000
  H   H58       1.0  0.53580  0.43209  0.63735  1.0000
  H   H59       1.0  0.95763  0.43221  0.63768  1.0000
  H   H60       1.0  0.95775  0.06187  0.63700  1.0000
  H   H61       1.0  0.93206  0.03618  0.47261  1.0000
  H   H62       1.0  0.93221  0.09325  0.37538  1.0000
  H   H63       1.0  0.56175  0.09330  0.37562  1.0000
  H   H64       1.0  0.56173  0.03616  0.47293  1.0000
  H   H65       1.0  0.56153  0.45757  0.47283  1.0000
  H   H66       1.0  0.93186  0.45763  0.47311  1.0000
  H   H67       1.0  0.93181  0.40039  0.37629  1.0000
  H   H68       1.0  0.56133  0.40033  0.37600  1.0000
  C   C131      1.0  0.49664  0.35331  0.35209  1.0000
  C   C132      1.0  0.49654  0.32967  0.43060  1.0000
  N   N21       1.0  0.49659  0.28851  0.42617  1.0000
  C   C133      1.0  0.49671  0.26819  0.34810  1.0000
  C   C134      1.0  0.99677  0.22538  0.34801  1.0000
  H   H69       1.0  0.49644  0.34301  0.49203  1.0000
  N   N22       1.0  0.99674  0.20499  0.42600  1.0000
  C   C135      1.0  0.99681  0.16383  0.43027  1.0000
  H   H70       1.0  0.99678  0.15043  0.49164  1.0000
  H   H71       1.0  0.64798  0.99672  0.61927  1.0000
  N   N23       1.0  0.76662  0.99676  0.60709  1.0000
  N   N24       1.0  0.72672  0.99671  0.60714  1.0000
  H   H72       1.0  0.84536  0.99695  0.61906  1.0000
  C   C136      1.0  0.57864  0.53421  0.05452  1.0000
  C   C137      1.0  0.59626  0.99692  0.08273  1.0000
  C   C138      1.0  0.57846  0.95960  0.05483  1.0000
  C   C139      1.0  0.91491  0.95984  0.05469  1.0000
  C   C140      1.0  0.89711  0.49719  0.08236  1.0000
  C   C141      1.0  0.91500  0.53443  0.05437  1.0000
  H   H73       1.0  0.59227  0.56166  0.07002  1.0000
  H   H74       1.0  0.59212  0.93213  0.06980  1.0000
  H   H75       1.0  0.90117  0.93240  0.06982  1.0000
  H   H76       1.0  0.90126  0.56188  0.06914  1.0000
  C   C142      1.0  0.49678  0.78965  0.26662  1.0000
  C   C143      1.0  0.49674  0.83299  0.26920  1.0000
  H   H77       1.0  0.49678  0.84947  0.21151  1.0000
  C   C144      1.0  0.99690  0.64026  0.35166  1.0000
  C   C145      1.0  0.99694  0.66065  0.26886  1.0000
  C   C146      1.0  0.99688  0.70399  0.26645  1.0000
  N   N25       1.0  0.99693  0.72665  0.19057  1.0000
  N   N26       1.0  0.49688  0.76706  0.19065  1.0000
  H   H78       1.0  0.99703  0.64422  0.21110  1.0000
  C   C147      1.0  0.63917  0.49676  0.09239  1.0000
  C   C148      1.0  0.66015  0.49680  0.17420  1.0000
  N   N27       1.0  0.70196  0.49679  0.17527  1.0000
  C   C149      1.0  0.72507  0.49674  0.10002  1.0000
  C   C150      1.0  0.70489  0.49670  0.01677  1.0000
  C   C151      1.0  0.66219  0.49671  0.01330  1.0000
  C   C152      1.0  0.76834  0.49679  0.09997  1.0000
  C   C153      1.0  0.85423  0.49696  0.09216  1.0000
  C   C154      1.0  0.83117  0.49691  0.01311  1.0000
  H   H79       1.0  0.64439  0.49687  0.23274  1.0000
  N   N28       1.0  0.79148  0.49686  0.17517  1.0000
  C   C155      1.0  0.78848  0.49680  0.01668  1.0000
  C   C156      1.0  0.83329  0.49695  0.17402  1.0000
  H   H80       1.0  0.84908  0.49702  0.23252  1.0000
  C   C157      1.0  0.99653  0.89611  0.36344  1.0000
  C   C158      1.0  0.95930  0.91414  0.39087  1.0000
  C   C159      1.0  0.95955  0.94665  0.45186  1.0000
  C   C160      1.0  0.99670  0.96156  0.48916  1.0000
  C   C161      1.0  0.53378  0.94665  0.45167  1.0000
  C   C162      1.0  0.53386  0.91398  0.39112  1.0000
  C   C163      1.0  0.99679  0.49693  0.55490  1.0000
  C   C164      1.0  0.99688  0.53222  0.48895  1.0000
  C   C165      1.0  0.53404  0.54708  0.45161  1.0000
  C   C166      1.0  0.53428  0.57963  0.39075  1.0000
  C   C167      1.0  0.99701  0.59741  0.36280  1.0000
  C   C168      1.0  0.95967  0.57952  0.39020  1.0000
  C   C169      1.0  0.95980  0.54706  0.45132  1.0000
  C   C170      1.0  0.96153  0.49702  0.62094  1.0000
  C   C171      1.0  0.53204  0.99693  0.62097  1.0000
  C   C172      1.0  0.54665  0.53405  0.65900  1.0000
  C   C173      1.0  0.54660  0.95981  0.65897  1.0000
  C   C174      1.0  0.94691  0.95995  0.65917  1.0000
  C   C175      1.0  0.94695  0.53417  0.65873  1.0000
  H   H81       1.0  0.53589  0.56177  0.63745  1.0000
  H   H82       1.0  0.53580  0.93209  0.63735  1.0000
  H   H83       1.0  0.95763  0.93221  0.63768  1.0000
  H   H84       1.0  0.95775  0.56187  0.63700  1.0000
  H   H85       1.0  0.93206  0.53618  0.47261  1.0000
  H   H86       1.0  0.93221  0.59325  0.37538  1.0000
  H   H87       1.0  0.56175  0.59330  0.37562  1.0000
  H   H88       1.0  0.56174  0.53616  0.47293  1.0000
  H   H89       1.0  0.56153  0.95757  0.47283  1.0000
  H   H90       1.0  0.93186  0.95763  0.47311  1.0000
  H   H91       1.0  0.93181  0.90039  0.37629  1.0000
  H   H92       1.0  0.56133  0.90033  0.37600  1.0000
  C   C176      1.0  0.49664  0.85331  0.35209  1.0000
  C   C177      1.0  0.49654  0.82967  0.43061  1.0000
  N   N29       1.0  0.49659  0.78851  0.42617  1.0000
  C   C178      1.0  0.49672  0.76819  0.34810  1.0000
  C   C179      1.0  0.99677  0.72538  0.34801  1.0000
  H   H93       1.0  0.49644  0.84302  0.49203  1.0000
  N   N30       1.0  0.99674  0.70499  0.42600  1.0000
  C   C180      1.0  0.99681  0.66383  0.43027  1.0000
  H   H94       1.0  0.99678  0.65043  0.49164  1.0000
  H   H95       1.0  0.64799  0.49672  0.61927  1.0000
  N   N31       1.0  0.76662  0.49676  0.60709  1.0000
  N   N32       1.0  0.72672  0.49671  0.60714  1.0000
  H   H96       1.0  0.84536  0.49695  0.61906  1.0000
