data_image0
_chemical_formula_structural       C16H16C16H16C16H16C3H2NC3H2NC3H2NC3H2NC3H2NC3H2NC3NC3NC5NC5NC36H26C4H4C3NC3NC5NC5NC36H26C4H4C3NC3NC5NC5NC36H26C4H4C3HOHNC3HOHNC3HOHNC3HOHNC3HOHNC3HOHN
_chemical_formula_sum              "C252 H162 N24 O6"
_cell_length_a       67.6309
_cell_length_b       67.6308
_cell_length_c       14.8368
_cell_angle_alpha    89.7168
_cell_angle_beta     90.2832
_cell_angle_gamma    120

_space_group_name_H-M_alt    "P 1"
_space_group_IT_number       1

loop_
  _space_group_symop_operation_xyz
  'x, y, z'

loop_
  _atom_site_type_symbol
  _atom_site_label
  _atom_site_symmetry_multiplicity
  _atom_site_fract_x
  _atom_site_fract_y
  _atom_site_fract_z
  _atom_site_occupancy
  C   C1        1.0  0.13069  0.68329  0.28692  1.0000
  C   C2        1.0  0.11141  0.66123  0.28119  1.0000
  C   C3        1.0  0.16554  0.73371  0.32204  1.0000
  C   C4        1.0  0.18622  0.75466  0.32914  1.0000
  C   C5        1.0  0.12969  0.54122  0.27905  1.0000
  C   C6        1.0  0.11147  0.54571  0.27545  1.0000
  C   C7        1.0  0.19476  0.54177  0.32577  1.0000
  C   C8        1.0  0.17606  0.54549  0.31834  1.0000
  C   C9        1.0  0.96826  0.47417  0.28116  1.0000
  C   C10       1.0  0.94915  0.45200  0.28725  1.0000
  C   C11       1.0  0.89467  0.38016  0.32734  1.0000
  C   C12       1.0  0.91513  0.40129  0.31964  1.0000
  C   C13       1.0  0.96891  0.58917  0.27562  1.0000
  C   C14       1.0  0.95055  0.59344  0.27931  1.0000
  C   C15       1.0  0.90401  0.58850  0.31880  1.0000
  C   C16       1.0  0.88514  0.59192  0.32624  1.0000
  H   H1        1.0  0.87048  0.58115  0.29203  1.0000
  H   H2        1.0  0.90225  0.57522  0.28017  1.0000
  H   H3        1.0  0.94235  0.59294  0.22053  1.0000
  H   H4        1.0  0.97322  0.58524  0.21497  1.0000
  H   H5        1.0  0.97312  0.48182  0.21924  1.0000
  H   H6        1.0  0.94058  0.44428  0.22922  1.0000
  H   H7        1.0  0.10711  0.54977  0.21480  1.0000
  H   H8        1.0  0.13776  0.54171  0.22022  1.0000
  H   H9        1.0  0.17793  0.55891  0.27984  1.0000
  H   H10       1.0  0.20942  0.55247  0.29163  1.0000
  H   H11       1.0  0.10575  0.65403  0.21906  1.0000
  H   H12       1.0  0.13858  0.69139  0.22837  1.0000
  H   H13       1.0  0.18855  0.76793  0.28857  1.0000
  H   H14       1.0  0.15351  0.73254  0.27693  1.0000
  H   H15       1.0  0.92659  0.40302  0.27112  1.0000
  H   H16       1.0  0.89192  0.36735  0.28372  1.0000
  C   C17       1.0  0.42320  0.53956  0.28938  1.0000
  C   C18       1.0  0.44525  0.54231  0.28396  1.0000
  C   C19       1.0  0.37275  0.52388  0.32369  1.0000
  C   C20       1.0  0.35179  0.52358  0.33040  1.0000
  C   C21       1.0  0.56522  0.68063  0.28279  1.0000
  C   C22       1.0  0.56074  0.65793  0.27914  1.0000
  C   C23       1.0  0.56468  0.74504  0.32955  1.0000
  C   C24       1.0  0.56094  0.72263  0.32217  1.0000
  C   C25       1.0  0.63221  0.58625  0.28400  1.0000
  C   C26       1.0  0.65437  0.58928  0.28975  1.0000
  C   C27       1.0  0.72625  0.60658  0.32856  1.0000
  C   C28       1.0  0.70511  0.60593  0.32128  1.0000
  C   C29       1.0  0.51726  0.47189  0.27925  1.0000
  C   C30       1.0  0.51300  0.44926  0.28299  1.0000
  C   C31       1.0  0.51795  0.40757  0.32255  1.0000
  C   C32       1.0  0.51453  0.38527  0.33003  1.0000
  H   H17       1.0  0.52530  0.38145  0.29581  1.0000
  H   H18       1.0  0.53123  0.41918  0.28390  1.0000
  H   H19       1.0  0.51350  0.44167  0.22421  1.0000
  H   H20       1.0  0.52120  0.48025  0.21858  1.0000
  H   H21       1.0  0.62448  0.58353  0.22220  1.0000
  H   H22       1.0  0.66203  0.58853  0.23159  1.0000
  H   H23       1.0  0.55669  0.64965  0.21847  1.0000
  H   H24       1.0  0.56475  0.68834  0.22397  1.0000
  H   H25       1.0  0.54754  0.71118  0.28353  1.0000
  H   H26       1.0  0.55399  0.74908  0.29533  1.0000
  H   H27       1.0  0.45252  0.54406  0.22194  1.0000
  H   H28       1.0  0.41514  0.53947  0.23072  1.0000
  H   H29       1.0  0.33857  0.51275  0.28957  1.0000
  H   H30       1.0  0.37397  0.51315  0.27855  1.0000
  H   H31       1.0  0.70333  0.61574  0.27279  1.0000
  H   H32       1.0  0.73901  0.61672  0.28472  1.0000
  C   C33       1.0  0.56689  0.97575  0.29260  1.0000
  C   C34       1.0  0.56414  0.99506  0.28704  1.0000
  C   C35       1.0  0.58257  0.94093  0.32717  1.0000
  C   C36       1.0  0.58288  0.92025  0.33403  1.0000
  C   C37       1.0  0.42589  0.97683  0.28386  1.0000
  C   C38       1.0  0.44860  0.99506  0.28074  1.0000
  C   C39       1.0  0.36143  0.91172  0.32883  1.0000
  C   C40       1.0  0.38384  0.93042  0.32199  1.0000
  C   C41       1.0  0.52017  0.13811  0.28710  1.0000
  C   C42       1.0  0.51715  0.15724  0.29301  1.0000
  C   C43       1.0  0.49984  0.21171  0.33216  1.0000
  C   C44       1.0  0.50050  0.19125  0.32478  1.0000
  C   C45       1.0  0.63445  0.13741  0.28078  1.0000
  C   C46       1.0  0.65708  0.15578  0.28403  1.0000
  C   C47       1.0  0.69880  0.20238  0.32240  1.0000
  C   C48       1.0  0.72111  0.22126  0.32937  1.0000
  H   H33       1.0  0.72489  0.23587  0.29482  1.0000
  H   H34       1.0  0.68715  0.20408  0.28386  1.0000
  H   H35       1.0  0.66460  0.16392  0.22505  1.0000
  H   H36       1.0  0.62602  0.13304  0.22025  1.0000
  H   H37       1.0  0.52287  0.13325  0.22525  1.0000
  H   H38       1.0  0.51788  0.16578  0.23488  1.0000
  H   H39       1.0  0.45695  0.99950  0.22022  1.0000
  H   H40       1.0  0.41825  0.96885  0.22483  1.0000
  H   H41       1.0  0.39535  0.92860  0.28355  1.0000
  H   H42       1.0  0.35743  0.89710  0.29442  1.0000
  H   H43       1.0  0.56244  0.00073  0.22498  1.0000
  H   H44       1.0  0.56703  0.96792  0.23397  1.0000
  H   H45       1.0  0.59373  0.91795  0.29329  1.0000
  H   H46       1.0  0.59332  0.95298  0.28210  1.0000
  H   H47       1.0  0.49070  0.17977  0.27624  1.0000
  H   H48       1.0  0.48971  0.21444  0.28833  1.0000
  C   C49       1.0  0.24945  0.52862  0.34915  1.0000
  C   C50       1.0  0.26326  0.53476  0.27141  1.0000
  C   C51       1.0  0.28395  0.53446  0.27136  1.0000
  H   H49       1.0  0.29364  0.53921  0.21403  1.0000
  H   H50       1.0  0.25835  0.53961  0.21394  1.0000
  N   N1        1.0  0.23039  0.52999  0.34564  1.0000
  C   C52       1.0  0.57784  0.81284  0.35292  1.0000
  C   C53       1.0  0.57166  0.82065  0.27520  1.0000
  C   C54       1.0  0.57197  0.84165  0.27511  1.0000
  H   H51       1.0  0.56718  0.84668  0.21782  1.0000
  H   H52       1.0  0.56680  0.81100  0.21776  1.0000
  N   N2        1.0  0.57646  0.79241  0.34943  1.0000
  C   C55       1.0  0.29359  0.85701  0.35051  1.0000
  C   C56       1.0  0.28586  0.84332  0.27244  1.0000
  C   C57       1.0  0.26487  0.82263  0.27179  1.0000
  H   H53       1.0  0.25988  0.81303  0.21422  1.0000
  H   H54       1.0  0.29557  0.84832  0.21515  1.0000
  N   N3        1.0  0.31402  0.87607  0.34756  1.0000
  C   C58       1.0  0.82977  0.60391  0.35056  1.0000
  C   C59       1.0  0.81557  0.59719  0.27355  1.0000
  C   C60       1.0  0.79470  0.59715  0.27361  1.0000
  H   H55       1.0  0.78473  0.59199  0.21681  1.0000
  H   H56       1.0  0.82032  0.59219  0.21651  1.0000
  N   N4        1.0  0.84899  0.60284  0.34702  1.0000
  C   C61       1.0  0.50255  0.31786  0.35437  1.0000
  C   C62       1.0  0.50925  0.31054  0.27733  1.0000
  C   C63       1.0  0.50929  0.28972  0.27735  1.0000
  H   H57       1.0  0.51445  0.28503  0.22056  1.0000
  H   H58       1.0  0.51425  0.32042  0.22029  1.0000
  N   N5        1.0  0.50360  0.33815  0.35083  1.0000
  C   C64       1.0  0.78855  0.27665  0.35198  1.0000
  C   C65       1.0  0.79578  0.29073  0.27460  1.0000
  C   C66       1.0  0.81661  0.31160  0.27408  1.0000
  H   H59       1.0  0.82123  0.32147  0.21704  1.0000
  H   H60       1.0  0.78584  0.28589  0.21774  1.0000
  N   N6        1.0  0.76826  0.25742  0.34897  1.0000
  C   C67       1.0  0.02914  0.62428  0.35211  1.0000
  C   C68       1.0  0.05274  0.63590  0.35315  1.0000
  C   C69       1.0  0.06003  0.61987  0.35358  1.0000
  N   N7        1.0  0.04061  0.59921  0.35277  1.0000
  C   C70       1.0  0.02142  0.60086  0.35243  1.0000
  C   C71       1.0  0.99806  0.58329  0.35282  1.0000
  C   C72       1.0  0.99044  0.55951  0.35391  1.0000
  N   N8        1.0  0.00316  0.54917  0.35241  1.0000
  C   C73       1.0  0.99011  0.52614  0.35519  1.0000
  C   C74       1.0  0.96752  0.52142  0.35867  1.0000
  C   C75       1.0  0.96772  0.54192  0.35786  1.0000
  C   C76       1.0  0.99733  0.50967  0.35517  1.0000
  C   C77       1.0  0.02054  0.51502  0.35365  1.0000
  N   N9        1.0  0.03996  0.53569  0.35323  1.0000
  C   C78       1.0  0.05915  0.53403  0.35248  1.0000
  C   C79       1.0  0.05143  0.51062  0.35166  1.0000
  C   C80       1.0  0.02783  0.49900  0.35259  1.0000
  C   C81       1.0  0.08251  0.55161  0.35273  1.0000
  C   C82       1.0  0.09013  0.57538  0.35362  1.0000
  N   N10       1.0  0.07741  0.58572  0.35244  1.0000
  C   C83       1.0  0.09046  0.60874  0.35489  1.0000
  C   C84       1.0  0.11307  0.61346  0.35763  1.0000
  C   C85       1.0  0.11287  0.59297  0.35696  1.0000
  C   C86       1.0  0.08325  0.62522  0.35516  1.0000
  C   C87       1.0  0.10072  0.64867  0.36003  1.0000
  C   C88       1.0  0.10953  0.65885  0.44457  1.0000
  C   C89       1.0  0.12886  0.68083  0.45000  1.0000
  C   C90       1.0  0.14013  0.69337  0.37143  1.0000
  C   C91       1.0  0.16104  0.71481  0.37763  1.0000
  C   C92       1.0  0.20335  0.75750  0.39169  1.0000
  C   C93       1.0  0.19891  0.73853  0.44651  1.0000
  C   C94       1.0  0.17828  0.71768  0.43951  1.0000
  C   C95       1.0  0.09966  0.54513  0.35459  1.0000
  C   C96       1.0  0.10644  0.53987  0.43721  1.0000
  C   C97       1.0  0.12459  0.53530  0.44046  1.0000
  C   C98       1.0  0.13669  0.53598  0.36163  1.0000
  C   C99       1.0  0.15548  0.53177  0.36597  1.0000
  C   C100      1.0  0.15429  0.51390  0.42007  1.0000
  C   C101      1.0  0.17291  0.51014  0.42733  1.0000
  C   C102      1.0  0.19360  0.52404  0.38079  1.0000
  C   C103      1.0  0.97988  0.48619  0.35965  1.0000
  C   C104      1.0  0.94086  0.44125  0.37188  1.0000
  C   C105      1.0  0.95305  0.45327  0.44993  1.0000
  C   C106      1.0  0.97218  0.47538  0.44412  1.0000
  C   C107      1.0  0.92020  0.41960  0.37894  1.0000
  C   C108      1.0  0.90374  0.41594  0.44540  1.0000
  C   C109      1.0  0.88332  0.39491  0.45303  1.0000
  C   C110      1.0  0.87832  0.37653  0.39431  1.0000
  C   C111      1.0  0.98090  0.58973  0.35473  1.0000
  C   C112      1.0  0.97415  0.59476  0.43740  1.0000
  C   C113      1.0  0.95587  0.59912  0.44073  1.0000
  C   C114      1.0  0.94358  0.59843  0.36195  1.0000
  C   C115      1.0  0.92460  0.60234  0.36642  1.0000
  C   C116      1.0  0.88613  0.60944  0.38135  1.0000
  C   C117      1.0  0.90684  0.62346  0.42793  1.0000
  C   C118      1.0  0.92562  0.61999  0.42063  1.0000
  H   H61       1.0  0.90846  0.63639  0.46861  1.0000
  H   H62       1.0  0.94022  0.63070  0.45528  1.0000
  H   H63       1.0  0.95112  0.60205  0.50236  1.0000
  H   H64       1.0  0.98216  0.59474  0.49612  1.0000
  H   H65       1.0  0.01940  0.63195  0.35192  1.0000
  H   H66       1.0  0.06275  0.65328  0.35359  1.0000
  H   H67       1.0  0.04046  0.58494  0.35379  1.0000
  H   H68       1.0  0.04011  0.54995  0.35479  1.0000
  H   H69       1.0  0.95344  0.54343  0.36074  1.0000
  H   H70       1.0  0.95306  0.50576  0.36192  1.0000
  H   H71       1.0  0.98000  0.48383  0.50226  1.0000
  H   H72       1.0  0.94786  0.44617  0.51253  1.0000
  H   H73       1.0  0.01782  0.48162  0.35240  1.0000
  H   H74       1.0  0.06116  0.50294  0.35083  1.0000
  H   H75       1.0  0.12754  0.62913  0.36030  1.0000
  H   H76       1.0  0.12716  0.59145  0.35936  1.0000
  H   H77       1.0  0.09855  0.53985  0.49596  1.0000
  H   H78       1.0  0.12937  0.53219  0.50205  1.0000
  H   H79       1.0  0.17117  0.49708  0.46796  1.0000
  H   H80       1.0  0.13970  0.50326  0.45471  1.0000
  H   H81       1.0  0.17616  0.70441  0.47961  1.0000
  H   H82       1.0  0.21078  0.73964  0.49245  1.0000
  H   H83       1.0  0.13490  0.68745  0.51259  1.0000
  H   H84       1.0  0.10242  0.65000  0.50284  1.0000
  H   H85       1.0  0.90625  0.42877  0.48847  1.0000
  H   H86       1.0  0.87202  0.39324  0.50228  1.0000
  C   C119      1.0  0.22388  0.77800  0.40266  1.0000
  C   C120      1.0  0.21199  0.52031  0.39306  1.0000
  C   C121      1.0  0.85796  0.35585  0.40552  1.0000
  C   C122      1.0  0.86760  0.61291  0.39350  1.0000
  H   H87       1.0  0.23335  0.77961  0.45681  1.0000
  H   H88       1.0  0.86892  0.62395  0.44053  1.0000
  H   H89       1.0  0.84881  0.35385  0.46074  1.0000
  H   H90       1.0  0.21071  0.50939  0.44095  1.0000
  C   C123      1.0  0.48216  0.49685  0.35553  1.0000
  C   C124      1.0  0.47054  0.50883  0.35647  1.0000
  C   C125      1.0  0.48656  0.53214  0.35695  1.0000
  N   N11       1.0  0.50722  0.53338  0.35626  1.0000
  C   C126      1.0  0.50557  0.51254  0.35592  1.0000
  C   C127      1.0  0.52315  0.50677  0.35637  1.0000
  C   C128      1.0  0.54693  0.52293  0.35738  1.0000
  N   N12       1.0  0.55727  0.54598  0.35585  1.0000
  C   C129      1.0  0.58029  0.55595  0.35855  1.0000
  C   C130      1.0  0.58502  0.53808  0.36197  1.0000
  C   C131      1.0  0.56452  0.51779  0.36135  1.0000
  C   C132      1.0  0.59676  0.57965  0.35850  1.0000
  C   C133      1.0  0.59140  0.59751  0.35712  1.0000
  N   N13       1.0  0.57074  0.59626  0.35680  1.0000
  C   C134      1.0  0.57239  0.61711  0.35608  1.0000
  C   C135      1.0  0.59580  0.63280  0.35527  1.0000
  C   C136      1.0  0.60743  0.62082  0.35609  1.0000
  C   C137      1.0  0.55482  0.62288  0.35632  1.0000
  C   C138      1.0  0.53104  0.60673  0.35720  1.0000
  N   N14       1.0  0.52071  0.58367  0.35597  1.0000
  C   C139      1.0  0.49768  0.57370  0.35830  1.0000
  C   C140      1.0  0.49296  0.59158  0.36100  1.0000
  C   C141      1.0  0.51345  0.61187  0.36045  1.0000
  C   C142      1.0  0.48121  0.55001  0.35844  1.0000
  C   C143      1.0  0.45775  0.54401  0.36297  1.0000
  C   C144      1.0  0.44749  0.54240  0.44737  1.0000
  C   C145      1.0  0.42551  0.53975  0.45249  1.0000
  C   C146      1.0  0.41304  0.53867  0.37375  1.0000
  C   C147      1.0  0.39158  0.53811  0.37961  1.0000
  C   C148      1.0  0.34887  0.53769  0.39293  1.0000
  C   C149      1.0  0.36778  0.55206  0.44812  1.0000
  C   C150      1.0  0.38863  0.55230  0.44148  1.0000
  C   C151      1.0  0.56129  0.64650  0.35827  1.0000
  C   C152      1.0  0.56653  0.65836  0.44092  1.0000
  C   C153      1.0  0.57110  0.68107  0.44422  1.0000
  C   C154      1.0  0.57045  0.69268  0.36540  1.0000
  C   C155      1.0  0.57466  0.71567  0.36978  1.0000
  C   C156      1.0  0.59252  0.73222  0.42393  1.0000
  C   C157      1.0  0.59629  0.75459  0.43119  1.0000
  C   C158      1.0  0.58240  0.76149  0.38459  1.0000
  C   C159      1.0  0.62024  0.58566  0.36270  1.0000
  C   C160      1.0  0.66521  0.59160  0.37420  1.0000
  C   C161      1.0  0.65325  0.59162  0.45245  1.0000
  C   C162      1.0  0.63114  0.58864  0.44699  1.0000
  C   C163      1.0  0.68687  0.59258  0.38089  1.0000
  C   C164      1.0  0.69061  0.57968  0.44729  1.0000
  C   C165      1.0  0.71165  0.58029  0.45453  1.0000
  C   C166      1.0  0.72996  0.59375  0.39547  1.0000
  C   C167      1.0  0.51671  0.48316  0.35833  1.0000
  C   C168      1.0  0.51168  0.47121  0.44102  1.0000
  C   C169      1.0  0.50734  0.44856  0.44441  1.0000
  C   C170      1.0  0.50802  0.43712  0.36565  1.0000
  C   C171      1.0  0.50412  0.41423  0.37016  1.0000
  C   C172      1.0  0.49701  0.36862  0.38517  1.0000
  C   C173      1.0  0.48300  0.37522  0.43175  1.0000
  C   C174      1.0  0.48647  0.39749  0.42439  1.0000
  H   H91       1.0  0.47007  0.36383  0.47244  1.0000
  H   H92       1.0  0.47575  0.40130  0.45905  1.0000
  H   H93       1.0  0.50440  0.44075  0.50604  1.0000
  H   H94       1.0  0.51170  0.47911  0.49972  1.0000
  H   H95       1.0  0.47449  0.47944  0.35532  1.0000
  H   H96       1.0  0.45315  0.50145  0.35682  1.0000
  H   H97       1.0  0.52149  0.54750  0.35732  1.0000
  H   H98       1.0  0.55648  0.58214  0.35821  1.0000
  H   H99       1.0  0.56302  0.50199  0.36423  1.0000
  H   H100      1.0  0.60068  0.53928  0.36530  1.0000
  H   H101      1.0  0.62274  0.58789  0.50527  1.0000
  H   H102      1.0  0.66042  0.59342  0.51494  1.0000
  H   H103      1.0  0.62481  0.62820  0.35583  1.0000
  H   H104      1.0  0.60348  0.65021  0.35442  1.0000
  H   H105      1.0  0.47729  0.59037  0.36355  1.0000
  H   H106      1.0  0.51496  0.62767  0.36280  1.0000
  H   H107      1.0  0.56656  0.65035  0.49964  1.0000
  H   H108      1.0  0.57423  0.68883  0.50581  1.0000
  H   H109      1.0  0.60935  0.76582  0.47183  1.0000
  H   H110      1.0  0.60316  0.72819  0.45856  1.0000
  H   H111      1.0  0.40186  0.56335  0.48183  1.0000
  H   H112      1.0  0.36661  0.56269  0.49405  1.0000
  H   H113      1.0  0.41884  0.53901  0.51498  1.0000
  H   H114      1.0  0.45631  0.54405  0.50577  1.0000
  H   H115      1.0  0.67783  0.56929  0.49060  1.0000
  H   H116      1.0  0.71339  0.57058  0.50374  1.0000
  C   C175      1.0  0.32836  0.53770  0.40349  1.0000
  C   C176      1.0  0.58615  0.78359  0.39681  1.0000
  C   C177      1.0  0.75065  0.59406  0.40626  1.0000
  C   C178      1.0  0.49355  0.34659  0.39735  1.0000
  H   H117      1.0  0.32668  0.54540  0.45761  1.0000
  H   H118      1.0  0.48254  0.33680  0.44447  1.0000
  H   H119      1.0  0.75274  0.58685  0.46149  1.0000
  H   H120      1.0  0.59709  0.79313  0.44465  1.0000
  C   C179      1.0  0.60958  0.07728  0.35815  1.0000
  C   C180      1.0  0.59760  0.05368  0.35929  1.0000
  C   C181      1.0  0.57428  0.04639  0.35977  1.0000
  N   N15       1.0  0.57304  0.06581  0.35896  1.0000
  C   C182      1.0  0.59389  0.08500  0.35843  1.0000
  C   C183      1.0  0.59966  0.10835  0.35861  1.0000
  C   C184      1.0  0.58350  0.11598  0.35976  1.0000
  N   N16       1.0  0.56044  0.10326  0.35842  1.0000
  C   C185      1.0  0.55048  0.11631  0.36126  1.0000
  C   C186      1.0  0.56835  0.13890  0.36462  1.0000
  C   C187      1.0  0.58864  0.13870  0.36366  1.0000
  C   C188      1.0  0.52678  0.10909  0.36135  1.0000
  C   C189      1.0  0.50892  0.08587  0.35983  1.0000
  N   N17       1.0  0.51017  0.06645  0.35943  1.0000
  C   C190      1.0  0.48932  0.04726  0.35854  1.0000
  C   C191      1.0  0.47363  0.05498  0.35765  1.0000
  C   C192      1.0  0.48561  0.07858  0.35869  1.0000
  C   C193      1.0  0.48354  0.02391  0.35871  1.0000
  C   C194      1.0  0.49970  0.01628  0.35973  1.0000
  N   N18       1.0  0.52275  0.02901  0.35867  1.0000
  C   C195      1.0  0.53273  0.01595  0.36107  1.0000
  C   C196      1.0  0.51485  0.99335  0.36368  1.0000
  C   C197      1.0  0.49455  0.99355  0.36293  1.0000
  C   C198      1.0  0.55642  0.02317  0.36131  1.0000
  C   C199      1.0  0.56241  0.00570  0.36599  1.0000
  C   C200      1.0  0.56399  0.99687  0.45045  1.0000
  C   C201      1.0  0.56665  0.97754  0.45569  1.0000
  C   C202      1.0  0.56775  0.96630  0.37702  1.0000
  C   C203      1.0  0.56833  0.94540  0.38301  1.0000
  C   C204      1.0  0.56877  0.90310  0.39654  1.0000
  C   C205      1.0  0.55437  0.90751  0.45162  1.0000
  C   C206      1.0  0.55413  0.92814  0.44488  1.0000
  C   C207      1.0  0.45993  0.00676  0.36017  1.0000
  C   C208      1.0  0.44797  0.99986  0.44258  1.0000
  C   C209      1.0  0.42525  0.98172  0.44534  1.0000
  C   C210      1.0  0.41374  0.96972  0.36622  1.0000
  C   C211      1.0  0.39075  0.95093  0.37006  1.0000
  C   C212      1.0  0.37413  0.95204  0.42401  1.0000
  C   C213      1.0  0.35175  0.93342  0.43073  1.0000
  C   C214      1.0  0.34491  0.91279  0.38375  1.0000
  C   C215      1.0  0.52077  0.12654  0.36570  1.0000
  C   C216      1.0  0.51484  0.16555  0.37752  1.0000
  C   C217      1.0  0.51485  0.15339  0.45569  1.0000
  C   C218      1.0  0.51782  0.13427  0.45007  1.0000
  C   C219      1.0  0.51385  0.18621  0.38436  1.0000
  C   C220      1.0  0.52674  0.20269  0.45082  1.0000
  C   C221      1.0  0.52613  0.22311  0.45813  1.0000
  C   C222      1.0  0.51268  0.22809  0.39910  1.0000
  C   C223      1.0  0.62327  0.12552  0.36015  1.0000
  C   C224      1.0  0.63531  0.13237  0.44261  1.0000
  C   C225      1.0  0.65796  0.15066  0.44550  1.0000
  C   C226      1.0  0.66931  0.16287  0.36646  1.0000
  C   C227      1.0  0.69220  0.18185  0.37045  1.0000
  C   C228      1.0  0.73783  0.22034  0.38432  1.0000
  C   C229      1.0  0.73129  0.19970  0.43133  1.0000
  C   C230      1.0  0.70901  0.18091  0.42454  1.0000
  H   H121      1.0  0.74272  0.19813  0.47193  1.0000
  H   H122      1.0  0.70524  0.16636  0.45947  1.0000
  H   H123      1.0  0.66583  0.15550  0.50700  1.0000
  H   H124      1.0  0.62747  0.12444  0.50152  1.0000
  H   H125      1.0  0.62699  0.08702  0.35778  1.0000
  H   H126      1.0  0.60498  0.04367  0.35966  1.0000
  H   H127      1.0  0.55892  0.06595  0.35981  1.0000
  H   H128      1.0  0.52428  0.06631  0.36106  1.0000
  H   H129      1.0  0.60444  0.15298  0.36663  1.0000
  H   H130      1.0  0.56715  0.15336  0.36807  1.0000
  H   H131      1.0  0.51857  0.12647  0.50829  1.0000
  H   H132      1.0  0.51304  0.15859  0.51822  1.0000
  H   H133      1.0  0.47823  0.08859  0.35848  1.0000
  H   H134      1.0  0.45622  0.04525  0.35677  1.0000
  H   H135      1.0  0.51605  0.97888  0.36617  1.0000
  H   H136      1.0  0.47875  0.97926  0.36514  1.0000
  H   H137      1.0  0.45591  0.00769  0.50152  1.0000
  H   H138      1.0  0.41743  0.97686  0.50679  1.0000
  H   H139      1.0  0.34047  0.93510  0.47129  1.0000
  H   H140      1.0  0.37812  0.96659  0.45895  1.0000
  H   H141      1.0  0.54307  0.93023  0.48516  1.0000
  H   H142      1.0  0.54374  0.89562  0.49755  1.0000
  H   H143      1.0  0.56735  0.97147  0.51823  1.0000
  H   H144      1.0  0.56232  0.00392  0.50879  1.0000
  H   H145      1.0  0.53714  0.20020  0.49405  1.0000
  H   H146      1.0  0.53585  0.23444  0.50735  1.0000
  C   C231      1.0  0.56877  0.88256  0.40721  1.0000
  C   C232      1.0  0.32280  0.89440  0.39546  1.0000
  C   C233      1.0  0.51237  0.24845  0.40996  1.0000
  C   C234      1.0  0.75987  0.23889  0.39595  1.0000
  H   H147      1.0  0.56111  0.87310  0.46145  1.0000
  H   H148      1.0  0.76972  0.23765  0.44303  1.0000
  H   H149      1.0  0.51958  0.25762  0.46521  1.0000
  H   H150      1.0  0.31321  0.89560  0.44334  1.0000
  C   C235      1.0  0.29171  0.52844  0.34967  1.0000
  C   C236      1.0  0.27769  0.52176  0.42754  1.0000
  C   C237      1.0  0.25707  0.52223  0.42724  1.0000
  H   H151      1.0  0.24773  0.51806  0.48526  1.0000
  O   O1        1.0  0.28382  0.51531  0.50491  1.0000
  H   H152      1.0  0.28016  0.49944  0.49580  1.0000
  N   N19       1.0  0.31179  0.52910  0.34616  1.0000
  C   C238      1.0  0.57799  0.85526  0.35339  1.0000
  C   C239      1.0  0.58470  0.84777  0.43125  1.0000
  C   C240      1.0  0.58423  0.82668  0.43097  1.0000
  H   H153      1.0  0.58842  0.82140  0.48899  1.0000
  O   O2        1.0  0.59117  0.86020  0.50859  1.0000
  H   H154      1.0  0.60703  0.87243  0.49940  1.0000
  N   N20       1.0  0.57733  0.87468  0.34984  1.0000
  C   C241      1.0  0.25117  0.81475  0.34980  1.0000
  C   C242      1.0  0.25858  0.82864  0.42801  1.0000
  C   C243      1.0  0.27967  0.84927  0.42832  1.0000
  H   H155      1.0  0.28489  0.85852  0.48657  1.0000
  O   O3        1.0  0.24607  0.82239  0.50515  1.0000
  H   H156      1.0  0.23384  0.82605  0.49597  1.0000
  N   N21       1.0  0.23175  0.79466  0.34576  1.0000
  C   C244      1.0  0.78716  0.60336  0.35138  1.0000
  C   C245      1.0  0.80155  0.61059  0.42851  1.0000
  C   C246      1.0  0.82236  0.61047  0.42810  1.0000
  H   H157      1.0  0.83199  0.61506  0.48564  1.0000
  O   O4        1.0  0.79566  0.61729  0.50528  1.0000
  H   H158      1.0  0.79904  0.63303  0.49460  1.0000
  N   N22       1.0  0.76692  0.60239  0.34795  1.0000
  C   C247      1.0  0.50309  0.27580  0.35513  1.0000
  C   C248      1.0  0.49586  0.28279  0.43227  1.0000
  C   C249      1.0  0.49598  0.30371  0.43188  1.0000
  H   H159      1.0  0.49139  0.30863  0.48943  1.0000
  O   O5        1.0  0.48916  0.27003  0.50903  1.0000
  H   H160      1.0  0.47341  0.25769  0.49833  1.0000
  N   N23       1.0  0.50406  0.25654  0.35166  1.0000
  C   C250      1.0  0.83062  0.31926  0.35157  1.0000
  C   C251      1.0  0.82372  0.30498  0.42903  1.0000
  C   C252      1.0  0.80280  0.28418  0.42922  1.0000
  H   H161      1.0  0.79794  0.27463  0.48699  1.0000
  O   O6        1.0  0.83657  0.31099  0.50557  1.0000
  H   H162      1.0  0.84891  0.30760  0.49483  1.0000
  N   N24       1.0  0.84988  0.33949  0.34762  1.0000
