data_image0
_chemical_formula_structural       C2HCN2C5NH3CHC5NH3CHC12HCH4N2C2NC3H3CHC2NC3H3CHC2HCN2C5NH3CHC5NH3CHC12HCH4N2C2NC3H3CHC2NC3H3CHC2HCN2C5NH3CHC5NH3CHC12HCH4N2C2NC3H3CHC2NC3H3CHC2HCN2C5NH3CHC5NH3CHC12HCH4N2C2NC3H3CHC2NC3H3CH
_chemical_formula_sum              "C160 H88 N32"
_cell_length_a       39.535
_cell_length_b       39.535
_cell_length_c       15.1276
_cell_angle_alpha    90
_cell_angle_beta     90
_cell_angle_gamma    90

_space_group_name_H-M_alt    "P 1"
_space_group_IT_number       1

loop_
  _space_group_symop_operation_xyz
  'x, y, z'

loop_
  _atom_site_type_symbol
  _atom_site_label
  _atom_site_symmetry_multiplicity
  _atom_site_fract_x
  _atom_site_fract_y
  _atom_site_fract_z
  _atom_site_occupancy
  C   C1        1.0  0.48319  0.00827  0.31538  1.0000
  C   C2        1.0  0.42393  0.02357  0.28481  1.0000
  H   H1        1.0  0.41592  0.07506  0.25691  1.0000
  C   C3        1.0  0.04286  0.99287  0.34491  1.0000
  N   N1        1.0  0.38994  0.02039  0.29329  1.0000
  N   N2        1.0  0.10162  0.47115  0.35633  1.0000
  C   C4        1.0  0.97086  0.17429  0.27561  1.0000
  C   C5        1.0  0.47254  0.20970  0.26931  1.0000
  C   C6        1.0  0.99735  0.26352  0.32347  1.0000
  C   C7        1.0  0.00091  0.33474  0.31132  1.0000
  C   C8        1.0  0.97981  0.31542  0.25551  1.0000
  N   N3        1.0  0.97889  0.28138  0.26367  1.0000
  H   H2        1.0  0.96478  0.32653  0.20878  1.0000
  H   H3        1.0  0.45534  0.16151  0.23302  1.0000
  H   H4        1.0  0.45808  0.22163  0.22272  1.0000
  C   C9        1.0  0.00088  0.37011  0.30424  1.0000
  H   H5        1.0  0.98624  0.38106  0.25643  1.0000
  C   C10       1.0  0.31725  0.01981  0.27270  1.0000
  C   C11       1.0  0.28178  0.51889  0.26855  1.0000
  C   C12       1.0  0.22799  0.99470  0.32470  1.0000
  C   C13       1.0  0.15665  0.99268  0.31689  1.0000
  C   C14       1.0  0.17585  0.01423  0.26196  1.0000
  N   N4        1.0  0.20997  0.01433  0.26785  1.0000
  H   H6        1.0  0.16462  0.02999  0.21711  1.0000
  H   H7        1.0  0.32994  0.53573  0.23092  1.0000
  H   H8        1.0  0.26970  0.53422  0.22417  1.0000
  C   C15       1.0  0.12126  0.99299  0.31089  1.0000
  H   H9        1.0  0.11023  0.00818  0.26442  1.0000
  C   C16       1.0  0.44871  0.49865  0.30471  1.0000
  C   C17       1.0  0.43417  0.05696  0.26701  1.0000
  C   C18       1.0  0.46714  0.06760  0.28835  1.0000
  C   C19       1.0  0.49227  0.04305  0.30851  1.0000
  C   C20       1.0  0.44055  0.46399  0.31003  1.0000
  C   C21       1.0  0.02669  0.05172  0.31776  1.0000
  C   C22       1.0  0.00837  0.48327  0.33429  1.0000
  C   C23       1.0  0.99928  0.44849  0.34124  1.0000
  C   C24       1.0  0.02438  0.42394  0.36166  1.0000
  C   C25       1.0  0.05737  0.43458  0.38274  1.0000
  C   C26       1.0  0.06763  0.46794  0.36468  1.0000
  C   C27       1.0  0.46486  0.43982  0.33191  1.0000
  H   H10       1.0  0.07568  0.41653  0.39289  1.0000
  C   C28       1.0  0.05101  0.02754  0.33957  1.0000
  H   H11       1.0  0.45634  0.41593  0.34361  1.0000
  H   H12       1.0  0.41695  0.45526  0.29568  1.0000
  H   H13       1.0  0.07461  0.03627  0.35396  1.0000
  H   H14       1.0  0.03521  0.07561  0.30623  1.0000
  N   N5        1.0  0.46978  0.10161  0.29784  1.0000
  N   N6        1.0  0.02179  0.38994  0.35204  1.0000
  C   C29       1.0  0.99066  0.15679  0.33853  1.0000
  C   C30       1.0  0.99419  0.22802  0.32644  1.0000
  N   N7        1.0  0.01266  0.21016  0.38625  1.0000
  C   C31       1.0  0.01175  0.17611  0.39439  1.0000
  C   C32       1.0  0.01901  0.28184  0.38058  1.0000
  C   C33       1.0  0.02071  0.31724  0.37425  1.0000
  H   H15       1.0  0.03347  0.26991  0.42717  1.0000
  H   H16       1.0  0.03625  0.33002  0.41680  1.0000
  H   H17       1.0  0.02679  0.16500  0.44109  1.0000
  C   C34       1.0  0.99072  0.12142  0.34556  1.0000
  H   H18       1.0  0.00531  0.11047  0.39348  1.0000
  C   C35       1.0  0.33491  0.99893  0.33287  1.0000
  C   C36       1.0  0.26357  0.99695  0.32517  1.0000
  N   N8        1.0  0.28159  0.97731  0.38200  1.0000
  C   C37       1.0  0.31571  0.97739  0.38783  1.0000
  C   C38       1.0  0.20978  0.97276  0.38130  1.0000
  C   C39       1.0  0.17431  0.97182  0.37710  1.0000
  H   H19       1.0  0.22185  0.95743  0.42570  1.0000
  H   H20       1.0  0.16163  0.95589  0.41886  1.0000
  H   H21       1.0  0.32695  0.96162  0.43265  1.0000
  C   C40       1.0  0.37030  0.99858  0.33877  1.0000
  H   H22       1.0  0.38134  0.98337  0.38520  1.0000
  C   C41       1.0  0.48319  0.50827  0.31538  1.0000
  C   C42       1.0  0.42393  0.52357  0.28481  1.0000
  H   H23       1.0  0.41592  0.57506  0.25691  1.0000
  C   C43       1.0  0.04286  0.49288  0.34491  1.0000
  N   N9        1.0  0.38994  0.52039  0.29329  1.0000
  N   N10       1.0  0.10162  0.97115  0.35633  1.0000
  C   C44       1.0  0.97086  0.67429  0.27561  1.0000
  C   C45       1.0  0.47254  0.70970  0.26931  1.0000
  C   C46       1.0  0.99735  0.76352  0.32347  1.0000
  C   C47       1.0  0.00091  0.83474  0.31132  1.0000
  C   C48       1.0  0.97981  0.81542  0.25551  1.0000
  N   N11       1.0  0.97889  0.78138  0.26367  1.0000
  H   H24       1.0  0.96478  0.82653  0.20878  1.0000
  H   H25       1.0  0.45534  0.66151  0.23302  1.0000
  H   H26       1.0  0.45808  0.72163  0.22272  1.0000
  C   C49       1.0  0.00088  0.87011  0.30424  1.0000
  H   H27       1.0  0.98624  0.88106  0.25643  1.0000
  C   C50       1.0  0.31725  0.51981  0.27270  1.0000
  C   C51       1.0  0.28178  0.01889  0.26855  1.0000
  C   C52       1.0  0.22799  0.49470  0.32470  1.0000
  C   C53       1.0  0.15665  0.49268  0.31689  1.0000
  C   C54       1.0  0.17585  0.51423  0.26196  1.0000
  N   N12       1.0  0.20997  0.51433  0.26785  1.0000
  H   H28       1.0  0.16462  0.52999  0.21711  1.0000
  H   H29       1.0  0.32994  0.03573  0.23092  1.0000
  H   H30       1.0  0.26970  0.03422  0.22417  1.0000
  C   C55       1.0  0.12126  0.49299  0.31089  1.0000
  H   H31       1.0  0.11023  0.50818  0.26442  1.0000
  C   C56       1.0  0.44871  0.99865  0.30471  1.0000
  C   C57       1.0  0.43417  0.55696  0.26701  1.0000
  C   C58       1.0  0.46714  0.56760  0.28835  1.0000
  C   C59       1.0  0.49227  0.54305  0.30851  1.0000
  C   C60       1.0  0.44055  0.96399  0.31003  1.0000
  C   C61       1.0  0.02669  0.55172  0.31776  1.0000
  C   C62       1.0  0.00837  0.98327  0.33429  1.0000
  C   C63       1.0  0.99928  0.94849  0.34124  1.0000
  C   C64       1.0  0.02438  0.92394  0.36166  1.0000
  C   C65       1.0  0.05737  0.93458  0.38274  1.0000
  C   C66       1.0  0.06763  0.96794  0.36468  1.0000
  C   C67       1.0  0.46486  0.93982  0.33191  1.0000
  H   H32       1.0  0.07568  0.91653  0.39289  1.0000
  C   C68       1.0  0.05101  0.52754  0.33957  1.0000
  H   H33       1.0  0.45634  0.91594  0.34361  1.0000
  H   H34       1.0  0.41695  0.95525  0.29568  1.0000
  H   H35       1.0  0.07461  0.53627  0.35396  1.0000
  H   H36       1.0  0.03521  0.57561  0.30623  1.0000
  N   N13       1.0  0.46978  0.60161  0.29784  1.0000
  N   N14       1.0  0.02179  0.88994  0.35204  1.0000
  C   C69       1.0  0.99066  0.65679  0.33853  1.0000
  C   C70       1.0  0.99419  0.72802  0.32644  1.0000
  N   N15       1.0  0.01266  0.71016  0.38625  1.0000
  C   C71       1.0  0.01175  0.67612  0.39439  1.0000
  C   C72       1.0  0.01901  0.78184  0.38058  1.0000
  C   C73       1.0  0.02071  0.81724  0.37425  1.0000
  H   H37       1.0  0.03347  0.76991  0.42717  1.0000
  H   H38       1.0  0.03625  0.83002  0.41680  1.0000
  H   H39       1.0  0.02679  0.66500  0.44109  1.0000
  C   C74       1.0  0.99072  0.62142  0.34556  1.0000
  H   H40       1.0  0.00531  0.61047  0.39348  1.0000
  C   C75       1.0  0.33491  0.49893  0.33287  1.0000
  C   C76       1.0  0.26357  0.49695  0.32517  1.0000
  N   N16       1.0  0.28159  0.47731  0.38200  1.0000
  C   C77       1.0  0.31571  0.47739  0.38783  1.0000
  C   C78       1.0  0.20978  0.47276  0.38130  1.0000
  C   C79       1.0  0.17431  0.47182  0.37710  1.0000
  H   H41       1.0  0.22185  0.45743  0.42570  1.0000
  H   H42       1.0  0.16163  0.45589  0.41886  1.0000
  H   H43       1.0  0.32695  0.46162  0.43265  1.0000
  C   C80       1.0  0.37030  0.49858  0.33877  1.0000
  H   H44       1.0  0.38134  0.48337  0.38520  1.0000
  C   C81       1.0  0.98319  0.00827  0.31538  1.0000
  C   C82       1.0  0.92393  0.02357  0.28481  1.0000
  H   H45       1.0  0.91591  0.07506  0.25691  1.0000
  C   C83       1.0  0.54286  0.99287  0.34491  1.0000
  N   N17       1.0  0.88994  0.02039  0.29329  1.0000
  N   N18       1.0  0.60162  0.47115  0.35633  1.0000
  C   C84       1.0  0.47086  0.17429  0.27561  1.0000
  C   C85       1.0  0.97254  0.20970  0.26931  1.0000
  C   C86       1.0  0.49735  0.26352  0.32347  1.0000
  C   C87       1.0  0.50091  0.33474  0.31132  1.0000
  C   C88       1.0  0.47981  0.31542  0.25551  1.0000
  N   N19       1.0  0.47889  0.28138  0.26367  1.0000
  H   H46       1.0  0.46478  0.32653  0.20878  1.0000
  H   H47       1.0  0.95534  0.16151  0.23302  1.0000
  H   H48       1.0  0.95809  0.22163  0.22272  1.0000
  C   C89       1.0  0.50088  0.37011  0.30424  1.0000
  H   H49       1.0  0.48624  0.38106  0.25643  1.0000
  C   C90       1.0  0.81725  0.01981  0.27270  1.0000
  C   C91       1.0  0.78178  0.51889  0.26855  1.0000
  C   C92       1.0  0.72799  0.99470  0.32470  1.0000
  C   C93       1.0  0.65665  0.99268  0.31689  1.0000
  C   C94       1.0  0.67585  0.01423  0.26196  1.0000
  N   N20       1.0  0.70997  0.01433  0.26785  1.0000
  H   H50       1.0  0.66462  0.02999  0.21711  1.0000
  H   H51       1.0  0.82993  0.53573  0.23092  1.0000
  H   H52       1.0  0.76970  0.53422  0.22417  1.0000
  C   C95       1.0  0.62126  0.99299  0.31089  1.0000
  H   H53       1.0  0.61023  0.00818  0.26442  1.0000
  C   C96       1.0  0.94871  0.49865  0.30471  1.0000
  C   C97       1.0  0.93417  0.05696  0.26701  1.0000
  C   C98       1.0  0.96714  0.06760  0.28835  1.0000
  C   C99       1.0  0.99227  0.04305  0.30851  1.0000
  C   C100      1.0  0.94055  0.46399  0.31003  1.0000
  C   C101      1.0  0.52670  0.05172  0.31776  1.0000
  C   C102      1.0  0.50837  0.48327  0.33429  1.0000
  C   C103      1.0  0.49928  0.44849  0.34124  1.0000
  C   C104      1.0  0.52438  0.42394  0.36166  1.0000
  C   C105      1.0  0.55737  0.43458  0.38274  1.0000
  C   C106      1.0  0.56763  0.46794  0.36468  1.0000
  C   C107      1.0  0.96486  0.43982  0.33191  1.0000
  H   H54       1.0  0.57568  0.41653  0.39289  1.0000
  C   C108      1.0  0.55101  0.02754  0.33957  1.0000
  H   H55       1.0  0.95634  0.41593  0.34361  1.0000
  H   H56       1.0  0.91695  0.45526  0.29568  1.0000
  H   H57       1.0  0.57461  0.03627  0.35396  1.0000
  H   H58       1.0  0.53521  0.07561  0.30623  1.0000
  N   N21       1.0  0.96978  0.10161  0.29784  1.0000
  N   N22       1.0  0.52179  0.38994  0.35204  1.0000
  C   C109      1.0  0.49066  0.15679  0.33853  1.0000
  C   C110      1.0  0.49419  0.22802  0.32644  1.0000
  N   N23       1.0  0.51266  0.21016  0.38625  1.0000
  C   C111      1.0  0.51174  0.17611  0.39439  1.0000
  C   C112      1.0  0.51901  0.28184  0.38058  1.0000
  C   C113      1.0  0.52071  0.31724  0.37425  1.0000
  H   H59       1.0  0.53347  0.26991  0.42717  1.0000
  H   H60       1.0  0.53625  0.33002  0.41680  1.0000
  H   H61       1.0  0.52679  0.16500  0.44109  1.0000
  C   C114      1.0  0.49073  0.12142  0.34556  1.0000
  H   H62       1.0  0.50531  0.11047  0.39348  1.0000
  C   C115      1.0  0.83491  0.99893  0.33287  1.0000
  C   C116      1.0  0.76357  0.99695  0.32517  1.0000
  N   N24       1.0  0.78159  0.97731  0.38200  1.0000
  C   C117      1.0  0.81571  0.97739  0.38783  1.0000
  C   C118      1.0  0.70978  0.97276  0.38130  1.0000
  C   C119      1.0  0.67431  0.97182  0.37710  1.0000
  H   H63       1.0  0.72185  0.95743  0.42570  1.0000
  H   H64       1.0  0.66163  0.95589  0.41886  1.0000
  H   H65       1.0  0.82695  0.96162  0.43265  1.0000
  C   C120      1.0  0.87030  0.99858  0.33877  1.0000
  H   H66       1.0  0.88134  0.98337  0.38520  1.0000
  C   C121      1.0  0.98319  0.50827  0.31538  1.0000
  C   C122      1.0  0.92393  0.52357  0.28481  1.0000
  H   H67       1.0  0.91591  0.57506  0.25691  1.0000
  C   C123      1.0  0.54286  0.49288  0.34491  1.0000
  N   N25       1.0  0.88994  0.52039  0.29329  1.0000
  N   N26       1.0  0.60162  0.97115  0.35633  1.0000
  C   C124      1.0  0.47086  0.67429  0.27561  1.0000
  C   C125      1.0  0.97254  0.70970  0.26931  1.0000
  C   C126      1.0  0.49735  0.76352  0.32347  1.0000
  C   C127      1.0  0.50091  0.83474  0.31132  1.0000
  C   C128      1.0  0.47981  0.81542  0.25551  1.0000
  N   N27       1.0  0.47889  0.78138  0.26367  1.0000
  H   H68       1.0  0.46478  0.82653  0.20878  1.0000
  H   H69       1.0  0.95534  0.66151  0.23302  1.0000
  H   H70       1.0  0.95809  0.72163  0.22272  1.0000
  C   C129      1.0  0.50088  0.87011  0.30424  1.0000
  H   H71       1.0  0.48624  0.88106  0.25643  1.0000
  C   C130      1.0  0.81725  0.51981  0.27270  1.0000
  C   C131      1.0  0.78178  0.01889  0.26855  1.0000
  C   C132      1.0  0.72799  0.49470  0.32470  1.0000
  C   C133      1.0  0.65665  0.49268  0.31689  1.0000
  C   C134      1.0  0.67585  0.51423  0.26196  1.0000
  N   N28       1.0  0.70997  0.51433  0.26785  1.0000
  H   H72       1.0  0.66462  0.52999  0.21711  1.0000
  H   H73       1.0  0.82993  0.03573  0.23092  1.0000
  H   H74       1.0  0.76970  0.03422  0.22417  1.0000
  C   C135      1.0  0.62126  0.49299  0.31089  1.0000
  H   H75       1.0  0.61023  0.50818  0.26442  1.0000
  C   C136      1.0  0.94871  0.99865  0.30471  1.0000
  C   C137      1.0  0.93417  0.55696  0.26701  1.0000
  C   C138      1.0  0.96714  0.56760  0.28835  1.0000
  C   C139      1.0  0.99227  0.54305  0.30851  1.0000
  C   C140      1.0  0.94055  0.96399  0.31003  1.0000
  C   C141      1.0  0.52670  0.55172  0.31776  1.0000
  C   C142      1.0  0.50837  0.98327  0.33429  1.0000
  C   C143      1.0  0.49928  0.94849  0.34124  1.0000
  C   C144      1.0  0.52438  0.92394  0.36166  1.0000
  C   C145      1.0  0.55737  0.93458  0.38274  1.0000
  C   C146      1.0  0.56763  0.96794  0.36468  1.0000
  C   C147      1.0  0.96486  0.93982  0.33191  1.0000
  H   H76       1.0  0.57568  0.91653  0.39289  1.0000
  C   C148      1.0  0.55101  0.52754  0.33957  1.0000
  H   H77       1.0  0.95634  0.91594  0.34361  1.0000
  H   H78       1.0  0.91695  0.95525  0.29568  1.0000
  H   H79       1.0  0.57461  0.53627  0.35396  1.0000
  H   H80       1.0  0.53521  0.57561  0.30623  1.0000
  N   N29       1.0  0.96978  0.60161  0.29784  1.0000
  N   N30       1.0  0.52179  0.88994  0.35204  1.0000
  C   C149      1.0  0.49066  0.65679  0.33853  1.0000
  C   C150      1.0  0.49419  0.72802  0.32644  1.0000
  N   N31       1.0  0.51266  0.71016  0.38625  1.0000
  C   C151      1.0  0.51174  0.67612  0.39439  1.0000
  C   C152      1.0  0.51901  0.78184  0.38058  1.0000
  C   C153      1.0  0.52071  0.81724  0.37425  1.0000
  H   H81       1.0  0.53347  0.76991  0.42717  1.0000
  H   H82       1.0  0.53625  0.83002  0.41680  1.0000
  H   H83       1.0  0.52679  0.66500  0.44109  1.0000
  C   C154      1.0  0.49073  0.62142  0.34556  1.0000
  H   H84       1.0  0.50531  0.61047  0.39348  1.0000
  C   C155      1.0  0.83491  0.49893  0.33287  1.0000
  C   C156      1.0  0.76357  0.49695  0.32517  1.0000
  N   N32       1.0  0.78159  0.47731  0.38200  1.0000
  C   C157      1.0  0.81571  0.47739  0.38783  1.0000
  C   C158      1.0  0.70978  0.47276  0.38130  1.0000
  C   C159      1.0  0.67431  0.47182  0.37710  1.0000
  H   H85       1.0  0.72185  0.45743  0.42570  1.0000
  H   H86       1.0  0.66163  0.45589  0.41886  1.0000
  H   H87       1.0  0.82695  0.46162  0.43265  1.0000
  C   C160      1.0  0.87030  0.49858  0.33877  1.0000
  H   H88       1.0  0.88134  0.48337  0.38520  1.0000
