data_image0
_chemical_formula_structural       NC3H3NC3H3NC3H3NC3H3NC3H3NC3H3CNCHCNCHCNCHCNCHCNCHCNCHNC3H3NC3H3NC3H3NC3H3NC3H3NC3H3CNCNCNCNCNCNCNCNCNCNCNCNCNCNCNCNCNCNCNCNCNCNCNCNCNCNCNCNCNCNCNCNCNCNCNCNCNCHCNCHCNCHCNCHCNCHCNCHNC3H3NC3H3NC3H3NC3H3NC3H3NC3H3CNCHCNCHCNCHCNCHCNCHCNCH
_chemical_formula_sum              "N72 C126 H72"
_cell_length_a       39.0589
_cell_length_b       39.059
_cell_length_c       14.8542
_cell_angle_alpha    90
_cell_angle_beta     90
_cell_angle_gamma    120

_space_group_name_H-M_alt    "P 1"
_space_group_IT_number       1

loop_
  _space_group_symop_operation_xyz
  'x, y, z'

loop_
  _atom_site_type_symbol
  _atom_site_label
  _atom_site_symmetry_multiplicity
  _atom_site_fract_x
  _atom_site_fract_y
  _atom_site_fract_z
  _atom_site_occupancy
  N   N1        1.0  0.20306  0.42944  0.33633  1.0000
  C   C1        1.0  0.23542  0.42459  0.33672  1.0000
  C   C2        1.0  0.27371  0.45900  0.33516  1.0000
  C   C3        1.0  0.22811  0.38365  0.33938  1.0000
  H   H1        1.0  0.19649  0.36212  0.33938  1.0000
  H   H2        1.0  0.24092  0.37913  0.40036  1.0000
  H   H3        1.0  0.24125  0.37802  0.28046  1.0000
  N   N2        1.0  0.60118  0.79458  0.33623  1.0000
  C   C4        1.0  0.60610  0.83182  0.33633  1.0000
  C   C5        1.0  0.57173  0.83577  0.33446  1.0000
  C   C6        1.0  0.64708  0.86539  0.33913  1.0000
  H   H4        1.0  0.66855  0.85523  0.33963  1.0000
  H   H5        1.0  0.65154  0.88282  0.39990  1.0000
  H   H6        1.0  0.65284  0.88407  0.27999  1.0000
  N   N3        1.0  0.23642  0.82746  0.33590  1.0000
  C   C7        1.0  0.19920  0.79514  0.33625  1.0000
  C   C8        1.0  0.19527  0.75683  0.33525  1.0000
  C   C9        1.0  0.16561  0.80253  0.33816  1.0000
  H   H7        1.0  0.17575  0.83416  0.33784  1.0000
  H   H8        1.0  0.14815  0.78983  0.39902  1.0000
  H   H9        1.0  0.14696  0.78935  0.27910  1.0000
  N   N4        1.0  0.82395  0.60498  0.33630  1.0000
  C   C10       1.0  0.79160  0.60984  0.33668  1.0000
  C   C11       1.0  0.75330  0.57545  0.33483  1.0000
  C   C12       1.0  0.79891  0.65079  0.33971  1.0000
  H   H10       1.0  0.83054  0.67231  0.33991  1.0000
  H   H11       1.0  0.78605  0.65520  0.40071  1.0000
  H   H12       1.0  0.78584  0.65652  0.28083  1.0000
  N   N5        1.0  0.42585  0.23987  0.33644  1.0000
  C   C13       1.0  0.42091  0.20263  0.33650  1.0000
  C   C14       1.0  0.45526  0.19866  0.33477  1.0000
  C   C15       1.0  0.37991  0.16907  0.33910  1.0000
  H   H13       1.0  0.35846  0.17926  0.33959  1.0000
  H   H14       1.0  0.37540  0.15159  0.39980  1.0000
  H   H15       1.0  0.37418  0.15045  0.27989  1.0000
  N   N6        1.0  0.79049  0.20693  0.33573  1.0000
  C   C16       1.0  0.82772  0.23925  0.33596  1.0000
  C   C17       1.0  0.83165  0.27756  0.33476  1.0000
  C   C18       1.0  0.86129  0.23184  0.33802  1.0000
  H   H16       1.0  0.85114  0.20020  0.33793  1.0000
  H   H17       1.0  0.87877  0.24462  0.39881  1.0000
  H   H18       1.0  0.87992  0.24493  0.27890  1.0000
  C   C19       1.0  0.13382  0.61405  0.34176  1.0000
  N   N7        1.0  0.10540  0.54407  0.34354  1.0000
  C   C20       1.0  0.10030  0.57582  0.34380  1.0000
  H   H19       1.0  0.07215  0.57121  0.34519  1.0000
  C   C21       1.0  0.41645  0.54074  0.34201  1.0000
  N   N8        1.0  0.48640  0.58237  0.34441  1.0000
  C   C22       1.0  0.45469  0.54551  0.34467  1.0000
  H   H20       1.0  0.45935  0.52201  0.34658  1.0000
  C   C23       1.0  0.49041  0.89721  0.34047  1.0000
  N   N9        1.0  0.44873  0.92550  0.34207  1.0000
  C   C24       1.0  0.48562  0.93069  0.34212  1.0000
  H   H21       1.0  0.50913  0.95886  0.34309  1.0000
  C   C25       1.0  0.89319  0.42035  0.34105  1.0000
  N   N10       1.0  0.92159  0.49032  0.34306  1.0000
  C   C26       1.0  0.92671  0.45858  0.34317  1.0000
  H   H22       1.0  0.95485  0.46319  0.34458  1.0000
  C   C27       1.0  0.61058  0.49371  0.34202  1.0000
  N   N11       1.0  0.54063  0.45208  0.34455  1.0000
  C   C28       1.0  0.57233  0.48894  0.34474  1.0000
  H   H23       1.0  0.56766  0.51244  0.34665  1.0000
  C   C29       1.0  0.53648  0.13712  0.34059  1.0000
  N   N12       1.0  0.57818  0.10888  0.34220  1.0000
  C   C30       1.0  0.54128  0.10366  0.34222  1.0000
  H   H24       1.0  0.51779  0.07548  0.34315  1.0000
  N   N13       1.0  0.99705  0.36569  0.28032  1.0000
  C   C31       1.0  0.03736  0.38434  0.27478  1.0000
  C   C32       1.0  0.05971  0.40640  0.35055  1.0000
  C   C33       1.0  0.05554  0.38493  0.18710  1.0000
  H   H25       1.0  0.03316  0.36659  0.13756  1.0000
  H   H26       1.0  0.07584  0.37359  0.19530  1.0000
  H   H27       1.0  0.07184  0.41509  0.16121  1.0000
  N   N14       1.0  0.66686  0.65432  0.28633  1.0000
  C   C34       1.0  0.64833  0.67612  0.28108  1.0000
  C   C35       1.0  0.62392  0.67405  0.35423  1.0000
  C   C36       1.0  0.65042  0.69647  0.19564  1.0000
  H   H28       1.0  0.67024  0.69393  0.14770  1.0000
  H   H29       1.0  0.66150  0.72778  0.20853  1.0000
  H   H30       1.0  0.62113  0.68354  0.16520  1.0000
  N   N15       1.0  0.37976  0.03332  0.27568  1.0000
  C   C37       1.0  0.35837  0.99302  0.26993  1.0000
  C   C38       1.0  0.35631  0.97075  0.34745  1.0000
  C   C39       1.0  0.34286  0.97480  0.18104  1.0000
  H   H31       1.0  0.34797  0.99715  0.13043  1.0000
  H   H32       1.0  0.31109  0.95440  0.18579  1.0000
  H   H33       1.0  0.35739  0.95860  0.15873  1.0000
  N   N16       1.0  0.02998  0.66946  0.28278  1.0000
  C   C40       1.0  0.98967  0.65090  0.27713  1.0000
  C   C41       1.0  0.96728  0.62798  0.35192  1.0000
  C   C42       1.0  0.97154  0.65132  0.19009  1.0000
  H   H34       1.0  0.99396  0.67021  0.14118  1.0000
  H   H35       1.0  0.95127  0.66259  0.19987  1.0000
  H   H36       1.0  0.95524  0.62147  0.16249  1.0000
  N   N17       1.0  0.36026  0.38023  0.28622  1.0000
  C   C43       1.0  0.37879  0.35843  0.28099  1.0000
  C   C44       1.0  0.40309  0.36034  0.35426  1.0000
  C   C45       1.0  0.37684  0.33823  0.19541  1.0000
  H   H37       1.0  0.35711  0.34086  0.14737  1.0000
  H   H38       1.0  0.36574  0.30689  0.20805  1.0000
  H   H39       1.0  0.40618  0.35120  0.16522  1.0000
  N   N18       1.0  0.64825  0.00109  0.27829  1.0000
  C   C46       1.0  0.66975  0.04140  0.27270  1.0000
  C   C47       1.0  0.67056  0.06364  0.34918  1.0000
  C   C48       1.0  0.68666  0.05967  0.18463  1.0000
  H   H40       1.0  0.68232  0.03734  0.13466  1.0000
  H   H41       1.0  0.71834  0.08004  0.19174  1.0000
  H   H42       1.0  0.67253  0.07590  0.15997  1.0000
  C   C49       1.0  0.09909  0.43797  0.34485  1.0000
  N   N19       1.0  0.13210  0.43451  0.33988  1.0000
  C   C50       1.0  0.16897  0.46731  0.33613  1.0000
  N   N20       1.0  0.17153  0.50348  0.33697  1.0000
  C   C51       1.0  0.13945  0.50829  0.34135  1.0000
  N   N21       1.0  0.10370  0.47473  0.34561  1.0000
  C   C52       1.0  0.59247  0.68204  0.34688  1.0000
  N   N22       1.0  0.59599  0.71853  0.34117  1.0000
  C   C53       1.0  0.56323  0.72265  0.33636  1.0000
  N   N23       1.0  0.52702  0.68908  0.33685  1.0000
  C   C54       1.0  0.52213  0.65218  0.34184  1.0000
  N   N24       1.0  0.55564  0.64997  0.34723  1.0000
  C   C55       1.0  0.34871  0.93144  0.34309  1.0000
  N   N25       1.0  0.31230  0.89836  0.33887  1.0000
  C   C56       1.0  0.30834  0.86153  0.33598  1.0000
  N   N26       1.0  0.34203  0.85910  0.33685  1.0000
  C   C57       1.0  0.37888  0.89128  0.34052  1.0000
  N   N27       1.0  0.38097  0.92701  0.34393  1.0000
  C   C58       1.0  0.92789  0.59642  0.34550  1.0000
  N   N28       1.0  0.89489  0.59989  0.34025  1.0000
  C   C59       1.0  0.85803  0.56710  0.33595  1.0000
  N   N29       1.0  0.85545  0.53092  0.33653  1.0000
  C   C60       1.0  0.88752  0.52609  0.34112  1.0000
  N   N30       1.0  0.92325  0.55964  0.34594  1.0000
  C   C61       1.0  0.43455  0.35239  0.34702  1.0000
  N   N31       1.0  0.43104  0.31591  0.34142  1.0000
  C   C62       1.0  0.46381  0.31179  0.33669  1.0000
  N   N32       1.0  0.50002  0.34537  0.33715  1.0000
  C   C63       1.0  0.50489  0.38227  0.34204  1.0000
  N   N33       1.0  0.47138  0.38448  0.34736  1.0000
  C   C64       1.0  0.67821  0.10298  0.34398  1.0000
  N   N34       1.0  0.71462  0.13605  0.33933  1.0000
  C   C65       1.0  0.71857  0.17287  0.33592  1.0000
  N   N35       1.0  0.68490  0.17532  0.33671  1.0000
  C   C66       1.0  0.64805  0.14315  0.34076  1.0000
  N   N36       1.0  0.64597  0.10744  0.34470  1.0000
  C   C67       1.0  0.42865  0.09302  0.34509  1.0000
  N   N37       1.0  0.42488  0.12583  0.34089  1.0000
  C   C68       1.0  0.45723  0.16300  0.33670  1.0000
  N   N38       1.0  0.49362  0.16590  0.33671  1.0000
  C   C69       1.0  0.49862  0.13390  0.34041  1.0000
  N   N39       1.0  0.46550  0.09790  0.34494  1.0000
  C   C70       1.0  0.67393  0.60155  0.34962  1.0000
  N   N40       1.0  0.71059  0.60556  0.34370  1.0000
  C   C71       1.0  0.71562  0.57335  0.33753  1.0000
  N   N41       1.0  0.68226  0.53685  0.33714  1.0000
  C   C72       1.0  0.64519  0.53158  0.34216  1.0000
  N   N42       1.0  0.64218  0.56455  0.34881  1.0000
  C   C73       1.0  0.93728  0.35663  0.34684  1.0000
  N   N43       1.0  0.90448  0.32004  0.34200  1.0000
  C   C74       1.0  0.86731  0.31520  0.33695  1.0000
  N   N44       1.0  0.86437  0.34867  0.33677  1.0000
  C   C75       1.0  0.89633  0.38567  0.34101  1.0000
  N   N45       1.0  0.93230  0.38854  0.34647  1.0000
  C   C76       1.0  0.59823  0.94137  0.34585  1.0000
  N   N46       1.0  0.60205  0.90859  0.34129  1.0000
  C   C77       1.0  0.56973  0.87142  0.33652  1.0000
  N   N47       1.0  0.53332  0.86846  0.33637  1.0000
  C   C78       1.0  0.52826  0.90041  0.34038  1.0000
  N   N48       1.0  0.56134  0.93641  0.34553  1.0000
  C   C79       1.0  0.35308  0.43289  0.34963  1.0000
  N   N49       1.0  0.31642  0.42889  0.34386  1.0000
  C   C80       1.0  0.31140  0.46110  0.33780  1.0000
  N   N50       1.0  0.34476  0.49760  0.33732  1.0000
  C   C81       1.0  0.38183  0.50286  0.34222  1.0000
  N   N51       1.0  0.38484  0.46989  0.34879  1.0000
  C   C82       1.0  0.08968  0.67771  0.34830  1.0000
  N   N52       1.0  0.12245  0.71431  0.34305  1.0000
  C   C83       1.0  0.15962  0.71919  0.33761  1.0000
  N   N53       1.0  0.16260  0.68574  0.33734  1.0000
  C   C84       1.0  0.13068  0.64873  0.34185  1.0000
  N   N54       1.0  0.09472  0.64583  0.34775  1.0000
  C   C85       1.0  0.20418  0.46486  0.33405  1.0000
  N   N55       1.0  0.27442  0.49421  0.33270  1.0000
  C   C86       1.0  0.24223  0.49868  0.33178  1.0000
  H   H43       1.0  0.24642  0.52666  0.33037  1.0000
  C   C87       1.0  0.56574  0.76033  0.33386  1.0000
  N   N56       1.0  0.53649  0.80131  0.33194  1.0000
  C   C88       1.0  0.53195  0.76462  0.33126  1.0000
  H   H44       1.0  0.50396  0.74086  0.32983  1.0000
  C   C89       1.0  0.27070  0.82630  0.33425  1.0000
  N   N57       1.0  0.22976  0.75607  0.33344  1.0000
  C   C90       1.0  0.26644  0.78823  0.33263  1.0000
  H   H45       1.0  0.29023  0.78404  0.33169  1.0000
  C   C91       1.0  0.82283  0.56957  0.33374  1.0000
  N   N58       1.0  0.75259  0.54024  0.33209  1.0000
  C   C92       1.0  0.78477  0.53575  0.33111  1.0000
  H   H46       1.0  0.78058  0.50778  0.32957  1.0000
  C   C93       1.0  0.46130  0.27411  0.33426  1.0000
  N   N59       1.0  0.49052  0.23311  0.33246  1.0000
  C   C94       1.0  0.49508  0.26980  0.33182  1.0000
  H   H47       1.0  0.52307  0.29356  0.33053  1.0000
  C   C95       1.0  0.75622  0.20810  0.33396  1.0000
  N   N60       1.0  0.79717  0.27833  0.33289  1.0000
  C   C96       1.0  0.76048  0.24617  0.33217  1.0000
  H   H48       1.0  0.73670  0.25037  0.33118  1.0000
  N   N61       1.0  0.16960  0.61598  0.33988  1.0000
  C   C97       1.0  0.17506  0.58403  0.33974  1.0000
  C   C98       1.0  0.14097  0.54556  0.34161  1.0000
  C   C99       1.0  0.21622  0.59194  0.33798  1.0000
  H   H49       1.0  0.23741  0.62365  0.33749  1.0000
  H   H50       1.0  0.22109  0.57907  0.27758  1.0000
  H   H51       1.0  0.22198  0.57925  0.39753  1.0000
  N   N62       1.0  0.41446  0.57455  0.33952  1.0000
  C   C100      1.0  0.44638  0.61198  0.33933  1.0000
  C   C101      1.0  0.48486  0.61641  0.34189  1.0000
  C   C102      1.0  0.43845  0.64522  0.33690  1.0000
  H   H52       1.0  0.40674  0.63467  0.33595  1.0000
  H   H53       1.0  0.45146  0.66290  0.27647  1.0000
  H   H54       1.0  0.45101  0.66374  0.39640  1.0000
  N   N63       1.0  0.45660  0.86140  0.33917  1.0000
  C   C103      1.0  0.41916  0.85585  0.33924  1.0000
  C   C104      1.0  0.41470  0.88989  0.34072  1.0000
  C   C105      1.0  0.38598  0.81464  0.33807  1.0000
  H   H55       1.0  0.39659  0.79351  0.33775  1.0000
  H   H56       1.0  0.36811  0.80957  0.27781  1.0000
  H   H57       1.0  0.36764  0.80898  0.39776  1.0000
  N   N64       1.0  0.85741  0.41842  0.33921  1.0000
  C   C106      1.0  0.85194  0.45036  0.33919  1.0000
  C   C107      1.0  0.88602  0.48882  0.34117  1.0000
  C   C108      1.0  0.81077  0.44243  0.33747  1.0000
  H   H58       1.0  0.78959  0.41072  0.33690  1.0000
  H   H59       1.0  0.80590  0.45533  0.27711  1.0000
  H   H60       1.0  0.80501  0.45510  0.39705  1.0000
  N   N65       1.0  0.61256  0.45989  0.33955  1.0000
  C   C109      1.0  0.58064  0.42246  0.33942  1.0000
  C   C110      1.0  0.54216  0.41803  0.34204  1.0000
  C   C111      1.0  0.58857  0.38923  0.33698  1.0000
  H   H61       1.0  0.62028  0.39978  0.33596  1.0000
  H   H62       1.0  0.57554  0.37154  0.27659  1.0000
  H   H63       1.0  0.57604  0.37073  0.39651  1.0000
  N   N66       1.0  0.57027  0.17294  0.33934  1.0000
  C   C112      1.0  0.60772  0.17853  0.33944  1.0000
  C   C113      1.0  0.61220  0.14451  0.34090  1.0000
  C   C114      1.0  0.64088  0.21975  0.33835  1.0000
  H   H64       1.0  0.63026  0.24086  0.33810  1.0000
  H   H65       1.0  0.65875  0.22485  0.27807  1.0000
  H   H66       1.0  0.65923  0.22539  0.39803  1.0000
  C   C115      1.0  0.97655  0.36454  0.35549  1.0000
  N   N67       1.0  0.03906  0.40658  0.42408  1.0000
  C   C116      1.0  0.99914  0.38573  0.43097  1.0000
  H   H67       1.0  0.98607  0.38955  0.48678  1.0000
  C   C117      1.0  0.66566  0.63268  0.35941  1.0000
  N   N68       1.0  0.62170  0.65124  0.42565  1.0000
  C   C118      1.0  0.64235  0.63199  0.43274  1.0000
  H   H68       1.0  0.63707  0.61374  0.48670  1.0000
  C   C119      1.0  0.39717  0.05375  0.35230  1.0000
  N   N69       1.0  0.37540  0.99138  0.42257  1.0000
  C   C120      1.0  0.39416  0.03132  0.42936  1.0000
  H   H69       1.0  0.40992  0.04442  0.48647  1.0000
  C   C121      1.0  0.05038  0.66970  0.35736  1.0000
  N   N70       1.0  0.98779  0.62695  0.42485  1.0000
  C   C122      1.0  0.02769  0.64770  0.43200  1.0000
  H   H70       1.0  0.04068  0.64328  0.48714  1.0000
  C   C123      1.0  0.36134  0.40176  0.35937  1.0000
  N   N71       1.0  0.40519  0.38311  0.42569  1.0000
  C   C124      1.0  0.38455  0.40236  0.43281  1.0000
  H   H71       1.0  0.38978  0.42056  0.48684  1.0000
  C   C125      1.0  0.62961  0.98066  0.35406  1.0000
  N   N72       1.0  0.65039  0.04305  0.42339  1.0000
  C   C126      1.0  0.63148  0.00312  0.43019  1.0000
  H   H72       1.0  0.61502  0.98998  0.48648  1.0000
