data_image0
_chemical_formula_structural       C4HC2H3OC4HC2H3OC4HC2H3ON6C4HC2H3OC4HC2H3OC4HC2H3OC4HC2H3OC4HC2H3OC4HC2H3ON12C4HC2H3OC4HC2H3OC4HC2H3OC4HC2H3OC4HC2H3OC4HC2H3OC6H3C6H3C6H3C6H3C6H3C6H3C6H3C6H3C6H3C6H3C6H3C6H3C6H3C6H3C6H3C6H3N6C4HC2H3OC4HC2H3OC4HC2H3ON12C4HC2H3OC4HC2H3OC4HC2H3OC4HC2H3OC4HC2H3OC4HC2H3ON12
_chemical_formula_sum              "C240 H144 O24 N48"
_cell_length_a       41.9989
_cell_length_b       41.999
_cell_length_c       14.8793
_cell_angle_alpha    90
_cell_angle_beta     90
_cell_angle_gamma    120

_space_group_name_H-M_alt    "P 1"
_space_group_IT_number       1

loop_
  _space_group_symop_operation_xyz
  'x, y, z'

loop_
  _atom_site_type_symbol
  _atom_site_label
  _atom_site_symmetry_multiplicity
  _atom_site_fract_x
  _atom_site_fract_y
  _atom_site_fract_z
  _atom_site_occupancy
  C   C1        1.0  0.00393  0.14084  0.33100  1.0000
  C   C2        1.0  0.97781  0.11110  0.27836  1.0000
  C   C3        1.0  0.97662  0.07660  0.27593  1.0000
  C   C4        1.0  0.00200  0.07130  0.32876  1.0000
  H   H1        1.0  0.96019  0.11501  0.23843  1.0000
  C   C5        1.0  0.95295  0.04999  0.21558  1.0000
  C   C6        1.0  0.96549  0.05091  0.12442  1.0000
  H   H2        1.0  0.96638  0.07378  0.08726  1.0000
  H   H3        1.0  0.94691  0.02528  0.08978  1.0000
  H   H4        1.0  0.99290  0.05398  0.12409  1.0000
  O   O1        1.0  0.92030  0.04011  0.22432  1.0000
  C   C7        1.0  0.86934  0.86510  0.33099  1.0000
  C   C8        1.0  0.89909  0.86871  0.27846  1.0000
  C   C9        1.0  0.93357  0.90203  0.27593  1.0000
  C   C10       1.0  0.93886  0.93272  0.32869  1.0000
  H   H5        1.0  0.89518  0.84717  0.23857  1.0000
  C   C11       1.0  0.96020  0.90493  0.21574  1.0000
  C   C12       1.0  0.95915  0.91680  0.12476  1.0000
  H   H6        1.0  0.93612  0.89499  0.08763  1.0000
  H   H7        1.0  0.98465  0.92378  0.08959  1.0000
  H   H8        1.0  0.95627  0.94126  0.12509  1.0000
  O   O2        1.0  0.96981  0.88189  0.22252  1.0000
  C   C13       1.0  0.14505  0.00625  0.33111  1.0000
  C   C14       1.0  0.14145  0.03239  0.27854  1.0000
  C   C15       1.0  0.10814  0.03357  0.27604  1.0000
  C   C16       1.0  0.07745  0.00817  0.32881  1.0000
  H   H9        1.0  0.16297  0.04999  0.23857  1.0000
  C   C17       1.0  0.10520  0.05723  0.21568  1.0000
  C   C18       1.0  0.09360  0.04471  0.12450  1.0000
  H   H10       1.0  0.11560  0.04383  0.08739  1.0000
  H   H11       1.0  0.08656  0.06329  0.08986  1.0000
  H   H12       1.0  0.06927  0.01729  0.12414  1.0000
  O   O3        1.0  0.12797  0.08989  0.22445  1.0000
  N   N1        1.0  0.07433  0.30900  0.30016  1.0000
  N   N2        1.0  0.10045  0.34348  0.30349  1.0000
  N   N3        1.0  0.70113  0.76727  0.30038  1.0000
  N   N4        1.0  0.66666  0.75892  0.30368  1.0000
  N   N5        1.0  0.24276  0.93580  0.30010  1.0000
  N   N6        1.0  0.25113  0.90968  0.30345  1.0000
  C   C19       1.0  0.35858  0.12792  0.32462  1.0000
  C   C20       1.0  0.33155  0.13115  0.27521  1.0000
  C   C21       1.0  0.29408  0.10268  0.27634  1.0000
  C   C22       1.0  0.28379  0.07085  0.32997  1.0000
  H   H13       1.0  0.33954  0.15348  0.23420  1.0000
  C   C23       1.0  0.26918  0.10487  0.21896  1.0000
  C   C24       1.0  0.26642  0.09166  0.12758  1.0000
  H   H14       1.0  0.29067  0.11058  0.08871  1.0000
  H   H15       1.0  0.24204  0.08928  0.09484  1.0000
  H   H16       1.0  0.26392  0.06449  0.12690  1.0000
  O   O4        1.0  0.26578  0.13203  0.22718  1.0000
  C   C25       1.0  0.77750  0.65157  0.32475  1.0000
  C   C26       1.0  0.80777  0.67860  0.27532  1.0000
  C   C27       1.0  0.81677  0.71608  0.27641  1.0000
  C   C28       1.0  0.79522  0.72636  0.33002  1.0000
  H   H17       1.0  0.82207  0.67061  0.23423  1.0000
  C   C29       1.0  0.84385  0.74100  0.21884  1.0000
  C   C30       1.0  0.83316  0.74334  0.12750  1.0000
  H   H18       1.0  0.82776  0.71894  0.08922  1.0000
  H   H19       1.0  0.85512  0.76757  0.09419  1.0000
  H   H20       1.0  0.80850  0.74586  0.12676  1.0000
  O   O5        1.0  0.87439  0.74449  0.22831  1.0000
  C   C31       1.0  0.88223  0.23265  0.32463  1.0000
  C   C32       1.0  0.87905  0.20247  0.27495  1.0000
  C   C33       1.0  0.90750  0.19342  0.27624  1.0000
  C   C34       1.0  0.93927  0.21491  0.33006  1.0000
  H   H21       1.0  0.85676  0.18816  0.23384  1.0000
  C   C35       1.0  0.90542  0.16648  0.21848  1.0000
  C   C36       1.0  0.91833  0.17666  0.12697  1.0000
  H   H22       1.0  0.89917  0.18168  0.08821  1.0000
  H   H23       1.0  0.92080  0.15465  0.09461  1.0000
  H   H24       1.0  0.94540  0.20146  0.12574  1.0000
  O   O6        1.0  0.87850  0.13586  0.22854  1.0000
  C   C37       1.0  0.26157  0.45834  0.35404  1.0000
  C   C38       1.0  0.27712  0.44860  0.28286  1.0000
  C   C39       1.0  0.31574  0.46734  0.27132  1.0000
  C   C40       1.0  0.33812  0.49571  0.33340  1.0000
  H   H25       1.0  0.26030  0.42926  0.23703  1.0000
  C   C41       1.0  0.33070  0.45947  0.19698  1.0000
  C   C42       1.0  0.33457  0.47946  0.11444  1.0000
  H   H26       1.0  0.30770  0.47009  0.08365  1.0000
  H   H27       1.0  0.35186  0.47517  0.06681  1.0000
  H   H28       1.0  0.34757  0.50895  0.12739  1.0000
  O   O7        1.0  0.32259  0.42732  0.18726  1.0000
  C   C43       1.0  0.55182  0.80525  0.35412  1.0000
  C   C44       1.0  0.56149  0.83048  0.28285  1.0000
  C   C45       1.0  0.54275  0.85038  0.27133  1.0000
  C   C46       1.0  0.51440  0.84439  0.33345  1.0000
  H   H29       1.0  0.58076  0.83296  0.23687  1.0000
  C   C47       1.0  0.55051  0.87311  0.19680  1.0000
  C   C48       1.0  0.53092  0.85719  0.11386  1.0000
  H   H30       1.0  0.54066  0.84001  0.08301  1.0000
  H   H31       1.0  0.53519  0.87888  0.06664  1.0000
  H   H32       1.0  0.50141  0.84042  0.12620  1.0000
  O   O8        1.0  0.58262  0.89753  0.18895  1.0000
  C   C49       1.0  0.20484  0.74857  0.35410  1.0000
  C   C50       1.0  0.17965  0.73301  0.28276  1.0000
  C   C51       1.0  0.15971  0.69438  0.27132  1.0000
  C   C52       1.0  0.16567  0.67202  0.33352  1.0000
  H   H33       1.0  0.17712  0.74981  0.23685  1.0000
  C   C53       1.0  0.13695  0.67940  0.19686  1.0000
  C   C54       1.0  0.15283  0.67568  0.11390  1.0000
  H   H34       1.0  0.17002  0.70258  0.08298  1.0000
  H   H35       1.0  0.13111  0.65825  0.06672  1.0000
  H   H36       1.0  0.16958  0.66291  0.12623  1.0000
  O   O9        1.0  0.11254  0.68710  0.18903  1.0000
  N   N7        1.0  0.50579  0.31737  0.27830  1.0000
  N   N8        1.0  0.48935  0.28161  0.27143  1.0000
  N   N9        1.0  0.81968  0.50435  0.27824  1.0000
  N   N10       1.0  0.80039  0.52081  0.27134  1.0000
  N   N11       1.0  0.69278  0.19040  0.27848  1.0000
  N   N12       1.0  0.72854  0.20971  0.27152  1.0000
  N   N13       1.0  0.14256  0.48855  0.30661  1.0000
  N   N14       1.0  0.13554  0.51540  0.29760  1.0000
  N   N15       1.0  0.52154  0.65607  0.30654  1.0000
  N   N16       1.0  0.49467  0.62221  0.29747  1.0000
  N   N17       1.0  0.35409  0.86756  0.30666  1.0000
  N   N18       1.0  0.38795  0.87457  0.29762  1.0000
  C   C55       1.0  0.54924  0.14801  0.32448  1.0000
  C   C56       1.0  0.54873  0.16881  0.25086  1.0000
  C   C57       1.0  0.51911  0.17558  0.24040  1.0000
  C   C58       1.0  0.49030  0.16082  0.30536  1.0000
  H   H37       1.0  0.56884  0.17739  0.20280  1.0000
  C   C59       1.0  0.51717  0.19390  0.16457  1.0000
  C   C60       1.0  0.49906  0.17250  0.08519  1.0000
  H   H38       1.0  0.51599  0.16267  0.05334  1.0000
  H   H39       1.0  0.49432  0.18927  0.03686  1.0000
  H   H40       1.0  0.47240  0.14886  0.10238  1.0000
  O   O10       1.0  0.54388  0.22438  0.15121  1.0000
  C   C61       1.0  0.60693  0.46090  0.32426  1.0000
  C   C62       1.0  0.62818  0.46158  0.25032  1.0000
  C   C63       1.0  0.66456  0.49121  0.23999  1.0000
  C   C64       1.0  0.67865  0.51990  0.30526  1.0000
  H   H41       1.0  0.61664  0.44151  0.20217  1.0000
  C   C65       1.0  0.68482  0.49328  0.16403  1.0000
  C   C66       1.0  0.68151  0.51152  0.08492  1.0000
  H   H42       1.0  0.65474  0.49464  0.05307  1.0000
  H   H43       1.0  0.70300  0.51634  0.03648  1.0000
  H   H44       1.0  0.68453  0.53814  0.10247  1.0000
  O   O11       1.0  0.68860  0.46660  0.15027  1.0000
  C   C67       1.0  0.86210  0.40319  0.32426  1.0000
  C   C68       1.0  0.84136  0.38187  0.25060  1.0000
  C   C69       1.0  0.83465  0.34550  0.24017  1.0000
  C   C70       1.0  0.84930  0.33145  0.30540  1.0000
  H   H45       1.0  0.83282  0.39341  0.20244  1.0000
  C   C71       1.0  0.81631  0.32518  0.16430  1.0000
  C   C72       1.0  0.83832  0.32882  0.08578  1.0000
  H   H46       1.0  0.84855  0.35578  0.05469  1.0000
  H   H47       1.0  0.82182  0.30765  0.03649  1.0000
  H   H48       1.0  0.86171  0.32548  0.10372  1.0000
  O   O12       1.0  0.78603  0.32171  0.14995  1.0000
  C   C73       1.0  0.04413  0.56274  0.33055  1.0000
  C   C74       1.0  0.02657  0.57433  0.26862  1.0000
  C   C75       1.0  0.98780  0.55578  0.26455  1.0000
  C   C76       1.0  0.96809  0.52594  0.32472  1.0000
  H   H49       1.0  0.04191  0.59496  0.22390  1.0000
  C   C77       1.0  0.97028  0.56481  0.19841  1.0000
  C   C78       1.0  0.96445  0.54759  0.11099  1.0000
  H   H50       1.0  0.99042  0.55881  0.07437  1.0000
  H   H51       1.0  0.94532  0.55243  0.07167  1.0000
  H   H52       1.0  0.95266  0.51789  0.11772  1.0000
  O   O13       1.0  0.97722  0.59682  0.19865  1.0000
  C   C79       1.0  0.44742  0.48347  0.33034  1.0000
  C   C80       1.0  0.43582  0.45432  0.26844  1.0000
  C   C81       1.0  0.45440  0.43412  0.26432  1.0000
  C   C82       1.0  0.48422  0.44423  0.32454  1.0000
  H   H53       1.0  0.41514  0.44898  0.22384  1.0000
  C   C83       1.0  0.44526  0.40746  0.19846  1.0000
  C   C84       1.0  0.46290  0.41905  0.11138  1.0000
  H   H54       1.0  0.45206  0.43411  0.07465  1.0000
  H   H55       1.0  0.45802  0.39514  0.07168  1.0000
  H   H56       1.0  0.49260  0.43670  0.11884  1.0000
  O   O14       1.0  0.41314  0.38267  0.19669  1.0000
  C   C85       1.0  0.52669  0.96595  0.33056  1.0000
  C   C86       1.0  0.55588  0.98351  0.26872  1.0000
  C   C87       1.0  0.57608  0.02229  0.26459  1.0000
  C   C88       1.0  0.56594  0.04199  0.32476  1.0000
  H   H57       1.0  0.56119  0.96818  0.22404  1.0000
  C   C89       1.0  0.60273  0.03984  0.19858  1.0000
  C   C90       1.0  0.59082  0.04547  0.11157  1.0000
  H   H58       1.0  0.57570  0.01942  0.07549  1.0000
  H   H59       1.0  0.61460  0.06434  0.07131  1.0000
  H   H60       1.0  0.57315  0.05752  0.11888  1.0000
  O   O15       1.0  0.62762  0.03266  0.19810  1.0000
  C   C91       1.0  0.00380  0.03741  0.33325  1.0000
  C   C92       1.0  0.03817  0.03840  0.33473  1.0000
  C   C93       1.0  0.04174  0.00636  0.33327  1.0000
  C   C94       1.0  0.00836  0.97199  0.33469  1.0000
  C   C95       1.0  0.97276  0.96842  0.33324  1.0000
  C   C96       1.0  0.97176  0.00180  0.33469  1.0000
  H   H61       1.0  0.01017  0.94862  0.33635  1.0000
  H   H62       1.0  0.94660  0.99999  0.33632  1.0000
  H   H63       1.0  0.06153  0.06357  0.33641  1.0000
  C   C97       1.0  0.04074  0.24499  0.34169  1.0000
  C   C98       1.0  0.00677  0.24448  0.33826  1.0000
  C   C99       1.0  0.97217  0.21190  0.33395  1.0000
  C   C100      1.0  0.97243  0.17820  0.33335  1.0000
  C   C101      1.0  0.00531  0.17617  0.33537  1.0000
  C   C102      1.0  0.03908  0.21022  0.34074  1.0000
  H   H64       1.0  0.94775  0.15427  0.33463  1.0000
  H   H65       1.0  0.06313  0.20968  0.33965  1.0000
  H   H66       1.0  0.00720  0.26907  0.33894  1.0000
  C   C103      1.0  0.76517  0.79776  0.34170  1.0000
  C   C104      1.0  0.76569  0.76431  0.33829  1.0000
  C   C105      1.0  0.79826  0.76228  0.33398  1.0000
  C   C106      1.0  0.83197  0.79624  0.33338  1.0000
  C   C107      1.0  0.83400  0.83116  0.33537  1.0000
  C   C108      1.0  0.79995  0.83088  0.34070  1.0000
  H   H67       1.0  0.85589  0.79549  0.33470  1.0000
  H   H68       1.0  0.80050  0.85547  0.33957  1.0000
  H   H69       1.0  0.74110  0.74015  0.33898  1.0000
  C   C109      1.0  0.21238  0.96940  0.34168  1.0000
  C   C110      1.0  0.24584  0.00336  0.33823  1.0000
  C   C111      1.0  0.24788  0.03797  0.33396  1.0000
  C   C112      1.0  0.21392  0.03772  0.33344  1.0000
  C   C113      1.0  0.17900  0.00485  0.33545  1.0000
  C   C114      1.0  0.17927  0.97108  0.34074  1.0000
  H   H70       1.0  0.21468  0.06241  0.33473  1.0000
  H   H71       1.0  0.15467  0.94703  0.33972  1.0000
  H   H72       1.0  0.26999  0.00291  0.33885  1.0000
  C   C115      1.0  0.17331  0.45910  0.36947  1.0000
  C   C116      1.0  0.21094  0.47003  0.36724  1.0000
  C   C117      1.0  0.22312  0.44440  0.36088  1.0000
  C   C118      1.0  0.19649  0.40652  0.35611  1.0000
  C   C119      1.0  0.15820  0.39403  0.35709  1.0000
  C   C120      1.0  0.14726  0.42108  0.36149  1.0000
  H   H73       1.0  0.20526  0.38783  0.35055  1.0000
  H   H74       1.0  0.11987  0.41297  0.36265  1.0000
  H   H75       1.0  0.23001  0.49755  0.36629  1.0000
  C   C121      1.0  0.55106  0.71623  0.36953  1.0000
  C   C122      1.0  0.54012  0.74292  0.36727  1.0000
  C   C123      1.0  0.56574  0.78073  0.36088  1.0000
  C   C124      1.0  0.60362  0.79199  0.35602  1.0000
  C   C125      1.0  0.61612  0.76619  0.35701  1.0000
  C   C126      1.0  0.58908  0.72821  0.36147  1.0000
  H   H76       1.0  0.62230  0.81944  0.35045  1.0000
  H   H77       1.0  0.59719  0.70893  0.36265  1.0000
  H   H78       1.0  0.51260  0.73447  0.36646  1.0000
  C   C127      1.0  0.29388  0.83682  0.36941  1.0000
  C   C128      1.0  0.26719  0.79919  0.36716  1.0000
  C   C129      1.0  0.22938  0.78702  0.36078  1.0000
  C   C130      1.0  0.21813  0.81365  0.35606  1.0000
  C   C131      1.0  0.24394  0.85194  0.35706  1.0000
  C   C132      1.0  0.28192  0.86287  0.36147  1.0000
  H   H79       1.0  0.19067  0.80489  0.35055  1.0000
  H   H80       1.0  0.30119  0.89026  0.36267  1.0000
  H   H81       1.0  0.27563  0.78011  0.36632  1.0000
  C   C133      1.0  0.46212  0.17018  0.31074  1.0000
  C   C134      1.0  0.47296  0.20777  0.31287  1.0000
  C   C135      1.0  0.44719  0.21978  0.31914  1.0000
  C   C136      1.0  0.40936  0.19300  0.32352  1.0000
  C   C137      1.0  0.39708  0.15476  0.32231  1.0000
  C   C138      1.0  0.42419  0.14395  0.31820  1.0000
  H   H82       1.0  0.39053  0.20161  0.32840  1.0000
  H   H83       1.0  0.41621  0.11660  0.31658  1.0000
  H   H84       1.0  0.50047  0.22691  0.31313  1.0000
  C   C139      1.0  0.71618  0.54805  0.31072  1.0000
  C   C140      1.0  0.74292  0.53719  0.31278  1.0000
  C   C141      1.0  0.78071  0.56295  0.31911  1.0000
  C   C142      1.0  0.79177  0.60077  0.32358  1.0000
  C   C143      1.0  0.76583  0.61308  0.32241  1.0000
  C   C144      1.0  0.72790  0.58598  0.31836  1.0000
  H   H85       1.0  0.81921  0.61959  0.32849  1.0000
  H   H86       1.0  0.70854  0.59398  0.31661  1.0000
  H   H87       1.0  0.73453  0.50968  0.31287  1.0000
  C   C145      1.0  0.83996  0.29392  0.31071  1.0000
  C   C146      1.0  0.80237  0.26715  0.31288  1.0000
  C   C147      1.0  0.79036  0.22937  0.31913  1.0000
  C   C148      1.0  0.81715  0.21834  0.32348  1.0000
  C   C149      1.0  0.85539  0.24431  0.32231  1.0000
  C   C150      1.0  0.86620  0.28223  0.31831  1.0000
  H   H88       1.0  0.80854  0.19090  0.32838  1.0000
  H   H89       1.0  0.89355  0.30160  0.31657  1.0000
  H   H90       1.0  0.78323  0.27553  0.31307  1.0000
  C   C151      1.0  0.08249  0.57839  0.33463  1.0000
  C   C152      1.0  0.09817  0.55566  0.33914  1.0000
  C   C153      1.0  0.13656  0.57062  0.34489  1.0000
  C   C154      1.0  0.15942  0.60949  0.34564  1.0000
  C   C155      1.0  0.14422  0.63291  0.33685  1.0000
  C   C156      1.0  0.10562  0.61674  0.33462  1.0000
  H   H91       1.0  0.18735  0.62075  0.34851  1.0000
  H   H92       1.0  0.09396  0.63312  0.33483  1.0000
  H   H93       1.0  0.08118  0.52768  0.33945  1.0000
  C   C157      1.0  0.43176  0.50616  0.33445  1.0000
  C   C158      1.0  0.45447  0.54458  0.33901  1.0000
  C   C159      1.0  0.43951  0.56800  0.34480  1.0000
  C   C160      1.0  0.40064  0.55199  0.34553  1.0000
  C   C161      1.0  0.37723  0.51337  0.33674  1.0000
  C   C162      1.0  0.39341  0.49094  0.33447  1.0000
  H   H94       1.0  0.38938  0.56866  0.34853  1.0000
  H   H95       1.0  0.37703  0.46290  0.33464  1.0000
  H   H96       1.0  0.48246  0.55558  0.33933  1.0000
  C   C163      1.0  0.50399  0.92759  0.33462  1.0000
  C   C164      1.0  0.46558  0.91192  0.33914  1.0000
  C   C165      1.0  0.44214  0.87353  0.34485  1.0000
  C   C166      1.0  0.45813  0.85066  0.34556  1.0000
  C   C167      1.0  0.49675  0.86585  0.33678  1.0000
  C   C168      1.0  0.51919  0.90446  0.33460  1.0000
  H   H97       1.0  0.44145  0.82273  0.34851  1.0000
  H   H98       1.0  0.54724  0.91611  0.33480  1.0000
  H   H99       1.0  0.45459  0.92891  0.33948  1.0000
  C   C169      1.0  0.58190  0.08052  0.32754  1.0000
  C   C170      1.0  0.55920  0.09630  0.32828  1.0000
  C   C171      1.0  0.57424  0.13473  0.32928  1.0000
  C   C172      1.0  0.61303  0.15762  0.33082  1.0000
  C   C173      1.0  0.63634  0.14222  0.33611  1.0000
  C   C174      1.0  0.62023  0.10364  0.33201  1.0000
  H   H100      1.0  0.62425  0.18557  0.33205  1.0000
  H   H101      1.0  0.63662  0.09202  0.33276  1.0000
  H   H102      1.0  0.53125  0.07946  0.32375  1.0000
  C   C175      1.0  0.50679  0.42827  0.32734  1.0000
  C   C176      1.0  0.54527  0.45096  0.32807  1.0000
  C   C177      1.0  0.56865  0.43591  0.32902  1.0000
  C   C178      1.0  0.55274  0.39712  0.33059  1.0000
  C   C179      1.0  0.51403  0.37382  0.33590  1.0000
  C   C180      1.0  0.49157  0.38994  0.33179  1.0000
  H   H103      1.0  0.56947  0.38590  0.33182  1.0000
  H   H104      1.0  0.46356  0.37355  0.33250  1.0000
  H   H105      1.0  0.55639  0.47892  0.32357  1.0000
  C   C181      1.0  0.92956  0.50335  0.32740  1.0000
  C   C182      1.0  0.91380  0.46487  0.32808  1.0000
  C   C183      1.0  0.87537  0.44147  0.32898  1.0000
  C   C184      1.0  0.85246  0.45735  0.33055  1.0000
  C   C185      1.0  0.86785  0.49606  0.33586  1.0000
  C   C186      1.0  0.90643  0.51855  0.33182  1.0000
  H   H106      1.0  0.82451  0.44061  0.33178  1.0000
  H   H107      1.0  0.91804  0.54656  0.33257  1.0000
  H   H108      1.0  0.93065  0.45377  0.32361  1.0000
  N   N19       1.0  0.02691  0.10179  0.37529  1.0000
  N   N20       1.0  0.02793  0.13374  0.37644  1.0000
  N   N21       1.0  0.90836  0.92714  0.37519  1.0000
  N   N22       1.0  0.87642  0.89622  0.37636  1.0000
  N   N23       1.0  0.08302  0.98324  0.37530  1.0000
  N   N24       1.0  0.11394  0.98222  0.37647  1.0000
  C   C187      1.0  0.13146  0.35545  0.35330  1.0000
  C   C188      1.0  0.13428  0.32806  0.40228  1.0000
  C   C189      1.0  0.10570  0.29057  0.39976  1.0000
  C   C190      1.0  0.07415  0.28059  0.34537  1.0000
  H   H109      1.0  0.15635  0.33576  0.44400  1.0000
  C   C191      1.0  0.10721  0.26526  0.45697  1.0000
  C   C192      1.0  0.09389  0.26226  0.54818  1.0000
  H   H110      1.0  0.11297  0.28624  0.58766  1.0000
  H   H111      1.0  0.09112  0.23760  0.58019  1.0000
  H   H112      1.0  0.06690  0.26017  0.54880  1.0000
  O   O16       1.0  0.13409  0.26146  0.44750  1.0000
  C   C193      1.0  0.65471  0.77804  0.35320  1.0000
  C   C194      1.0  0.68214  0.80839  0.40179  1.0000
  C   C195      1.0  0.71962  0.81725  0.39944  1.0000
  C   C196      1.0  0.72956  0.79556  0.34541  1.0000
  H   H113      1.0  0.67444  0.82278  0.44340  1.0000
  C   C197      1.0  0.74498  0.84426  0.45635  1.0000
  C   C198      1.0  0.74760  0.83352  0.54747  1.0000
  H   H114      1.0  0.72341  0.82828  0.58645  1.0000
  H   H115      1.0  0.77204  0.85538  0.58034  1.0000
  H   H116      1.0  0.74993  0.80875  0.54778  1.0000
  O   O17       1.0  0.74859  0.87486  0.44727  1.0000
  C   C199      1.0  0.23209  0.87867  0.35326  1.0000
  C   C200      1.0  0.20186  0.87584  0.40222  1.0000
  C   C201      1.0  0.19298  0.90444  0.39976  1.0000
  C   C202      1.0  0.21452  0.93596  0.34531  1.0000
  H   H117      1.0  0.18757  0.85383  0.44411  1.0000
  C   C203      1.0  0.16621  0.90297  0.45710  1.0000
  C   C204      1.0  0.17659  0.91630  0.54827  1.0000
  H   H118      1.0  0.18151  0.89723  0.58771  1.0000
  H   H119      1.0  0.15474  0.91910  0.58038  1.0000
  H   H120      1.0  0.20151  0.94329  0.54880  1.0000
  O   O18       1.0  0.13551  0.87609  0.44776  1.0000
  N   N25       1.0  0.31187  0.07048  0.37538  1.0000
  N   N26       1.0  0.34638  0.09656  0.37314  1.0000
  N   N27       1.0  0.76680  0.69830  0.37552  1.0000
  N   N28       1.0  0.75837  0.66379  0.37331  1.0000
  N   N29       1.0  0.93961  0.24331  0.37558  1.0000
  N   N30       1.0  0.91354  0.25175  0.37333  1.0000
  N   N31       1.0  0.32082  0.50350  0.39966  1.0000
  N   N32       1.0  0.28507  0.48639  0.40837  1.0000
  N   N33       1.0  0.50665  0.81934  0.39976  1.0000
  N   N34       1.0  0.52377  0.80071  0.40846  1.0000
  N   N35       1.0  0.19074  0.68932  0.39980  1.0000
  N   N36       1.0  0.20938  0.72507  0.40847  1.0000
  C   C205      1.0  0.46075  0.25820  0.32450  1.0000
  C   C206      1.0  0.44951  0.27395  0.39208  1.0000
  C   C207      1.0  0.46746  0.31264  0.40160  1.0000
  C   C208      1.0  0.49658  0.33481  0.34111  1.0000
  H   H121      1.0  0.42962  0.25730  0.43700  1.0000
  C   C209      1.0  0.45810  0.32795  0.47264  1.0000
  C   C210      1.0  0.47701  0.33280  0.55738  1.0000
  H   H122      1.0  0.46772  0.30625  0.58984  1.0000
  H   H123      1.0  0.47152  0.35006  0.60234  1.0000
  H   H124      1.0  0.50672  0.34632  0.54722  1.0000
  O   O19       1.0  0.42566  0.31935  0.47736  1.0000
  C   C211      1.0  0.80555  0.54937  0.32455  1.0000
  C   C212      1.0  0.83248  0.56054  0.39224  1.0000
  C   C213      1.0  0.85322  0.54260  0.40169  1.0000
  C   C214      1.0  0.84626  0.51348  0.34121  1.0000
  H   H125      1.0  0.83570  0.58041  0.43724  1.0000
  C   C215      1.0  0.87779  0.55186  0.47284  1.0000
  C   C216      1.0  0.86423  0.53325  0.55803  1.0000
  H   H126      1.0  0.84733  0.54281  0.59117  1.0000
  H   H127      1.0  0.88721  0.53867  0.60209  1.0000
  H   H128      1.0  0.84778  0.50354  0.54832  1.0000
  O   O20       1.0  0.90183  0.58426  0.47695  1.0000
  C   C217      1.0  0.75194  0.20452  0.32463  1.0000
  C   C218      1.0  0.73622  0.17756  0.39226  1.0000
  C   C219      1.0  0.69753  0.15684  0.40182  1.0000
  C   C220      1.0  0.67534  0.16380  0.34141  1.0000
  H   H129      1.0  0.75289  0.17430  0.43707  1.0000
  C   C221      1.0  0.68225  0.13216  0.47273  1.0000
  C   C222      1.0  0.67703  0.14591  0.55761  1.0000
  H   H130      1.0  0.70345  0.16310  0.59070  1.0000
  H   H131      1.0  0.65961  0.12303  0.60209  1.0000
  H   H132      1.0  0.66354  0.16211  0.54735  1.0000
  O   O21       1.0  0.69100  0.10845  0.47865  1.0000
  C   C223      1.0  0.14969  0.54543  0.35214  1.0000
  C   C224      1.0  0.17192  0.54635  0.42408  1.0000
  C   C225      1.0  0.17924  0.51713  0.43593  1.0000
  C   C226      1.0  0.16381  0.48729  0.37369  1.0000
  H   H133      1.0  0.18119  0.56725  0.47013  1.0000
  C   C227      1.0  0.19910  0.51680  0.51048  1.0000
  C   C228      1.0  0.17873  0.49990  0.59204  1.0000
  H   H134      1.0  0.16895  0.51710  0.62263  1.0000
  H   H135      1.0  0.19630  0.49633  0.64029  1.0000
  H   H136      1.0  0.15514  0.47279  0.57803  1.0000
  O   O22       1.0  0.22954  0.54397  0.52032  1.0000
  C   C229      1.0  0.46468  0.60632  0.35220  1.0000
  C   C230      1.0  0.46386  0.62758  0.42436  1.0000
  C   C231      1.0  0.49306  0.66414  0.43610  1.0000
  C   C232      1.0  0.52288  0.67855  0.37382  1.0000
  H   H137      1.0  0.44295  0.61595  0.47039  1.0000
  C   C233      1.0  0.49347  0.68427  0.51076  1.0000
  C   C234      1.0  0.51022  0.68112  0.59285  1.0000
  H   H138      1.0  0.49286  0.65433  0.62416  1.0000
  H   H139      1.0  0.51396  0.70258  0.64024  1.0000
  H   H140      1.0  0.53723  0.68432  0.57925  1.0000
  O   O23       1.0  0.46642  0.68782  0.52001  1.0000
  C   C235      1.0  0.40382  0.86041  0.35220  1.0000
  C   C236      1.0  0.38251  0.83818  0.42413  1.0000
  C   C237      1.0  0.34597  0.83086  0.43595  1.0000
  C   C238      1.0  0.33157  0.84633  0.37378  1.0000
  H   H141      1.0  0.39413  0.82886  0.47008  1.0000
  C   C239      1.0  0.32578  0.81097  0.51035  1.0000
  C   C240      1.0  0.32883  0.83113  0.59208  1.0000
  H   H142      1.0  0.35569  0.84093  0.62334  1.0000
  H   H143      1.0  0.30750  0.81346  0.63982  1.0000
  H   H144      1.0  0.32530  0.85471  0.57793  1.0000
  O   O24       1.0  0.32273  0.78067  0.52143  1.0000
  N   N37       1.0  0.49285  0.14082  0.37380  1.0000
  N   N38       1.0  0.52005  0.13429  0.38164  1.0000
  N   N39       1.0  0.65614  0.51722  0.37394  1.0000
  N   N40       1.0  0.62241  0.48998  0.38173  1.0000
  N   N41       1.0  0.86928  0.35401  0.37382  1.0000
  N   N42       1.0  0.87581  0.38775  0.38155  1.0000
  N   N43       1.0  0.98734  0.51685  0.38235  1.0000
  N   N44       1.0  0.02301  0.53399  0.38515  1.0000
  N   N45       1.0  0.49332  0.47258  0.38214  1.0000
  N   N46       1.0  0.47618  0.49112  0.38491  1.0000
  N   N47       1.0  0.53760  0.02274  0.38237  1.0000
  N   N48       1.0  0.51906  0.98707  0.38515  1.0000
