data_image0
_chemical_formula_structural       C14H12C7NC12H12C2NC3NC3NC15H14CNC2H2NO2CNC2H2NO2CNC2H2NO2CNC2H2NO2CNC2H2NO2CNC2H2NO2C3NC2NC5NC3NC17H14CNC2NC4NC18H14C2NC19H12C4HC3NHNO2C4HC3NHNO2C4HC3NHNO2C4HC3NHNO2C4HC3NHNO2C4HC3NHNO2
_chemical_formula_sum              "C192 H102 N36 O24"
_cell_length_a       50.1482
_cell_length_b       50.1482
_cell_length_c       14.9674
_cell_angle_alpha    90.031
_cell_angle_beta     89.969
_cell_angle_gamma    120

_space_group_name_H-M_alt    "P 1"
_space_group_IT_number       1

loop_
  _space_group_symop_operation_xyz
  'x, y, z'

loop_
  _atom_site_type_symbol
  _atom_site_label
  _atom_site_symmetry_multiplicity
  _atom_site_fract_x
  _atom_site_fract_y
  _atom_site_fract_z
  _atom_site_occupancy
  C   C1        1.0  0.95991  0.54178  0.32813  1.0000
  C   C2        1.0  0.08375  0.53131  0.33190  1.0000
  C   C3        1.0  0.09403  0.56330  0.32785  1.0000
  C   C4        1.0  0.12491  0.61459  0.32162  1.0000
  C   C5        1.0  0.12462  0.58696  0.32113  1.0000
  C   C6        1.0  0.13878  0.71259  0.26965  1.0000
  C   C7        1.0  0.11443  0.68191  0.26655  1.0000
  C   C8        1.0  0.10677  0.52256  0.33336  1.0000
  C   C9        1.0  0.14572  0.51541  0.25589  1.0000
  C   C10       1.0  0.12113  0.52138  0.25352  1.0000
  C   C11       1.0  0.93965  0.42315  0.26643  1.0000
  C   C12       1.0  0.91537  0.39243  0.26954  1.0000
  C   C13       1.0  0.93282  0.58366  0.25360  1.0000
  C   C14       1.0  0.90818  0.58956  0.25598  1.0000
  H   H1        1.0  0.89750  0.58881  0.19704  1.0000
  H   H2        1.0  0.93952  0.57917  0.19348  1.0000
  H   H3        1.0  0.99865  0.63897  0.35358  1.0000
  H   H4        1.0  0.95268  0.43105  0.20959  1.0000
  H   H5        1.0  0.91198  0.37879  0.21501  1.0000
  H   H6        1.0  0.05529  0.46615  0.35425  1.0000
  H   H7        1.0  0.14438  0.63570  0.31726  1.0000
  H   H8        1.0  0.14386  0.58491  0.31689  1.0000
  H   H9        1.0  0.11446  0.52587  0.19339  1.0000
  H   H10       1.0  0.15637  0.51607  0.19693  1.0000
  H   H11       1.0  0.10143  0.67402  0.20967  1.0000
  H   H12       1.0  0.14227  0.72622  0.21505  1.0000
  C   C15       1.0  0.45036  0.46034  0.34801  1.0000
  C   C16       1.0  0.45605  0.50773  0.33895  1.0000
  C   C17       1.0  0.53731  0.49538  0.32753  1.0000
  C   C18       1.0  0.59704  0.59562  0.33879  1.0000
  C   C19       1.0  0.60273  0.64302  0.34769  1.0000
  C   C20       1.0  0.54778  0.62968  0.33155  1.0000
  C   C21       1.0  0.51578  0.60797  0.32763  1.0000
  N   N1        1.0  0.50188  0.57694  0.33285  1.0000
  C   C22       1.0  0.46449  0.58755  0.32120  1.0000
  C   C23       1.0  0.49212  0.61490  0.32076  1.0000
  C   C24       1.0  0.36648  0.50337  0.26942  1.0000
  C   C25       1.0  0.39716  0.50969  0.26630  1.0000
  C   C26       1.0  0.55652  0.66145  0.33302  1.0000
  C   C27       1.0  0.56880  0.72358  0.33749  1.0000
  C   C28       1.0  0.56371  0.70754  0.25555  1.0000
  C   C29       1.0  0.55770  0.67697  0.25318  1.0000
  C   C30       1.0  0.65593  0.59370  0.26621  1.0000
  C   C31       1.0  0.68665  0.60014  0.26934  1.0000
  C   C32       1.0  0.49542  0.42636  0.25320  1.0000
  C   C33       1.0  0.48955  0.39584  0.25560  1.0000
  H   H13       1.0  0.49028  0.38588  0.19666  1.0000
  H   H14       1.0  0.49990  0.43753  0.19305  1.0000
  H   H15       1.0  0.44014  0.43696  0.35387  1.0000
  H   H16       1.0  0.64804  0.59882  0.20937  1.0000
  H   H17       1.0  0.70030  0.61036  0.21481  1.0000
  H   H18       1.0  0.61295  0.66641  0.35353  1.0000
  H   H19       1.0  0.44339  0.58590  0.31664  1.0000
  H   H20       1.0  0.49418  0.63619  0.31634  1.0000
  H   H21       1.0  0.55322  0.66579  0.19305  1.0000
  H   H22       1.0  0.56302  0.71750  0.19661  1.0000
  H   H23       1.0  0.40505  0.50457  0.20941  1.0000
  H   H24       1.0  0.35285  0.49320  0.21485  1.0000
  C   C34       1.0  0.61877  0.06727  0.34741  1.0000
  C   C35       1.0  0.57138  0.02556  0.33851  1.0000
  N   N2        1.0  0.56967  0.05164  0.33175  1.0000
  C   C36       1.0  0.60543  0.10889  0.33137  1.0000
  C   C37       1.0  0.58371  0.11917  0.32738  1.0000
  C   C38       1.0  0.48346  0.07866  0.33838  1.0000
  N   N3        1.0  0.48516  0.05257  0.33161  1.0000
  C   C39       1.0  0.43606  0.03695  0.34717  1.0000
  C   C40       1.0  0.44941  0.99532  0.33146  1.0000
  C   C41       1.0  0.47113  0.98504  0.32760  1.0000
  N   N4        1.0  0.50216  0.00216  0.33268  1.0000
  C   C42       1.0  0.49155  0.95417  0.32125  1.0000
  C   C43       1.0  0.46419  0.95445  0.32084  1.0000
  C   C44       1.0  0.55566  0.97081  0.33961  1.0000
  C   C45       1.0  0.56818  0.92099  0.34512  1.0000
  C   C46       1.0  0.57573  0.94033  0.26910  1.0000
  C   C47       1.0  0.56939  0.96468  0.26598  1.0000
  C   C48       1.0  0.41764  0.97230  0.33300  1.0000
  C   C49       1.0  0.35551  0.92246  0.33763  1.0000
  C   C50       1.0  0.37154  0.93334  0.25566  1.0000
  C   C51       1.0  0.40210  0.95793  0.25319  1.0000
  C   C52       1.0  0.48542  0.13948  0.26586  1.0000
  C   C53       1.0  0.47899  0.16376  0.26901  1.0000
  C   C54       1.0  0.65275  0.14631  0.25315  1.0000
  C   C55       1.0  0.69925  0.18192  0.33766  1.0000
  C   C56       1.0  0.68327  0.17096  0.25566  1.0000
  H   H25       1.0  0.69327  0.18163  0.19675  1.0000
  H   H26       1.0  0.64161  0.13962  0.19299  1.0000
  H   H27       1.0  0.64216  0.08045  0.35322  1.0000
  H   H28       1.0  0.55090  0.05179  0.31999  1.0000
  H   H29       1.0  0.50396  0.05242  0.32030  1.0000
  H   H30       1.0  0.48032  0.12646  0.20900  1.0000
  H   H31       1.0  0.46879  0.16719  0.21445  1.0000
  H   H32       1.0  0.41267  0.02378  0.35305  1.0000
  H   H33       1.0  0.49319  0.93471  0.31669  1.0000
  H   H34       1.0  0.44291  0.93521  0.31648  1.0000
  H   H35       1.0  0.41327  0.96456  0.19305  1.0000
  H   H36       1.0  0.36155  0.92266  0.19675  1.0000
  H   H37       1.0  0.57451  0.97767  0.20910  1.0000
  H   H38       1.0  0.58589  0.93685  0.21452  1.0000
  C   C57       1.0  0.31054  0.51103  0.26973  1.0000
  N   N5        1.0  0.28227  0.50826  0.27354  1.0000
  C   C58       1.0  0.21437  0.48554  0.27500  1.0000
  C   C59       1.0  0.18772  0.48853  0.27480  1.0000
  H   H39       1.0  0.17157  0.47742  0.22605  1.0000
  H   H40       1.0  0.32220  0.51787  0.21055  1.0000
  N   N6        1.0  0.21891  0.46760  0.21034  1.0000
  O   O1        1.0  0.21995  0.47767  0.13281  1.0000
  O   O2        1.0  0.19781  0.43993  0.21339  1.0000
  C   C60       1.0  0.56813  0.87676  0.26942  1.0000
  N   N7        1.0  0.57089  0.85126  0.27325  1.0000
  C   C61       1.0  0.59359  0.80606  0.27468  1.0000
  C   C62       1.0  0.59058  0.77641  0.27448  1.0000
  H   H41       1.0  0.60170  0.77136  0.22574  1.0000
  H   H42       1.0  0.56124  0.88153  0.21028  1.0000
  N   N8        1.0  0.61154  0.82853  0.21004  1.0000
  O   O3        1.0  0.60147  0.81947  0.13250  1.0000
  O   O4        1.0  0.63920  0.83508  0.21309  1.0000
  C   C63       1.0  0.20235  0.76856  0.26991  1.0000
  N   N9        1.0  0.22785  0.79683  0.27370  1.0000
  C   C64       1.0  0.27302  0.86473  0.27504  1.0000
  C   C65       1.0  0.30266  0.89137  0.27476  1.0000
  H   H43       1.0  0.30770  0.90751  0.22598  1.0000
  H   H44       1.0  0.19757  0.75688  0.21077  1.0000
  N   N10       1.0  0.25053  0.86017  0.21043  1.0000
  O   O5        1.0  0.25958  0.85911  0.13289  1.0000
  O   O6        1.0  0.24398  0.88128  0.21345  1.0000
  C   C66       1.0  0.74282  0.59287  0.26971  1.0000
  N   N11       1.0  0.77116  0.59581  0.27359  1.0000
  C   C67       1.0  0.83914  0.61892  0.27516  1.0000
  C   C68       1.0  0.86590  0.61611  0.27498  1.0000
  H   H45       1.0  0.88204  0.62729  0.22626  1.0000
  H   H46       1.0  0.73118  0.58595  0.21053  1.0000
  N   N12       1.0  0.83449  0.63677  0.21054  1.0000
  O   O7        1.0  0.83355  0.62673  0.13300  1.0000
  O   O8        1.0  0.85548  0.66449  0.21366  1.0000
  C   C69       1.0  0.48630  0.22722  0.26942  1.0000
  N   N13       1.0  0.48334  0.25261  0.27327  1.0000
  C   C70       1.0  0.46021  0.29746  0.27484  1.0000
  C   C71       1.0  0.46300  0.32701  0.27464  1.0000
  H   H47       1.0  0.45181  0.33195  0.22593  1.0000
  H   H48       1.0  0.49319  0.22246  0.21022  1.0000
  N   N14       1.0  0.44235  0.27492  0.21024  1.0000
  O   O9        1.0  0.45238  0.28399  0.13268  1.0000
  O   O10       1.0  0.41463  0.26818  0.21338  1.0000
  C   C72       1.0  0.85194  0.33625  0.26982  1.0000
  N   N15       1.0  0.82655  0.30792  0.27366  1.0000
  C   C73       1.0  0.78167  0.23994  0.27515  1.0000
  C   C74       1.0  0.75210  0.21319  0.27487  1.0000
  H   H49       1.0  0.74717  0.19706  0.22615  1.0000
  H   H50       1.0  0.85668  0.34790  0.21064  1.0000
  N   N16       1.0  0.80422  0.24460  0.21060  1.0000
  O   O11       1.0  0.79517  0.24555  0.13302  1.0000
  O   O12       1.0  0.81093  0.22360  0.21376  1.0000
  C   C75       1.0  0.01182  0.62875  0.34775  1.0000
  C   C76       1.0  0.04360  0.64441  0.34955  1.0000
  C   C77       1.0  0.05353  0.62305  0.33900  1.0000
  N   N17       1.0  0.02745  0.59527  0.33223  1.0000
  C   C78       1.0  0.00158  0.59740  0.33735  1.0000
  C   C79       1.0  0.97020  0.57378  0.33202  1.0000
  N   N18       1.0  0.97703  0.52787  0.33320  1.0000
  C   C80       1.0  0.95942  0.49685  0.32988  1.0000
  C   C81       1.0  0.92904  0.49049  0.32165  1.0000
  C   C82       1.0  0.92932  0.51812  0.32130  1.0000
  C   C83       1.0  0.96911  0.47468  0.33544  1.0000
  C   C84       1.0  0.00042  0.48205  0.33910  1.0000
  N   N19       1.0  0.02650  0.50983  0.33235  1.0000
  C   C85       1.0  0.05237  0.50770  0.33751  1.0000
  C   C86       1.0  0.04212  0.47637  0.34827  1.0000
  C   C87       1.0  0.01035  0.46070  0.35006  1.0000
  N   N20       1.0  0.07691  0.57721  0.33309  1.0000
  C   C88       1.0  0.09453  0.60823  0.32984  1.0000
  C   C89       1.0  0.08484  0.63041  0.33558  1.0000
  C   C90       1.0  0.10829  0.66208  0.34019  1.0000
  C   C91       1.0  0.12686  0.67380  0.41719  1.0000
  C   C92       1.0  0.15146  0.70432  0.41945  1.0000
  C   C93       1.0  0.15813  0.72442  0.34566  1.0000
  C   C94       1.0  0.11711  0.51709  0.41532  1.0000
  C   C95       1.0  0.14155  0.51090  0.41729  1.0000
  C   C96       1.0  0.15663  0.51030  0.33781  1.0000
  C   C97       1.0  0.94567  0.44300  0.33998  1.0000
  C   C98       1.0  0.89599  0.38058  0.34550  1.0000
  C   C99       1.0  0.90253  0.40071  0.41920  1.0000
  C   C100      1.0  0.92706  0.43127  0.41693  1.0000
  C   C101      1.0  0.94717  0.58252  0.33345  1.0000
  C   C102      1.0  0.93678  0.58796  0.41541  1.0000
  C   C103      1.0  0.91227  0.59405  0.41740  1.0000
  C   C104      1.0  0.89718  0.59459  0.33792  1.0000
  H   H51       1.0  0.90540  0.59787  0.47813  1.0000
  H   H52       1.0  0.94661  0.58696  0.47434  1.0000
  H   H53       1.0  0.05696  0.66773  0.35695  1.0000
  H   H54       1.0  0.02729  0.57632  0.32099  1.0000
  H   H55       1.0  0.02666  0.52872  0.31999  1.0000
  H   H56       1.0  0.91009  0.52017  0.31696  1.0000
  H   H57       1.0  0.90958  0.46938  0.31709  1.0000
  H   H58       1.0  0.93064  0.44523  0.47092  1.0000
  H   H59       1.0  0.88880  0.39371  0.47474  1.0000
  H   H60       1.0  0.99698  0.43740  0.35758  1.0000
  H   H61       1.0  0.10726  0.51809  0.47423  1.0000
  H   H62       1.0  0.14835  0.50701  0.47800  1.0000
  H   H63       1.0  0.16520  0.71128  0.47496  1.0000
  H   H64       1.0  0.12322  0.65984  0.47117  1.0000
  C   C105      1.0  0.43471  0.47647  0.34991  1.0000
  N   N21       1.0  0.48384  0.50944  0.33217  1.0000
  C   C106      1.0  0.48170  0.48144  0.33729  1.0000
  C   C107      1.0  0.50531  0.47366  0.33156  1.0000
  N   N22       1.0  0.55121  0.52640  0.33283  1.0000
  C   C108      1.0  0.58223  0.53981  0.32956  1.0000
  C   C109      1.0  0.58860  0.51580  0.32122  1.0000
  C   C110      1.0  0.56096  0.48845  0.32072  1.0000
  C   C111      1.0  0.60441  0.57167  0.33524  1.0000
  N   N23       1.0  0.56926  0.59392  0.33201  1.0000
  C   C112      1.0  0.57139  0.62192  0.33711  1.0000
  C   C113      1.0  0.61839  0.62690  0.34959  1.0000
  C   C114      1.0  0.47086  0.56353  0.32953  1.0000
  C   C115      1.0  0.44868  0.53167  0.33525  1.0000
  C   C116      1.0  0.41701  0.52345  0.33988  1.0000
  C   C117      1.0  0.40531  0.53034  0.41688  1.0000
  C   C118      1.0  0.37478  0.52442  0.41917  1.0000
  C   C119      1.0  0.35467  0.51094  0.34542  1.0000
  C   C120      1.0  0.56200  0.67729  0.41498  1.0000
  C   C121      1.0  0.56819  0.70792  0.41697  1.0000
  C   C122      1.0  0.63608  0.57991  0.33978  1.0000
  C   C123      1.0  0.69849  0.59263  0.34534  1.0000
  C   C124      1.0  0.67837  0.57910  0.41906  1.0000
  C   C125      1.0  0.64781  0.57306  0.41676  1.0000
  C   C126      1.0  0.49657  0.44190  0.33302  1.0000
  C   C127      1.0  0.49116  0.42611  0.41500  1.0000
  C   C128      1.0  0.48506  0.39551  0.41703  1.0000
  C   C129      1.0  0.48452  0.37985  0.33756  1.0000
  H   H65       1.0  0.48124  0.38484  0.47776  1.0000
  H   H66       1.0  0.49214  0.43696  0.47392  1.0000
  H   H67       1.0  0.41139  0.46651  0.35725  1.0000
  H   H68       1.0  0.50273  0.52817  0.31978  1.0000
  H   H69       1.0  0.55034  0.57515  0.32023  1.0000
  H   H70       1.0  0.55891  0.46716  0.31633  1.0000
  H   H71       1.0  0.60971  0.51744  0.31671  1.0000
  H   H72       1.0  0.63384  0.56269  0.47071  1.0000
  H   H73       1.0  0.68535  0.57235  0.47456  1.0000
  H   H74       1.0  0.64170  0.63685  0.35695  1.0000
  H   H75       1.0  0.56100  0.66646  0.47390  1.0000
  H   H76       1.0  0.57208  0.71863  0.47768  1.0000
  H   H77       1.0  0.36783  0.53122  0.47467  1.0000
  H   H78       1.0  0.41928  0.54071  0.47082  1.0000
  C   C130      1.0  0.60266  0.03549  0.34924  1.0000
  C   C131      1.0  0.59767  0.07751  0.33690  1.0000
  N   N24       1.0  0.55269  0.10205  0.33253  1.0000
  C   C132      1.0  0.53928  0.11966  0.32927  1.0000
  C   C133      1.0  0.56329  0.15004  0.32115  1.0000
  C   C134      1.0  0.59065  0.14976  0.32072  1.0000
  C   C135      1.0  0.50741  0.10997  0.33491  1.0000
  C   C136      1.0  0.45717  0.02671  0.33678  1.0000
  C   C137      1.0  0.45218  0.06873  0.34898  1.0000
  C   C138      1.0  0.51556  0.98455  0.32942  1.0000
  C   C139      1.0  0.54743  0.99425  0.33499  1.0000
  C   C140      1.0  0.54880  0.95225  0.41663  1.0000
  C   C141      1.0  0.55471  0.92765  0.41890  1.0000
  C   C142      1.0  0.40183  0.96199  0.41499  1.0000
  C   C143      1.0  0.37119  0.93756  0.41707  1.0000
  C   C144      1.0  0.49917  0.13340  0.33948  1.0000
  C   C145      1.0  0.48647  0.18311  0.34503  1.0000
  C   C146      1.0  0.49998  0.17652  0.41879  1.0000
  C   C147      1.0  0.50600  0.15199  0.41647  1.0000
  C   C148      1.0  0.63720  0.13193  0.33294  1.0000
  C   C149      1.0  0.65297  0.14229  0.41495  1.0000
  C   C150      1.0  0.68356  0.16680  0.41707  1.0000
  H   H79       1.0  0.69422  0.17364  0.47782  1.0000
  H   H80       1.0  0.64209  0.13244  0.47384  1.0000
  H   H81       1.0  0.61261  0.02213  0.35656  1.0000
  H   H82       1.0  0.61194  0.16900  0.31645  1.0000
  H   H83       1.0  0.56165  0.16951  0.31671  1.0000
  H   H84       1.0  0.51634  0.14839  0.47047  1.0000
  H   H85       1.0  0.50671  0.19026  0.47432  1.0000
  H   H86       1.0  0.44222  0.08209  0.35635  1.0000
  H   H87       1.0  0.41268  0.97186  0.47388  1.0000
  H   H88       1.0  0.36050  0.93078  0.47780  1.0000
  H   H89       1.0  0.54794  0.91392  0.47443  1.0000
  H   H90       1.0  0.53845  0.95588  0.47060  1.0000
  C   C151      1.0  0.32403  0.50634  0.34675  1.0000
  C   C152      1.0  0.26471  0.50059  0.34858  1.0000
  C   C153      1.0  0.27657  0.49535  0.42847  1.0000
  C   C154      1.0  0.30606  0.49805  0.42576  1.0000
  H   H91       1.0  0.31433  0.49368  0.48307  1.0000
  C   C155      1.0  0.23636  0.50037  0.34381  1.0000
  C   C156      1.0  0.18280  0.50602  0.34029  1.0000
  C   C157      1.0  0.20568  0.52000  0.40696  1.0000
  N   N25       1.0  0.23100  0.51692  0.40590  1.0000
  H   H92       1.0  0.20426  0.53364  0.45529  1.0000
  N   N26       1.0  0.25878  0.48701  0.50770  1.0000
  O   O13       1.0  0.27240  0.50634  0.56877  1.0000
  O   O14       1.0  0.25295  0.46095  0.53498  1.0000
  C   C158      1.0  0.57281  0.89496  0.34645  1.0000
  C   C159      1.0  0.57858  0.84140  0.34828  1.0000
  C   C160      1.0  0.58380  0.85851  0.42817  1.0000
  C   C161      1.0  0.58110  0.88531  0.42548  1.0000
  H   H93       1.0  0.58545  0.89795  0.48279  1.0000
  C   C162      1.0  0.57877  0.81325  0.34350  1.0000
  C   C163      1.0  0.57309  0.75404  0.33996  1.0000
  C   C164      1.0  0.55912  0.76296  0.40666  1.0000
  N   N27       1.0  0.56221  0.79137  0.40559  1.0000
  H   H94       1.0  0.54546  0.74791  0.45495  1.0000
  N   N28       1.0  0.59212  0.84908  0.50742  1.0000
  O   O15       1.0  0.57278  0.84338  0.56845  1.0000
  O   O16       1.0  0.61817  0.86932  0.53475  1.0000
  C   C165      1.0  0.18417  0.75507  0.34697  1.0000
  C   C166      1.0  0.23772  0.81440  0.34872  1.0000
  C   C167      1.0  0.22061  0.80254  0.42864  1.0000
  C   C168      1.0  0.19382  0.77304  0.42597  1.0000
  H   H95       1.0  0.18118  0.76478  0.48329  1.0000
  C   C169      1.0  0.26585  0.84276  0.34391  1.0000
  C   C170      1.0  0.32506  0.89630  0.34020  1.0000
  C   C171      1.0  0.31615  0.87345  0.40698  1.0000
  N   N29       1.0  0.28775  0.84812  0.40595  1.0000
  H   H96       1.0  0.33122  0.87486  0.45518  1.0000
  N   N30       1.0  0.23004  0.82033  0.50785  1.0000
  O   O17       1.0  0.23576  0.80673  0.56891  1.0000
  O   O18       1.0  0.20980  0.82615  0.53517  1.0000
  C   C172      1.0  0.72921  0.59742  0.34673  1.0000
  C   C173      1.0  0.78869  0.60357  0.34868  1.0000
  C   C174      1.0  0.77671  0.60868  0.42856  1.0000
  C   C175      1.0  0.74713  0.60579  0.42581  1.0000
  H   H97       1.0  0.73878  0.61007  0.48312  1.0000
  C   C176      1.0  0.81715  0.60399  0.34394  1.0000
  C   C177      1.0  0.87090  0.59870  0.34041  1.0000
  C   C178      1.0  0.84802  0.58460  0.40704  1.0000
  N   N31       1.0  0.82259  0.58751  0.40597  1.0000
  H   H98       1.0  0.84951  0.57100  0.45532  1.0000
  N   N32       1.0  0.79445  0.61710  0.50784  1.0000
  O   O19       1.0  0.78089  0.59772  0.56883  1.0000
  O   O20       1.0  0.80011  0.64310  0.53522  1.0000
  C   C179      1.0  0.48171  0.20906  0.34643  1.0000
  C   C180      1.0  0.47557  0.26239  0.34835  1.0000
  C   C181      1.0  0.47044  0.24532  0.42823  1.0000
  C   C182      1.0  0.47333  0.21863  0.42548  1.0000
  H   H99       1.0  0.46902  0.20600  0.48278  1.0000
  C   C183      1.0  0.47515  0.29043  0.34360  1.0000
  C   C184      1.0  0.48041  0.34946  0.34008  1.0000
  C   C185      1.0  0.49451  0.34070  0.40671  1.0000
  N   N33       1.0  0.49162  0.31237  0.40564  1.0000
  H   H100      1.0  0.50811  0.35581  0.45498  1.0000
  N   N34       1.0  0.46200  0.25467  0.50749  1.0000
  O   O21       1.0  0.48136  0.26048  0.56852  1.0000
  O   O22       1.0  0.43599  0.23433  0.53481  1.0000
  C   C186      1.0  0.87007  0.34987  0.34687  1.0000
  C   C187      1.0  0.81674  0.29037  0.34872  1.0000
  C   C188      1.0  0.83378  0.30236  0.42865  1.0000
  C   C189      1.0  0.86047  0.33194  0.42594  1.0000
  H   H101      1.0  0.87307  0.34029  0.48328  1.0000
  C   C190      1.0  0.78869  0.26193  0.34393  1.0000
  C   C191      1.0  0.72964  0.20818  0.34026  1.0000
  C   C192      1.0  0.73840  0.23105  0.40694  1.0000
  N   N35       1.0  0.76674  0.25648  0.40593  1.0000
  H   H102      1.0  0.72328  0.22956  0.45516  1.0000
  N   N36       1.0  0.82440  0.28462  0.50793  1.0000
  O   O23       1.0  0.81855  0.29818  0.56887  1.0000
  O   O24       1.0  0.84473  0.27896  0.53540  1.0000
