data_image0
_chemical_formula_structural       C3H2C2HC2O2CNC2O2HNHCNC2O2HNHC3HC4H2C2O2NC2HNHNC2HNHC3H2C2HC2O2CNC2O2HNHCNC2O2HNHC3HC4H2C2O2NC2HNHNC2HNHC3H2C2HC2O2CNC2O2HNHCNC2O2HNHC3HC4H2C2O2NC2HNHNC2HNHC3H2C2HC2O2CNC2O2HNHCNC2O2HNHC3HC4H2C2O2NC2HNHNC2HNH
_chemical_formula_sum              "C104 H56 O32 N32"
_cell_length_a       30.1834
_cell_length_b       30.1834
_cell_length_c       15.0049
_cell_angle_alpha    90
_cell_angle_beta     90
_cell_angle_gamma    90

_space_group_name_H-M_alt    "P 1"
_space_group_IT_number       1

loop_
  _space_group_symop_operation_xyz
  'x, y, z'

loop_
  _atom_site_type_symbol
  _atom_site_label
  _atom_site_symmetry_multiplicity
  _atom_site_fract_x
  _atom_site_fract_y
  _atom_site_fract_z
  _atom_site_occupancy
  C   C1        1.0  0.49999  0.43738  0.26174  1.0000
  C   C2        1.0  0.47072  0.40733  0.21964  1.0000
  C   C3        1.0  0.42659  0.42142  0.20634  1.0000
  H   H1        1.0  0.03263  0.42888  0.26237  1.0000
  H   H2        1.0  0.40486  0.39930  0.17894  1.0000
  C   C4        1.0  0.03570  0.08843  0.37932  1.0000
  C   C5        1.0  0.00774  0.05710  0.33701  1.0000
  H   H3        1.0  0.47938  0.06855  0.30857  1.0000
  C   C6        1.0  0.02904  0.13519  0.37697  1.0000
  C   C7        1.0  0.48189  0.36261  0.19966  1.0000
  O   O1        1.0  0.05291  0.15986  0.43557  1.0000
  O   O2        1.0  0.45553  0.34054  0.14122  1.0000
  C   C8        1.0  0.00509  0.20162  0.29605  1.0000
  N   N1        1.0  0.98296  0.26635  0.21587  1.0000
  C   C9        1.0  0.97874  0.22194  0.22893  1.0000
  C   C10       1.0  0.94855  0.19923  0.17650  1.0000
  O   O3        1.0  0.91114  0.21445  0.17032  1.0000
  O   O4        1.0  0.96096  0.17844  0.11003  1.0000
  H   H4        1.0  0.98818  0.16823  0.10159  1.0000
  N   N2        1.0  0.00404  0.15713  0.31487  1.0000
  H   H5        1.0  0.48617  0.13909  0.27543  1.0000
  C   C11       1.0  0.29549  0.99429  0.32270  1.0000
  N   N3        1.0  0.23026  0.02183  0.39363  1.0000
  C   C12       1.0  0.27428  0.02669  0.37673  1.0000
  C   C13       1.0  0.29505  0.06473  0.40770  1.0000
  O   O5        1.0  0.28723  0.07641  0.48408  1.0000
  O   O6        1.0  0.30485  0.09510  0.35593  1.0000
  H   H6        1.0  0.30791  0.09230  0.29743  1.0000
  N   N4        1.0  0.33990  0.99499  0.30298  1.0000
  H   H7        1.0  0.35736  0.51675  0.33475  1.0000
  C   C14       1.0  0.48678  0.47988  0.29310  1.0000
  C   C15       1.0  0.40933  0.46021  0.24639  1.0000
  C   C16       1.0  0.44046  0.48884  0.28783  1.0000
  H   H8        1.0  0.42872  0.01668  0.31764  1.0000
  C   C17       1.0  0.01753  0.01099  0.33143  1.0000
  C   C18       1.0  0.06043  0.99854  0.36219  1.0000
  C   C19       1.0  0.09007  0.02825  0.40447  1.0000
  C   C20       1.0  0.07482  0.07191  0.41917  1.0000
  H   H9        1.0  0.06945  0.46608  0.36096  1.0000
  H   H10       1.0  0.09636  0.09420  0.44665  1.0000
  C   C21       1.0  0.13529  0.01841  0.42316  1.0000
  C   C22       1.0  0.36239  0.46597  0.24935  1.0000
  O   O7        1.0  0.33761  0.43872  0.19722  1.0000
  O   O8        1.0  0.15763  0.04652  0.47783  1.0000
  N   N5        1.0  0.03358  0.22912  0.33980  1.0000
  C   C23       1.0  0.03810  0.27312  0.32511  1.0000
  C   C24       1.0  0.01119  0.29371  0.26044  1.0000
  H   H11       1.0  0.05980  0.29086  0.36330  1.0000
  N   N6        1.0  0.01116  0.33874  0.25011  1.0000
  H   H12       1.0  0.02973  0.35514  0.29167  1.0000
  N   N7        1.0  0.26926  0.96022  0.29467  1.0000
  C   C25       1.0  0.22558  0.95549  0.31303  1.0000
  C   C26       1.0  0.20416  0.98779  0.36544  1.0000
  H   H13       1.0  0.20876  0.92905  0.28726  1.0000
  N   N8        1.0  0.15931  0.98691  0.37884  1.0000
  H   H14       1.0  0.14309  0.96487  0.34465  1.0000
  C   C27       1.0  0.49999  0.93738  0.26174  1.0000
  C   C28       1.0  0.47072  0.90733  0.21964  1.0000
  C   C29       1.0  0.42659  0.92142  0.20634  1.0000
  H   H15       1.0  0.03263  0.92888  0.26237  1.0000
  H   H16       1.0  0.40486  0.89930  0.17894  1.0000
  C   C30       1.0  0.03570  0.58844  0.37932  1.0000
  C   C31       1.0  0.00774  0.55710  0.33701  1.0000
  H   H17       1.0  0.47938  0.56855  0.30857  1.0000
  C   C32       1.0  0.02904  0.63519  0.37697  1.0000
  C   C33       1.0  0.48189  0.86261  0.19966  1.0000
  O   O9        1.0  0.05291  0.65986  0.43557  1.0000
  O   O10       1.0  0.45553  0.84054  0.14122  1.0000
  C   C34       1.0  0.00509  0.70162  0.29605  1.0000
  N   N9        1.0  0.98296  0.76635  0.21587  1.0000
  C   C35       1.0  0.97874  0.72194  0.22893  1.0000
  C   C36       1.0  0.94855  0.69923  0.17650  1.0000
  O   O11       1.0  0.91114  0.71445  0.17032  1.0000
  O   O12       1.0  0.96096  0.67844  0.11003  1.0000
  H   H18       1.0  0.98818  0.66823  0.10159  1.0000
  N   N10       1.0  0.00404  0.65713  0.31487  1.0000
  H   H19       1.0  0.48617  0.63909  0.27543  1.0000
  C   C37       1.0  0.29549  0.49429  0.32270  1.0000
  N   N11       1.0  0.23026  0.52183  0.39363  1.0000
  C   C38       1.0  0.27428  0.52669  0.37673  1.0000
  C   C39       1.0  0.29505  0.56473  0.40770  1.0000
  O   O13       1.0  0.28723  0.57641  0.48408  1.0000
  O   O14       1.0  0.30485  0.59510  0.35593  1.0000
  H   H20       1.0  0.30791  0.59230  0.29743  1.0000
  N   N12       1.0  0.33990  0.49500  0.30298  1.0000
  H   H21       1.0  0.35736  0.01675  0.33475  1.0000
  C   C40       1.0  0.48678  0.97988  0.29310  1.0000
  C   C41       1.0  0.40933  0.96021  0.24639  1.0000
  C   C42       1.0  0.44046  0.98884  0.28783  1.0000
  H   H22       1.0  0.42872  0.51667  0.31764  1.0000
  C   C43       1.0  0.01753  0.51099  0.33143  1.0000
  C   C44       1.0  0.06043  0.49854  0.36219  1.0000
  C   C45       1.0  0.09007  0.52825  0.40447  1.0000
  C   C46       1.0  0.07482  0.57191  0.41917  1.0000
  H   H23       1.0  0.06945  0.96608  0.36096  1.0000
  H   H24       1.0  0.09636  0.59420  0.44665  1.0000
  C   C47       1.0  0.13529  0.51841  0.42316  1.0000
  C   C48       1.0  0.36239  0.96597  0.24935  1.0000
  O   O15       1.0  0.33761  0.93872  0.19722  1.0000
  O   O16       1.0  0.15763  0.54652  0.47783  1.0000
  N   N13       1.0  0.03358  0.72912  0.33980  1.0000
  C   C49       1.0  0.03810  0.77312  0.32511  1.0000
  C   C50       1.0  0.01119  0.79371  0.26044  1.0000
  H   H25       1.0  0.05980  0.79086  0.36330  1.0000
  N   N14       1.0  0.01116  0.83874  0.25011  1.0000
  H   H26       1.0  0.02973  0.85514  0.29167  1.0000
  N   N15       1.0  0.26926  0.46022  0.29467  1.0000
  C   C51       1.0  0.22558  0.45549  0.31303  1.0000
  C   C52       1.0  0.20416  0.48779  0.36544  1.0000
  H   H27       1.0  0.20876  0.42905  0.28726  1.0000
  N   N16       1.0  0.15931  0.48691  0.37884  1.0000
  H   H28       1.0  0.14309  0.46487  0.34465  1.0000
  C   C53       1.0  0.99999  0.43738  0.26174  1.0000
  C   C54       1.0  0.97072  0.40733  0.21964  1.0000
  C   C55       1.0  0.92659  0.42142  0.20634  1.0000
  H   H29       1.0  0.53263  0.42888  0.26237  1.0000
  H   H30       1.0  0.90486  0.39930  0.17894  1.0000
  C   C56       1.0  0.53570  0.08843  0.37932  1.0000
  C   C57       1.0  0.50774  0.05710  0.33701  1.0000
  H   H31       1.0  0.97938  0.06855  0.30857  1.0000
  C   C58       1.0  0.52904  0.13519  0.37697  1.0000
  C   C59       1.0  0.98189  0.36261  0.19966  1.0000
  O   O17       1.0  0.55291  0.15986  0.43557  1.0000
  O   O18       1.0  0.95553  0.34054  0.14122  1.0000
  C   C60       1.0  0.50509  0.20162  0.29605  1.0000
  N   N17       1.0  0.48297  0.26635  0.21587  1.0000
  C   C61       1.0  0.47874  0.22194  0.22893  1.0000
  C   C62       1.0  0.44855  0.19923  0.17650  1.0000
  O   O19       1.0  0.41114  0.21445  0.17032  1.0000
  O   O20       1.0  0.46096  0.17844  0.11003  1.0000
  H   H32       1.0  0.48818  0.16823  0.10159  1.0000
  N   N18       1.0  0.50404  0.15713  0.31487  1.0000
  H   H33       1.0  0.98617  0.13909  0.27543  1.0000
  C   C63       1.0  0.79549  0.99429  0.32270  1.0000
  N   N19       1.0  0.73026  0.02183  0.39363  1.0000
  C   C64       1.0  0.77428  0.02669  0.37673  1.0000
  C   C65       1.0  0.79505  0.06473  0.40770  1.0000
  O   O21       1.0  0.78723  0.07641  0.48408  1.0000
  O   O22       1.0  0.80486  0.09510  0.35593  1.0000
  H   H34       1.0  0.80791  0.09230  0.29743  1.0000
  N   N20       1.0  0.83990  0.99499  0.30298  1.0000
  H   H35       1.0  0.85736  0.51675  0.33475  1.0000
  C   C66       1.0  0.98678  0.47988  0.29310  1.0000
  C   C67       1.0  0.90934  0.46021  0.24639  1.0000
  C   C68       1.0  0.94046  0.48884  0.28783  1.0000
  H   H36       1.0  0.92872  0.01668  0.31764  1.0000
  C   C69       1.0  0.51753  0.01099  0.33143  1.0000
  C   C70       1.0  0.56043  0.99854  0.36219  1.0000
  C   C71       1.0  0.59007  0.02825  0.40447  1.0000
  C   C72       1.0  0.57482  0.07191  0.41917  1.0000
  H   H37       1.0  0.56945  0.46608  0.36096  1.0000
  H   H38       1.0  0.59635  0.09420  0.44665  1.0000
  C   C73       1.0  0.63529  0.01841  0.42316  1.0000
  C   C74       1.0  0.86238  0.46597  0.24935  1.0000
  O   O23       1.0  0.83761  0.43872  0.19722  1.0000
  O   O24       1.0  0.65763  0.04652  0.47783  1.0000
  N   N21       1.0  0.53358  0.22912  0.33980  1.0000
  C   C75       1.0  0.53810  0.27312  0.32511  1.0000
  C   C76       1.0  0.51119  0.29371  0.26044  1.0000
  H   H39       1.0  0.55980  0.29086  0.36330  1.0000
  N   N22       1.0  0.51116  0.33874  0.25011  1.0000
  H   H40       1.0  0.52973  0.35514  0.29167  1.0000
  N   N23       1.0  0.76925  0.96022  0.29467  1.0000
  C   C77       1.0  0.72559  0.95549  0.31303  1.0000
  C   C78       1.0  0.70416  0.98779  0.36544  1.0000
  H   H41       1.0  0.70876  0.92905  0.28726  1.0000
  N   N24       1.0  0.65931  0.98691  0.37884  1.0000
  H   H42       1.0  0.64309  0.96487  0.34465  1.0000
  C   C79       1.0  0.99999  0.93738  0.26174  1.0000
  C   C80       1.0  0.97072  0.90733  0.21964  1.0000
  C   C81       1.0  0.92659  0.92142  0.20634  1.0000
  H   H43       1.0  0.53263  0.92888  0.26237  1.0000
  H   H44       1.0  0.90486  0.89930  0.17894  1.0000
  C   C82       1.0  0.53570  0.58844  0.37932  1.0000
  C   C83       1.0  0.50774  0.55710  0.33701  1.0000
  H   H45       1.0  0.97938  0.56855  0.30857  1.0000
  C   C84       1.0  0.52904  0.63519  0.37697  1.0000
  C   C85       1.0  0.98189  0.86261  0.19966  1.0000
  O   O25       1.0  0.55291  0.65986  0.43557  1.0000
  O   O26       1.0  0.95553  0.84054  0.14122  1.0000
  C   C86       1.0  0.50509  0.70162  0.29605  1.0000
  N   N25       1.0  0.48297  0.76635  0.21587  1.0000
  C   C87       1.0  0.47874  0.72194  0.22893  1.0000
  C   C88       1.0  0.44855  0.69923  0.17650  1.0000
  O   O27       1.0  0.41114  0.71445  0.17032  1.0000
  O   O28       1.0  0.46096  0.67844  0.11003  1.0000
  H   H46       1.0  0.48818  0.66823  0.10159  1.0000
  N   N26       1.0  0.50404  0.65713  0.31487  1.0000
  H   H47       1.0  0.98617  0.63909  0.27543  1.0000
  C   C89       1.0  0.79549  0.49429  0.32270  1.0000
  N   N27       1.0  0.73026  0.52183  0.39363  1.0000
  C   C90       1.0  0.77428  0.52669  0.37673  1.0000
  C   C91       1.0  0.79505  0.56473  0.40770  1.0000
  O   O29       1.0  0.78723  0.57641  0.48408  1.0000
  O   O30       1.0  0.80486  0.59510  0.35593  1.0000
  H   H48       1.0  0.80791  0.59230  0.29743  1.0000
  N   N28       1.0  0.83990  0.49500  0.30298  1.0000
  H   H49       1.0  0.85736  0.01675  0.33475  1.0000
  C   C92       1.0  0.98678  0.97988  0.29310  1.0000
  C   C93       1.0  0.90934  0.96021  0.24639  1.0000
  C   C94       1.0  0.94046  0.98884  0.28783  1.0000
  H   H50       1.0  0.92872  0.51667  0.31764  1.0000
  C   C95       1.0  0.51753  0.51099  0.33143  1.0000
  C   C96       1.0  0.56043  0.49854  0.36219  1.0000
  C   C97       1.0  0.59007  0.52825  0.40447  1.0000
  C   C98       1.0  0.57482  0.57191  0.41917  1.0000
  H   H51       1.0  0.56945  0.96608  0.36096  1.0000
  H   H52       1.0  0.59635  0.59420  0.44665  1.0000
  C   C99       1.0  0.63529  0.51841  0.42316  1.0000
  C   C100      1.0  0.86238  0.96597  0.24935  1.0000
  O   O31       1.0  0.83761  0.93872  0.19722  1.0000
  O   O32       1.0  0.65763  0.54652  0.47783  1.0000
  N   N29       1.0  0.53358  0.72912  0.33980  1.0000
  C   C101      1.0  0.53810  0.77312  0.32511  1.0000
  C   C102      1.0  0.51119  0.79371  0.26044  1.0000
  H   H53       1.0  0.55980  0.79086  0.36330  1.0000
  N   N30       1.0  0.51116  0.83874  0.25011  1.0000
  H   H54       1.0  0.52973  0.85514  0.29167  1.0000
  N   N31       1.0  0.76925  0.46022  0.29467  1.0000
  C   C103      1.0  0.72559  0.45549  0.31303  1.0000
  C   C104      1.0  0.70416  0.48779  0.36544  1.0000
  H   H55       1.0  0.70876  0.42905  0.28726  1.0000
  N   N32       1.0  0.65931  0.48691  0.37884  1.0000
  H   H56       1.0  0.64309  0.46487  0.34465  1.0000
