data_image0
_chemical_formula_structural       CHC3H3CHC2HNCHC3H4NC5NC2NHC2HNHCHC6H4NHCHC6H6N2C6H6N2C6H6N2C6H6N2C6H6N2CHC3HCH3CHC3HCH3CHC3HCH2C3HCH3CHC3HCH3CHC3HCH3CHC3HCH3CHC3HCH3CHC12H5CNC2NHN2C12H5CNC2NHN2C12H5CNC2NHN2C12H5CNC2NHN2C12H5CNC2NHN2C3H3CHC3HCH3CHC3HCH3CHC3HCH3CHC3HCH3CHC3HCH2C3HCH3CHC3HCH3CHC3HCH3CH
_chemical_formula_sum              "C216 H162 N36"
_cell_length_a       76.9835
_cell_length_b       76.9834
_cell_length_c       14.9056
_cell_angle_alpha    90
_cell_angle_beta     90
_cell_angle_gamma    120

_space_group_name_H-M_alt    "P 1"
_space_group_IT_number       1

loop_
  _space_group_symop_operation_xyz
  'x, y, z'

loop_
  _atom_site_type_symbol
  _atom_site_label
  _atom_site_symmetry_multiplicity
  _atom_site_fract_x
  _atom_site_fract_y
  _atom_site_fract_z
  _atom_site_occupancy
  C   C1        1.0  0.09053  0.56012  0.32304  1.0000
  H   H1        1.0  0.08296  0.56776  0.31455  1.0000
  C   C2        1.0  0.02564  0.51644  0.32052  1.0000
  C   C3        1.0  0.01279  0.50645  0.24646  1.0000
  C   C4        1.0  0.01982  0.50870  0.15177  1.0000
  H   H2        1.0  0.03594  0.51858  0.14434  1.0000
  H   H3        1.0  0.01231  0.51479  0.11117  1.0000
  H   H4        1.0  0.01615  0.49406  0.12489  1.0000
  C   C5        1.0  0.04578  0.53070  0.30991  1.0000
  H   H5        1.0  0.04912  0.54308  0.27586  1.0000
  C   C6        1.0  0.09121  0.52950  0.35039  1.0000
  C   C7        1.0  0.07991  0.53912  0.33656  1.0000
  H   H6        1.0  0.08405  0.51434  0.36109  1.0000
  N   N1        1.0  0.05988  0.52786  0.33964  1.0000
  C   C8        1.0  0.01725  0.51295  0.40760  1.0000
  H   H7        1.0  0.02639  0.52039  0.46096  1.0000
  C   C9        1.0  0.11168  0.57101  0.32239  1.0000
  C   C10       1.0  0.18710  0.62538  0.32082  1.0000
  C   C11       1.0  0.17930  0.63807  0.34270  1.0000
  H   H8        1.0  0.11860  0.58617  0.31238  1.0000
  H   H9        1.0  0.16459  0.63204  0.36104  1.0000
  H   H10       1.0  0.18585  0.66790  0.36261  1.0000
  H   H11       1.0  0.16742  0.53513  0.30792  1.0000
  N   N2        1.0  0.15500  0.59306  0.32807  1.0000
  C   C12       1.0  0.12317  0.56144  0.33519  1.0000
  C   C13       1.0  0.18875  0.56469  0.34892  1.0000
  C   C14       1.0  0.11236  0.54039  0.34915  1.0000
  C   C15       1.0  0.18196  0.54435  0.32743  1.0000
  C   C16       1.0  0.17622  0.57342  0.34186  1.0000
  N   N3        1.0  0.18520  0.59360  0.33425  1.0000
  C   C17       1.0  0.17541  0.60402  0.32677  1.0000
  C   C18       1.0  0.14471  0.57256  0.33465  1.0000
  N   N4        1.0  0.15578  0.56315  0.34111  1.0000
  H   H12       1.0  0.11979  0.53265  0.35937  1.0000
  C   C19       1.0  0.19178  0.65916  0.34401  1.0000
  C   C20       1.0  0.21244  0.66815  0.32413  1.0000
  H   H13       1.0  0.18997  0.52205  0.31024  1.0000
  N   N5        1.0  0.22442  0.68803  0.32778  1.0000
  H   H14       1.0  0.23858  0.52584  0.16223  1.0000
  C   C21       1.0  0.23091  0.52825  0.33153  1.0000
  H   H15       1.0  0.21927  0.51594  0.30694  1.0000
  C   C22       1.0  0.22003  0.65564  0.29734  1.0000
  C   C23       1.0  0.20765  0.63471  0.29638  1.0000
  C   C24       1.0  0.20917  0.57674  0.37433  1.0000
  C   C25       1.0  0.22231  0.56908  0.37584  1.0000
  C   C26       1.0  0.21562  0.54905  0.35176  1.0000
  C   C27       1.0  0.19522  0.53665  0.32824  1.0000
  H   H16       1.0  0.21406  0.62637  0.27810  1.0000
  H   H17       1.0  0.23480  0.66168  0.27993  1.0000
  H   H18       1.0  0.21492  0.59148  0.39161  1.0000
  H   H19       1.0  0.23700  0.57847  0.39321  1.0000
  N   N6        1.0  0.22959  0.54376  0.35176  1.0000
  H   H20       1.0  0.24679  0.70751  0.53722  1.0000
  C   C28       1.0  0.24167  0.69754  0.36670  1.0000
  H   H21       1.0  0.24701  0.68981  0.39859  1.0000
  C   C29       1.0  0.38252  0.56328  0.32089  1.0000
  C   C30       1.0  0.44777  0.53196  0.32305  1.0000
  C   C31       1.0  0.43688  0.54223  0.32239  1.0000
  C   C32       1.0  0.36983  0.54279  0.34267  1.0000
  C   C33       1.0  0.34874  0.53419  0.34404  1.0000
  C   C34       1.0  0.33975  0.54585  0.32417  1.0000
  H   H22       1.0  0.44012  0.51674  0.31463  1.0000
  H   H23       1.0  0.42172  0.53398  0.31239  1.0000
  H   H24       1.0  0.37585  0.53410  0.36092  1.0000
  H   H25       1.0  0.33999  0.51949  0.36245  1.0000
  H   H26       1.0  0.48587  0.66948  0.31032  1.0000
  H   H27       1.0  0.47278  0.63385  0.30793  1.0000
  N   N7        1.0  0.41484  0.56350  0.32806  1.0000
  N   N8        1.0  0.31986  0.53795  0.32780  1.0000
  C   C35       1.0  0.44461  0.82078  0.32093  1.0000
  C   C36       1.0  0.47594  0.91736  0.32305  1.0000
  C   C37       1.0  0.46567  0.89621  0.32242  1.0000
  C   C38       1.0  0.46511  0.82859  0.34266  1.0000
  C   C39       1.0  0.47371  0.81610  0.34396  1.0000
  C   C40       1.0  0.46204  0.79544  0.32411  1.0000
  H   H28       1.0  0.49115  0.92493  0.31459  1.0000
  H   H29       1.0  0.47392  0.88929  0.31241  1.0000
  H   H30       1.0  0.47380  0.84330  0.36097  1.0000
  H   H31       1.0  0.48840  0.82204  0.36241  1.0000
  H   H32       1.0  0.33842  0.81791  0.31003  1.0000
  H   H33       1.0  0.37405  0.84047  0.30780  1.0000
  N   N9        1.0  0.44440  0.85289  0.32814  1.0000
  N   N10       1.0  0.46994  0.78346  0.32769  1.0000
  C   C41       1.0  0.82231  0.38084  0.32441  1.0000
  C   C42       1.0  0.91889  0.44610  0.34185  1.0000
  C   C43       1.0  0.89773  0.43518  0.34202  1.0000
  C   C44       1.0  0.83021  0.36819  0.34533  1.0000
  C   C45       1.0  0.81777  0.34710  0.34676  1.0000
  C   C46       1.0  0.79707  0.33804  0.32781  1.0000
  H   H34       1.0  0.92649  0.43841  0.34651  1.0000
  H   H35       1.0  0.89082  0.41992  0.34816  1.0000
  H   H36       1.0  0.84497  0.37425  0.36274  1.0000
  H   H37       1.0  0.82381  0.33838  0.36436  1.0000
  H   H38       1.0  0.81975  0.48454  0.31039  1.0000
  H   H39       1.0  0.84219  0.47132  0.30803  1.0000
  N   N11       1.0  0.85443  0.41320  0.33010  1.0000
  N   N12       1.0  0.78516  0.31814  0.33081  1.0000
  C   C47       1.0  0.62706  0.44303  0.32440  1.0000
  C   C48       1.0  0.56180  0.47435  0.34178  1.0000
  C   C49       1.0  0.57272  0.46412  0.34198  1.0000
  C   C50       1.0  0.63971  0.46358  0.34529  1.0000
  C   C51       1.0  0.66081  0.47224  0.34668  1.0000
  C   C52       1.0  0.66986  0.46059  0.32776  1.0000
  H   H40       1.0  0.56949  0.48964  0.34649  1.0000
  H   H41       1.0  0.58798  0.47247  0.34814  1.0000
  H   H42       1.0  0.63365  0.47229  0.36271  1.0000
  H   H43       1.0  0.66953  0.48699  0.36431  1.0000
  H   H44       1.0  0.52339  0.33678  0.31016  1.0000
  H   H45       1.0  0.53659  0.37243  0.30787  1.0000
  N   N13       1.0  0.59470  0.44280  0.33008  1.0000
  N   N14       1.0  0.68976  0.46858  0.33073  1.0000
  C   C53       1.0  0.56486  0.18558  0.32442  1.0000
  C   C54       1.0  0.53355  0.08901  0.34175  1.0000
  C   C55       1.0  0.54378  0.11016  0.34198  1.0000
  C   C56       1.0  0.54431  0.17768  0.34537  1.0000
  C   C57       1.0  0.53564  0.19011  0.34680  1.0000
  C   C58       1.0  0.54729  0.21081  0.32790  1.0000
  H   H46       1.0  0.51826  0.08140  0.34647  1.0000
  H   H47       1.0  0.53543  0.11707  0.34814  1.0000
  H   H48       1.0  0.53561  0.16291  0.36280  1.0000
  H   H49       1.0  0.52089  0.18407  0.36448  1.0000
  H   H50       1.0  0.67112  0.18815  0.31044  1.0000
  H   H51       1.0  0.63547  0.16571  0.30807  1.0000
  N   N15       1.0  0.56510  0.15346  0.33009  1.0000
  N   N16       1.0  0.53930  0.22272  0.33091  1.0000
  C   C59       1.0  0.99210  0.49324  0.26244  1.0000
  H   H52       1.0  0.98295  0.48580  0.20907  1.0000
  C   C60       1.0  0.49146  0.51075  0.32064  1.0000
  C   C61       1.0  0.50145  0.50791  0.24656  1.0000
  C   C62       1.0  0.51467  0.50043  0.26250  1.0000
  H   H53       1.0  0.52210  0.49873  0.20912  1.0000
  C   C63       1.0  0.49919  0.51268  0.15190  1.0000
  H   H54       1.0  0.48930  0.51892  0.14450  1.0000
  H   H55       1.0  0.49310  0.49908  0.11128  1.0000
  H   H56       1.0  0.51382  0.52366  0.12497  1.0000
  C   C64       1.0  0.47718  0.51662  0.31010  1.0000
  H   H57       1.0  0.46481  0.50757  0.27602  1.0000
  C   C65       1.0  0.49716  0.98226  0.32054  1.0000
  C   C66       1.0  0.50001  0.99510  0.24647  1.0000
  C   C67       1.0  0.50749  0.01579  0.26240  1.0000
  H   H58       1.0  0.50919  0.02493  0.20902  1.0000
  C   C68       1.0  0.49523  0.98806  0.15179  1.0000
  H   H59       1.0  0.48899  0.97193  0.14439  1.0000
  H   H60       1.0  0.50883  0.99557  0.11117  1.0000
  H   H61       1.0  0.48425  0.99172  0.12489  1.0000
  C   C69       1.0  0.49128  0.96211  0.30998  1.0000
  H   H62       1.0  0.50033  0.95878  0.27600  1.0000
  C   C70       1.0  0.24954  0.52964  0.33826  1.0000
  C   C71       1.0  0.26109  0.53066  0.26185  1.0000
  C   C72       1.0  0.28098  0.53467  0.27473  1.0000
  H   H63       1.0  0.28964  0.53649  0.21927  1.0000
  C   C73       1.0  0.25395  0.52883  0.16753  1.0000
  H   H64       1.0  0.25465  0.51655  0.13431  1.0000
  H   H65       1.0  0.26358  0.54272  0.13126  1.0000
  C   C74       1.0  0.47828  0.72145  0.33827  1.0000
  C   C75       1.0  0.47726  0.73198  0.26182  1.0000
  C   C76       1.0  0.47326  0.74787  0.27464  1.0000
  H   H66       1.0  0.47142  0.75468  0.21915  1.0000
  C   C77       1.0  0.47911  0.72667  0.16751  1.0000
  H   H67       1.0  0.48208  0.71428  0.16226  1.0000
  H   H68       1.0  0.49140  0.73964  0.13434  1.0000
  H   H69       1.0  0.46523  0.72242  0.13118  1.0000
  C   C78       1.0  0.47968  0.70422  0.33159  1.0000
  H   H70       1.0  0.49196  0.70488  0.30678  1.0000
  C   C79       1.0  0.28645  0.75836  0.33822  1.0000
  C   C80       1.0  0.27590  0.74681  0.26182  1.0000
  C   C81       1.0  0.26002  0.72691  0.27470  1.0000
  H   H71       1.0  0.25318  0.71826  0.21925  1.0000
  C   C82       1.0  0.28120  0.75395  0.16749  1.0000
  H   H72       1.0  0.29358  0.76932  0.16220  1.0000
  H   H73       1.0  0.26822  0.75325  0.13431  1.0000
  H   H74       1.0  0.28546  0.74432  0.13119  1.0000
  C   C83       1.0  0.30369  0.77698  0.33145  1.0000
  H   H75       1.0  0.30301  0.78863  0.30715  1.0000
  C   C84       1.0  0.76021  0.47712  0.33844  1.0000
  C   C85       1.0  0.74850  0.47601  0.26251  1.0000
  C   C86       1.0  0.72862  0.47200  0.27620  1.0000
  H   H76       1.0  0.71985  0.47010  0.22109  1.0000
  C   C87       1.0  0.75545  0.47777  0.16792  1.0000
  H   H77       1.0  0.77082  0.48079  0.16205  1.0000
  H   H78       1.0  0.75466  0.49000  0.13473  1.0000
  H   H79       1.0  0.74578  0.46384  0.13202  1.0000
  C   C88       1.0  0.77880  0.47845  0.33097  1.0000
  H   H80       1.0  0.79045  0.49079  0.30670  1.0000
  C   C89       1.0  0.53081  0.28466  0.33841  1.0000
  C   C90       1.0  0.53191  0.27403  0.26254  1.0000
  C   C91       1.0  0.53592  0.25817  0.27632  1.0000
  H   H81       1.0  0.53781  0.25128  0.22126  1.0000
  C   C92       1.0  0.53017  0.27922  0.16790  1.0000
  H   H82       1.0  0.52715  0.29157  0.16197  1.0000
  H   H83       1.0  0.51795  0.26620  0.13469  1.0000
  H   H84       1.0  0.54411  0.28348  0.13208  1.0000
  C   C93       1.0  0.52948  0.30191  0.33081  1.0000
  H   H85       1.0  0.51711  0.30121  0.30690  1.0000
  C   C94       1.0  0.72324  0.24770  0.33844  1.0000
  C   C95       1.0  0.73385  0.25942  0.26254  1.0000
  C   C96       1.0  0.74972  0.27930  0.27627  1.0000
  H   H86       1.0  0.75658  0.28807  0.22118  1.0000
  C   C97       1.0  0.72866  0.25248  0.16792  1.0000
  H   H87       1.0  0.71630  0.23711  0.16202  1.0000
  H   H88       1.0  0.74168  0.25327  0.13474  1.0000
  H   H89       1.0  0.72440  0.26216  0.13204  1.0000
  C   C98       1.0  0.70599  0.22912  0.33093  1.0000
  H   H90       1.0  0.70667  0.21746  0.30661  1.0000
  C   C99       1.0  0.44646  0.56329  0.33514  1.0000
  C   C100      1.0  0.44322  0.62563  0.34886  1.0000
  C   C101      1.0  0.46751  0.57353  0.34908  1.0000
  C   C102      1.0  0.47839  0.56325  0.35036  1.0000
  C   C103      1.0  0.46877  0.54234  0.33660  1.0000
  C   C104      1.0  0.35226  0.56596  0.29744  1.0000
  C   C105      1.0  0.37319  0.57451  0.29651  1.0000
  C   C106      1.0  0.43117  0.63399  0.37428  1.0000
  C   C107      1.0  0.43883  0.65479  0.37584  1.0000
  C   C108      1.0  0.45887  0.66814  0.35180  1.0000
  C   C109      1.0  0.47127  0.66013  0.32829  1.0000
  C   C110      1.0  0.46356  0.63916  0.32743  1.0000
  H   H91       1.0  0.49355  0.57126  0.36106  1.0000
  H   H92       1.0  0.38153  0.58926  0.27826  1.0000
  H   H93       1.0  0.34622  0.57469  0.28006  1.0000
  H   H94       1.0  0.41643  0.62501  0.39152  1.0000
  H   H95       1.0  0.42944  0.66009  0.39320  1.0000
  C   C111      1.0  0.43448  0.60436  0.34180  1.0000
  N   N17       1.0  0.41430  0.59316  0.33424  1.0000
  C   C112      1.0  0.40388  0.57295  0.32678  1.0000
  C   C113      1.0  0.43533  0.57370  0.33460  1.0000
  N   N18       1.0  0.44475  0.59418  0.34105  1.0000
  H   H96       1.0  0.47525  0.58870  0.35928  1.0000
  N   N19       1.0  0.46417  0.68740  0.35186  1.0000
  N   N20       1.0  0.48003  0.53357  0.33973  1.0000
  C   C114      1.0  0.44461  0.88472  0.33521  1.0000
  C   C115      1.0  0.38227  0.81915  0.34904  1.0000
  C   C116      1.0  0.43437  0.89553  0.34916  1.0000
  C   C117      1.0  0.44465  0.91669  0.35040  1.0000
  C   C118      1.0  0.46556  0.92799  0.33661  1.0000
  C   C119      1.0  0.44193  0.78785  0.29747  1.0000
  C   C120      1.0  0.43339  0.80023  0.29653  1.0000
  C   C121      1.0  0.37392  0.79874  0.37454  1.0000
  C   C122      1.0  0.35312  0.78560  0.37601  1.0000
  C   C123      1.0  0.33977  0.79227  0.35175  1.0000
  C   C124      1.0  0.34777  0.81267  0.32819  1.0000
  C   C125      1.0  0.36874  0.82594  0.32747  1.0000
  H   H97       1.0  0.43664  0.92385  0.36110  1.0000
  H   H98       1.0  0.41863  0.79382  0.27831  1.0000
  H   H99       1.0  0.43320  0.77308  0.28003  1.0000
  H   H100      1.0  0.38290  0.79299  0.39189  1.0000
  H   H101      1.0  0.34782  0.77091  0.39339  1.0000
  C   C126      1.0  0.40354  0.83168  0.34196  1.0000
  N   N21       1.0  0.41474  0.82269  0.33437  1.0000
  C   C127      1.0  0.43495  0.83248  0.32689  1.0000
  C   C128      1.0  0.43420  0.86318  0.33470  1.0000
  N   N22       1.0  0.41372  0.85212  0.34118  1.0000
  H   H102      1.0  0.41920  0.88811  0.35938  1.0000
  N   N23       1.0  0.32051  0.77829  0.35165  1.0000
  N   N24       1.0  0.47433  0.94802  0.33966  1.0000
  C   C129      1.0  0.88623  0.44487  0.33433  1.0000
  C   C130      1.0  0.82064  0.44164  0.34651  1.0000
  C   C131      1.0  0.89701  0.46606  0.32582  1.0000
  C   C132      1.0  0.91817  0.47698  0.32474  1.0000
  C   C133      1.0  0.92948  0.46724  0.33369  1.0000
  C   C134      1.0  0.78936  0.35052  0.30214  1.0000
  C   C135      1.0  0.80168  0.37145  0.30111  1.0000
  C   C136      1.0  0.80013  0.42956  0.37038  1.0000
  C   C137      1.0  0.78705  0.43729  0.37192  1.0000
  C   C138      1.0  0.79390  0.45744  0.34936  1.0000
  C   C139      1.0  0.81438  0.46985  0.32714  1.0000
  C   C140      1.0  0.82757  0.46206  0.32631  1.0000
  H   H103      1.0  0.92531  0.49225  0.31782  1.0000
  H   H104      1.0  0.79519  0.37974  0.28336  1.0000
  H   H105      1.0  0.77456  0.34444  0.28521  1.0000
  H   H106      1.0  0.79425  0.41476  0.38682  1.0000
  H   H107      1.0  0.77231  0.42790  0.38845  1.0000
  C   C141      1.0  0.83320  0.43289  0.34056  1.0000
  N   N25       1.0  0.82424  0.41268  0.33501  1.0000
  C   C142      1.0  0.83402  0.40222  0.32922  1.0000
  C   C143      1.0  0.86470  0.43372  0.33455  1.0000
  N   N26       1.0  0.85364  0.44316  0.33930  1.0000
  H   H108      1.0  0.88956  0.47388  0.31913  1.0000
  N   N27       1.0  0.78002  0.46285  0.35010  1.0000
  N   N28       1.0  0.94950  0.47852  0.33078  1.0000
  C   C144      1.0  0.56303  0.44293  0.33430  1.0000
  C   C145      1.0  0.56627  0.38057  0.34653  1.0000
  C   C146      1.0  0.54184  0.43251  0.32580  1.0000
  C   C147      1.0  0.53092  0.44275  0.32472  1.0000
  C   C148      1.0  0.54066  0.46380  0.33363  1.0000
  C   C149      1.0  0.65738  0.44040  0.30211  1.0000
  C   C150      1.0  0.63645  0.43180  0.30111  1.0000
  C   C151      1.0  0.57834  0.37214  0.37048  1.0000
  C   C152      1.0  0.57062  0.35133  0.37197  1.0000
  C   C153      1.0  0.55048  0.33803  0.34928  1.0000
  C   C154      1.0  0.53807  0.34610  0.32698  1.0000
  C   C155      1.0  0.54585  0.36708  0.32625  1.0000
  H   H109      1.0  0.51565  0.43462  0.31784  1.0000
  H   H110      1.0  0.62816  0.41701  0.28338  1.0000
  H   H111      1.0  0.66346  0.43167  0.28520  1.0000
  H   H112      1.0  0.59314  0.38107  0.38698  1.0000
  H   H113      1.0  0.58001  0.34599  0.38853  1.0000
  C   C156      1.0  0.57501  0.40187  0.34056  1.0000
  N   N29       1.0  0.59522  0.41312  0.33502  1.0000
  C   C157      1.0  0.60568  0.43336  0.32922  1.0000
  C   C158      1.0  0.57418  0.43254  0.33453  1.0000
  N   N30       1.0  0.56474  0.41204  0.33929  1.0000
  H   H114      1.0  0.53402  0.41724  0.31913  1.0000
  N   N31       1.0  0.54508  0.31874  0.34991  1.0000
  N   N32       1.0  0.52938  0.47255  0.33082  1.0000
  C   C159      1.0  0.56497  0.12167  0.33429  1.0000
  C   C160      1.0  0.62732  0.18726  0.34642  1.0000
  C   C161      1.0  0.57539  0.11089  0.32576  1.0000
  C   C162      1.0  0.56516  0.08973  0.32468  1.0000
  C   C163      1.0  0.54410  0.07842  0.33359  1.0000
  C   C164      1.0  0.56748  0.21853  0.30217  1.0000
  C   C165      1.0  0.57608  0.20620  0.30110  1.0000
  C   C166      1.0  0.63576  0.20777  0.37027  1.0000
  C   C167      1.0  0.65656  0.22085  0.37181  1.0000
  C   C168      1.0  0.66987  0.21401  0.34930  1.0000
  C   C169      1.0  0.66180  0.19353  0.32709  1.0000
  C   C170      1.0  0.64082  0.18033  0.32623  1.0000
  H   H115      1.0  0.57328  0.08259  0.31780  1.0000
  H   H116      1.0  0.59087  0.21270  0.28334  1.0000
  H   H117      1.0  0.57620  0.23333  0.28525  1.0000
  H   H118      1.0  0.62683  0.21365  0.38669  1.0000
  H   H119      1.0  0.66191  0.23559  0.38833  1.0000
  C   C171      1.0  0.60603  0.17470  0.34050  1.0000
  N   N33       1.0  0.59477  0.18366  0.33497  1.0000
  C   C172      1.0  0.57453  0.17387  0.32920  1.0000
  C   C173      1.0  0.57535  0.14319  0.33452  1.0000
  N   N34       1.0  0.59586  0.15426  0.33925  1.0000
  H   H120      1.0  0.59066  0.11834  0.31913  1.0000
  N   N35       1.0  0.68916  0.22789  0.35008  1.0000
  N   N36       1.0  0.53536  0.05839  0.33073  1.0000
  C   C174      1.0  0.98370  0.48976  0.34951  1.0000
  C   C175      1.0  0.99655  0.49974  0.42358  1.0000
  C   C176      1.0  0.98952  0.49746  0.51825  1.0000
  H   H121      1.0  0.97339  0.48755  0.52565  1.0000
  H   H122      1.0  0.99316  0.51209  0.54520  1.0000
  H   H123      1.0  0.99704  0.49138  0.55884  1.0000
  C   C177      1.0  0.96354  0.47553  0.35994  1.0000
  H   H124      1.0  0.96016  0.46304  0.39323  1.0000
  C   C178      1.0  0.51815  0.49552  0.34957  1.0000
  C   C179      1.0  0.50816  0.49837  0.42365  1.0000
  C   C180      1.0  0.49494  0.50584  0.40770  1.0000
  H   H125      1.0  0.48750  0.50753  0.46108  1.0000
  C   C181      1.0  0.51044  0.49359  0.51831  1.0000
  H   H126      1.0  0.52036  0.48740  0.52567  1.0000
  H   H127      1.0  0.49581  0.48259  0.54519  1.0000
  H   H128      1.0  0.51650  0.50718  0.55896  1.0000
  C   C182      1.0  0.53238  0.48958  0.35996  1.0000
  H   H129      1.0  0.54488  0.49870  0.39308  1.0000
  C   C183      1.0  0.51240  0.02419  0.34946  1.0000
  C   C184      1.0  0.50953  0.01135  0.42355  1.0000
  C   C185      1.0  0.50206  0.99066  0.40762  1.0000
  H   H130      1.0  0.50036  0.98152  0.46099  1.0000
  C   C186      1.0  0.51429  0.01840  0.51821  1.0000
  H   H131      1.0  0.52050  0.03452  0.52558  1.0000
  H   H132      1.0  0.52529  0.01476  0.54517  1.0000
  H   H133      1.0  0.50069  0.01087  0.55882  1.0000
  C   C187      1.0  0.51832  0.04435  0.35985  1.0000
  H   H134      1.0  0.50922  0.04773  0.39307  1.0000
  C   C188      1.0  0.28973  0.53767  0.36097  1.0000
  C   C189      1.0  0.27794  0.53605  0.43747  1.0000
  C   C190      1.0  0.25804  0.53198  0.42464  1.0000
  H   H135      1.0  0.24977  0.53139  0.47977  1.0000
  C   C191      1.0  0.28537  0.53882  0.53166  1.0000
  H   H136      1.0  0.30037  0.54080  0.53725  1.0000
  H   H137      1.0  0.27535  0.52568  0.57154  1.0000
  H   H138      1.0  0.28567  0.55198  0.56079  1.0000
  C   C192      1.0  0.31035  0.54569  0.36673  1.0000
  H   H139      1.0  0.31808  0.55875  0.39866  1.0000
  C   C193      1.0  0.47022  0.75360  0.36084  1.0000
  C   C194      1.0  0.47186  0.74345  0.43738  1.0000
  C   C195      1.0  0.47594  0.72763  0.42462  1.0000
  H   H140      1.0  0.47652  0.71995  0.47977  1.0000
  C   C196      1.0  0.46906  0.74810  0.53156  1.0000
  H   H141      1.0  0.46706  0.76111  0.53713  1.0000
  H   H142      1.0  0.48220  0.75123  0.57149  1.0000
  H   H143      1.0  0.45590  0.73523  0.56065  1.0000
  C   C197      1.0  0.46220  0.76621  0.36662  1.0000
  H   H144      1.0  0.44915  0.76089  0.39862  1.0000
  C   C198      1.0  0.25428  0.71816  0.36094  1.0000
  C   C199      1.0  0.26446  0.72996  0.43743  1.0000
  C   C200      1.0  0.28029  0.74985  0.42460  1.0000
  H   H145      1.0  0.28798  0.75812  0.47972  1.0000
  C   C201      1.0  0.25981  0.72252  0.53162  1.0000
  H   H146      1.0  0.25669  0.73254  0.57154  1.0000
  H   H147      1.0  0.27268  0.72222  0.56072  1.0000
  C   C202      1.0  0.72003  0.46904  0.36278  1.0000
  C   C203      1.0  0.73199  0.47076  0.43879  1.0000
  C   C204      1.0  0.75188  0.47486  0.42516  1.0000
  H   H148      1.0  0.76025  0.47547  0.47994  1.0000
  C   C205      1.0  0.72474  0.46804  0.53329  1.0000
  H   H149      1.0  0.70974  0.46604  0.53952  1.0000
  H   H150      1.0  0.73484  0.48121  0.57286  1.0000
  H   H151      1.0  0.72452  0.45490  0.56230  1.0000
  C   C206      1.0  0.69941  0.46097  0.36944  1.0000
  H   H152      1.0  0.69180  0.44796  0.40181  1.0000
  C   C207      1.0  0.53884  0.25253  0.36297  1.0000
  C   C208      1.0  0.53713  0.26279  0.43891  1.0000
  C   C209      1.0  0.53307  0.27860  0.42517  1.0000
  H   H153      1.0  0.53243  0.28636  0.47991  1.0000
  C   C210      1.0  0.53982  0.25826  0.53344  1.0000
  H   H154      1.0  0.54180  0.24525  0.53972  1.0000
  H   H155      1.0  0.52665  0.25520  0.57294  1.0000
  H   H156      1.0  0.55296  0.27117  0.56249  1.0000
  C   C211      1.0  0.54690  0.23998  0.36967  1.0000
  H   H157      1.0  0.55993  0.24538  0.40197  1.0000
  C   C212      1.0  0.75534  0.28787  0.36286  1.0000
  C   C213      1.0  0.74510  0.27591  0.43885  1.0000
  C   C214      1.0  0.72930  0.25602  0.42518  1.0000
  H   H158      1.0  0.72155  0.24765  0.47993  1.0000
  C   C215      1.0  0.74962  0.28315  0.53337  1.0000
  H   H159      1.0  0.76262  0.29814  0.53963  1.0000
  H   H160      1.0  0.75270  0.27305  0.57291  1.0000
  H   H161      1.0  0.73670  0.28336  0.56238  1.0000
  C   C216      1.0  0.76790  0.30849  0.36960  1.0000
  H   H162      1.0  0.76250  0.31611  0.40191  1.0000
