data_image0
_chemical_formula_structural       C8H12C3H2NHC3H2NHC3NC3NC5NC5NC20H18CHCHCHCHC3H2NHC3H2NH
_chemical_formula_sum              "C60 H46 N8"
_cell_length_a       25.2971
_cell_length_b       25.2988
_cell_length_c       15.0056
_cell_angle_alpha    90
_cell_angle_beta     90
_cell_angle_gamma    90.0376

_space_group_name_H-M_alt    "P 1"
_space_group_IT_number       1

loop_
  _space_group_symop_operation_xyz
  'x, y, z'

loop_
  _atom_site_type_symbol
  _atom_site_label
  _atom_site_symmetry_multiplicity
  _atom_site_fract_x
  _atom_site_fract_y
  _atom_site_fract_z
  _atom_site_occupancy
  C   C1        1.0  0.71879  0.96630  0.28174  1.0000
  C   C2        1.0  0.77380  0.97322  0.27414  1.0000
  C   C3        1.0  0.96608  0.27974  0.28527  1.0000
  C   C4        1.0  0.97247  0.22473  0.27694  1.0000
  C   C5        1.0  0.21479  0.03962  0.23815  1.0000
  C   C6        1.0  0.26976  0.04688  0.23157  1.0000
  C   C7        1.0  0.03434  0.78354  0.23352  1.0000
  C   C8        1.0  0.04096  0.72854  0.22592  1.0000
  H   H1        1.0  0.04710  0.71261  0.16412  1.0000
  H   H2        1.0  0.03601  0.80638  0.17727  1.0000
  H   H3        1.0  0.19200  0.04349  0.18214  1.0000
  H   H4        1.0  0.28571  0.05576  0.17074  1.0000
  H   H5        1.0  0.97778  0.20867  0.21496  1.0000
  H   H6        1.0  0.96688  0.30263  0.22905  1.0000
  H   H7        1.0  0.79007  0.97912  0.21247  1.0000
  H   H8        1.0  0.69611  0.96729  0.22530  1.0000
  H   H9        1.0  0.92090  0.37410  0.33367  1.0000
  H   H10       1.0  0.62399  0.92148  0.32715  1.0000
  H   H11       1.0  0.05568  0.62594  0.22711  1.0000
  H   H12       1.0  0.37242  0.06127  0.23452  1.0000
  C   C9        1.0  0.00440  0.52232  0.25041  1.0000
  C   C10       1.0  0.00652  0.46707  0.26046  1.0000
  C   C11       1.0  0.99618  0.55526  0.32524  1.0000
  H   H13       1.0  0.01261  0.44381  0.20564  1.0000
  H   H14       1.0  0.00876  0.53847  0.18838  1.0000
  N   N1        1.0  0.99338  0.61088  0.31841  1.0000
  H   H15       1.0  0.96433  0.62069  0.27346  1.0000
  C   C12       1.0  0.47574  0.00834  0.25101  1.0000
  C   C13       1.0  0.53104  0.00977  0.26060  1.0000
  C   C14       1.0  0.44301  0.99804  0.32539  1.0000
  H   H16       1.0  0.55414  0.01734  0.20611  1.0000
  H   H17       1.0  0.45938  0.01461  0.18960  1.0000
  N   N2        1.0  0.38734  0.99561  0.31887  1.0000
  H   H18       1.0  0.37726  0.96819  0.27125  1.0000
  C   C15       1.0  0.92003  0.85069  0.32918  1.0000
  C   C16       1.0  0.87662  0.88351  0.33493  1.0000
  C   C17       1.0  0.89461  0.93569  0.33907  1.0000
  N   N3        1.0  0.94807  0.93254  0.33627  1.0000
  C   C18       1.0  0.96556  0.88203  0.33024  1.0000
  C   C19       1.0  0.01822  0.86256  0.32494  1.0000
  C   C20       1.0  0.06435  0.89452  0.32391  1.0000
  N   N4        1.0  0.06724  0.94779  0.32778  1.0000
  C   C21       1.0  0.11771  0.96512  0.32421  1.0000
  C   C22       1.0  0.14929  0.92000  0.31783  1.0000
  C   C23       1.0  0.11641  0.87647  0.31819  1.0000
  C   C24       1.0  0.13587  0.01819  0.32650  1.0000
  C   C25       1.0  0.10276  0.06345  0.33289  1.0000
  N   N5        1.0  0.04928  0.06662  0.33408  1.0000
  C   C26       1.0  0.03178  0.11706  0.34157  1.0000
  C   C27       1.0  0.07730  0.14834  0.34538  1.0000
  C   C28       1.0  0.12073  0.11553  0.34000  1.0000
  C   C29       1.0  0.97911  0.13656  0.34555  1.0000
  C   C30       1.0  0.93295  0.10468  0.34539  1.0000
  N   N6        1.0  0.93012  0.05139  0.34270  1.0000
  C   C31       1.0  0.87962  0.03411  0.34534  1.0000
  C   C32       1.0  0.84797  0.07926  0.34977  1.0000
  C   C33       1.0  0.88086  0.12279  0.34946  1.0000
  C   C34       1.0  0.86153  0.98101  0.34434  1.0000
  C   C35       1.0  0.80604  0.97271  0.35096  1.0000
  C   C36       1.0  0.78248  0.96480  0.43523  1.0000
  C   C37       1.0  0.72754  0.95753  0.44254  1.0000
  C   C38       1.0  0.69498  0.95836  0.36596  1.0000
  C   C39       1.0  0.97198  0.19216  0.35335  1.0000
  C   C40       1.0  0.96473  0.21543  0.43801  1.0000
  C   C41       1.0  0.95804  0.27040  0.44607  1.0000
  C   C42       1.0  0.95876  0.30327  0.36986  1.0000
  C   C43       1.0  0.19142  0.02656  0.32075  1.0000
  C   C44       1.0  0.30258  0.04097  0.30718  1.0000
  C   C45       1.0  0.27895  0.02816  0.38983  1.0000
  C   C46       1.0  0.22393  0.02113  0.39672  1.0000
  C   C47       1.0  0.02534  0.80691  0.31763  1.0000
  C   C48       1.0  0.02298  0.77433  0.39397  1.0000
  C   C49       1.0  0.02920  0.71928  0.38607  1.0000
  C   C50       1.0  0.03826  0.69568  0.30201  1.0000
  H   H19       1.0  0.02697  0.69641  0.44220  1.0000
  H   H20       1.0  0.01635  0.79042  0.45556  1.0000
  H   H21       1.0  0.91793  0.81044  0.32447  1.0000
  H   H22       1.0  0.83829  0.87070  0.33483  1.0000
  H   H23       1.0  0.97101  0.96274  0.33891  1.0000
  H   H24       1.0  0.02634  0.03659  0.32800  1.0000
  H   H25       1.0  0.12903  0.83817  0.31426  1.0000
  H   H26       1.0  0.18958  0.91833  0.31374  1.0000
  H   H27       1.0  0.20783  0.01155  0.45719  1.0000
  H   H28       1.0  0.30179  0.02354  0.44558  1.0000
  H   H29       1.0  0.15906  0.12829  0.34202  1.0000
  H   H30       1.0  0.07935  0.18851  0.35175  1.0000
  H   H31       1.0  0.80764  0.08092  0.35279  1.0000
  H   H32       1.0  0.86824  0.16112  0.35250  1.0000
  H   H33       1.0  0.96445  0.19256  0.49430  1.0000
  H   H34       1.0  0.95322  0.28629  0.50823  1.0000
  H   H35       1.0  0.71141  0.95248  0.50447  1.0000
  H   H36       1.0  0.80510  0.96464  0.49181  1.0000
  C   C51       1.0  0.95301  0.36153  0.37769  1.0000
  H   H37       1.0  0.94205  0.37281  0.44565  1.0000
  C   C52       1.0  0.63669  0.95251  0.37323  1.0000
  H   H38       1.0  0.62537  0.94000  0.44040  1.0000
  C   C53       1.0  0.04385  0.63738  0.29458  1.0000
  H   H39       1.0  0.07529  0.62475  0.33991  1.0000
  C   C54       1.0  0.36090  0.04687  0.30052  1.0000
  H   H40       1.0  0.37352  0.07648  0.34924  1.0000
  C   C55       1.0  0.00001  0.44384  0.34514  1.0000
  C   C56       1.0  0.99182  0.47678  0.41997  1.0000
  C   C57       1.0  0.98960  0.53202  0.40990  1.0000
  H   H41       1.0  0.98758  0.46066  0.48204  1.0000
  H   H42       1.0  0.98359  0.55528  0.46473  1.0000
  N   N7        1.0  0.00306  0.38822  0.35205  1.0000
  H   H43       1.0  0.03263  0.37861  0.39614  1.0000
  C   C58       1.0  0.55454  0.00062  0.34436  1.0000
  C   C59       1.0  0.52179  0.99049  0.41879  1.0000
  C   C60       1.0  0.46650  0.98886  0.40914  1.0000
  H   H44       1.0  0.53810  0.98437  0.48027  1.0000
  H   H45       1.0  0.44340  0.98133  0.46365  1.0000
  N   N8        1.0  0.61021  0.00320  0.35095  1.0000
  H   H46       1.0  0.62008  0.03170  0.39687  1.0000
