data_image0
_chemical_formula_structural       C30H17NHNHNHC30H17NHNHNHC2HC3HC2H4CH2C2HC3HC2H4CH2C2HC3HC2H4CH10C7H3NO2CH2C7H3NO2CH2C7H3NO2CH2
_chemical_formula_sum              "C108 H87 N9 O6"
_cell_length_a       52.3343
_cell_length_b       52.3344
_cell_length_c       14.9911
_cell_angle_alpha    90
_cell_angle_beta     90
_cell_angle_gamma    120

_space_group_name_H-M_alt    "P 1"
_space_group_IT_number       1

loop_
  _space_group_symop_operation_xyz
  'x, y, z'

loop_
  _atom_site_type_symbol
  _atom_site_label
  _atom_site_symmetry_multiplicity
  _atom_site_fract_x
  _atom_site_fract_y
  _atom_site_fract_z
  _atom_site_occupancy
  C   C1        1.0  0.16065  0.58379  0.32695  1.0000
  C   C2        1.0  0.17847  0.61269  0.36036  1.0000
  C   C3        1.0  0.20911  0.62465  0.36981  1.0000
  C   C4        1.0  0.22248  0.60792  0.34575  1.0000
  C   C5        1.0  0.20459  0.57891  0.31331  1.0000
  C   C6        1.0  0.17398  0.56708  0.30337  1.0000
  C   C7        1.0  0.25263  0.61957  0.35334  1.0000
  C   C8        1.0  0.27213  0.64210  0.30249  1.0000
  C   C9        1.0  0.30253  0.65410  0.30734  1.0000
  C   C10       1.0  0.31566  0.63614  0.30659  1.0000
  C   C11       1.0  0.34664  0.64858  0.30720  1.0000
  C   C12       1.0  0.36461  0.67967  0.30652  1.0000
  C   C13       1.0  0.35217  0.69821  0.30722  1.0000
  C   C14       1.0  0.32108  0.68509  0.30663  1.0000
  C   C15       1.0  0.37057  0.72862  0.30235  1.0000
  C   C16       1.0  0.36755  0.74812  0.35324  1.0000
  C   C17       1.0  0.38605  0.77827  0.34566  1.0000
  C   C18       1.0  0.37494  0.79616  0.31315  1.0000
  C   C19       1.0  0.41614  0.79163  0.36975  1.0000
  C   C20       1.0  0.43483  0.82228  0.36037  1.0000
  C   C21       1.0  0.42376  0.84009  0.32690  1.0000
  C   C22       1.0  0.39372  0.82677  0.30328  1.0000
  C   C23       1.0  0.35866  0.63018  0.30231  1.0000
  C   C24       1.0  0.38118  0.63321  0.35316  1.0000
  C   C25       1.0  0.39282  0.61470  0.34558  1.0000
  C   C26       1.0  0.37609  0.58461  0.36969  1.0000
  C   C27       1.0  0.42182  0.62581  0.31307  1.0000
  C   C28       1.0  0.43365  0.60702  0.30319  1.0000
  C   C29       1.0  0.41693  0.57699  0.32682  1.0000
  C   C30       1.0  0.38804  0.56592  0.36029  1.0000
  H   H1        1.0  0.16923  0.62526  0.37672  1.0000
  H   H2        1.0  0.22157  0.64571  0.39359  1.0000
  H   H3        1.0  0.31180  0.69831  0.30424  1.0000
  H   H4        1.0  0.30244  0.61365  0.30420  1.0000
  H   H5        1.0  0.38711  0.68895  0.30408  1.0000
  H   H6        1.0  0.35504  0.57602  0.39352  1.0000
  H   H7        1.0  0.35324  0.78702  0.29497  1.0000
  H   H8        1.0  0.45664  0.83151  0.37671  1.0000
  H   H9        1.0  0.42474  0.77917  0.39357  1.0000
  H   H10       1.0  0.37546  0.54411  0.37667  1.0000
  H   H11       1.0  0.43438  0.64750  0.29488  1.0000
  H   H12       1.0  0.35102  0.74105  0.39669  1.0000
  H   H13       1.0  0.38726  0.73618  0.25920  1.0000
  H   H14       1.0  0.25970  0.61009  0.39671  1.0000
  H   H15       1.0  0.26456  0.65125  0.25938  1.0000
  H   H16       1.0  0.39065  0.64975  0.39660  1.0000
  H   H17       1.0  0.34951  0.61347  0.25919  1.0000
  N   N1        1.0  0.44194  0.87077  0.31307  1.0000
  H   H18       1.0  0.45924  0.87417  0.27271  1.0000
  N   N2        1.0  0.12998  0.57130  0.31309  1.0000
  H   H19       1.0  0.12658  0.58519  0.27270  1.0000
  N   N3        1.0  0.42942  0.55880  0.31301  1.0000
  H   H20       1.0  0.41553  0.54150  0.27266  1.0000
  C   C31       1.0  0.83979  0.41563  0.34803  1.0000
  C   C32       1.0  0.82421  0.39329  0.28406  1.0000
  C   C33       1.0  0.79371  0.38164  0.27177  1.0000
  C   C34       1.0  0.77831  0.39212  0.32353  1.0000
  C   C35       1.0  0.79391  0.41460  0.38706  1.0000
  C   C36       1.0  0.82439  0.42612  0.39938  1.0000
  C   C37       1.0  0.74826  0.38026  0.31316  1.0000
  C   C38       1.0  0.72868  0.35890  0.36703  1.0000
  C   C39       1.0  0.69834  0.34663  0.35962  1.0000
  C   C40       1.0  0.68512  0.36450  0.36028  1.0000
  C   C41       1.0  0.65411  0.35186  0.35969  1.0000
  C   C42       1.0  0.63625  0.32077  0.36028  1.0000
  C   C43       1.0  0.64888  0.30240  0.35966  1.0000
  C   C44       1.0  0.67997  0.31563  0.36022  1.0000
  C   C45       1.0  0.63082  0.27207  0.36709  1.0000
  C   C46       1.0  0.63258  0.25249  0.31317  1.0000
  C   C47       1.0  0.61440  0.22244  0.32356  1.0000
  C   C48       1.0  0.62127  0.20684  0.38708  1.0000
  C   C49       1.0  0.58852  0.20704  0.27180  1.0000
  C   C50       1.0  0.56967  0.17654  0.28408  1.0000
  C   C51       1.0  0.57643  0.16095  0.34805  1.0000
  C   C52       1.0  0.60232  0.17636  0.39941  1.0000
  C   C53       1.0  0.64184  0.36993  0.36713  1.0000
  C   C54       1.0  0.62050  0.36817  0.31323  1.0000
  C   C55       1.0  0.60863  0.38635  0.32363  1.0000
  C   C56       1.0  0.61911  0.41222  0.27185  1.0000
  C   C57       1.0  0.58618  0.37949  0.38720  1.0000
  C   C58       1.0  0.57464  0.39843  0.39951  1.0000
  C   C59       1.0  0.58513  0.42433  0.34813  1.0000
  C   C60       1.0  0.60746  0.43108  0.28415  1.0000
  H   H21       1.0  0.83497  0.38516  0.24707  1.0000
  H   H22       1.0  0.78283  0.36523  0.22575  1.0000
  H   H23       1.0  0.68935  0.30250  0.36328  1.0000
  H   H24       1.0  0.69824  0.38700  0.36332  1.0000
  H   H25       1.0  0.61375  0.31139  0.36338  1.0000
  H   H26       1.0  0.63550  0.41774  0.22578  1.0000
  H   H27       1.0  0.63988  0.21755  0.42551  1.0000
  H   H28       1.0  0.55078  0.16577  0.24708  1.0000
  H   H29       1.0  0.58299  0.21791  0.22576  1.0000
  H   H30       1.0  0.61557  0.44996  0.24711  1.0000
  H   H31       1.0  0.57828  0.36088  0.42561  1.0000
  H   H32       1.0  0.64731  0.25938  0.26400  1.0000
  H   H33       1.0  0.61554  0.26468  0.41488  1.0000
  H   H34       1.0  0.74136  0.38810  0.26404  1.0000
  H   H35       1.0  0.73607  0.35100  0.41477  1.0000
  H   H36       1.0  0.61267  0.35344  0.26406  1.0000
  H   H37       1.0  0.64973  0.38521  0.41492  1.0000
  N   N4        1.0  0.55776  0.13048  0.36434  1.0000
  H   H38       1.0  0.53695  0.12672  0.37839  1.0000
  N   N5        1.0  0.87027  0.42743  0.36432  1.0000
  H   H39       1.0  0.87402  0.41037  0.37839  1.0000
  N   N6        1.0  0.57332  0.44299  0.36440  1.0000
  H   H40       1.0  0.59037  0.46381  0.37845  1.0000
  C   C61       1.0  0.48022  0.51441  0.28860  1.0000
  C   C62       1.0  0.46424  0.52941  0.29812  1.0000
  H   H41       1.0  0.46022  0.53823  0.24273  1.0000
  C   C63       1.0  0.53778  0.45941  0.31387  1.0000
  C   C64       1.0  0.51978  0.46148  0.24741  1.0000
  C   C65       1.0  0.50311  0.47547  0.26414  1.0000
  H   H42       1.0  0.51900  0.45288  0.18545  1.0000
  C   C66       1.0  0.48619  0.47928  0.19061  1.0000
  C   C67       1.0  0.48902  0.51012  0.19761  1.0000
  H   H43       1.0  0.46300  0.46218  0.19650  1.0000
  H   H44       1.0  0.49404  0.47713  0.12496  1.0000
  H   H45       1.0  0.47534  0.51196  0.14567  1.0000
  H   H46       1.0  0.51190  0.52722  0.18559  1.0000
  C   C68       1.0  0.55467  0.44425  0.29158  1.0000
  H   H47       1.0  0.56861  0.45527  0.23366  1.0000
  H   H48       1.0  0.53856  0.42165  0.27210  1.0000
  C   C69       1.0  0.48632  0.96596  0.28861  1.0000
  C   C70       1.0  0.47132  0.93498  0.29814  1.0000
  H   H49       1.0  0.46250  0.92213  0.24275  1.0000
  C   C71       1.0  0.54134  0.07852  0.31382  1.0000
  C   C72       1.0  0.53925  0.05844  0.24737  1.0000
  C   C73       1.0  0.52527  0.02779  0.26412  1.0000
  H   H50       1.0  0.54785  0.06627  0.18540  1.0000
  C   C74       1.0  0.52145  0.00705  0.19059  1.0000
  C   C75       1.0  0.49061  0.97904  0.19761  1.0000
  H   H51       1.0  0.53855  0.00096  0.19648  1.0000
  H   H52       1.0  0.52360  0.01705  0.12494  1.0000
  H   H53       1.0  0.48877  0.96353  0.14568  1.0000
  H   H54       1.0  0.47351  0.98483  0.18560  1.0000
  C   C76       1.0  0.55649  0.11058  0.29152  1.0000
  H   H55       1.0  0.54547  0.11349  0.23360  1.0000
  H   H56       1.0  0.57909  0.11706  0.27202  1.0000
  C   C77       1.0  0.03479  0.52051  0.28861  1.0000
  C   C78       1.0  0.06577  0.53649  0.29814  1.0000
  H   H57       1.0  0.07861  0.54051  0.24277  1.0000
  C   C79       1.0  0.92223  0.46297  0.31381  1.0000
  C   C80       1.0  0.94231  0.48096  0.24735  1.0000
  C   C81       1.0  0.97296  0.49763  0.26410  1.0000
  H   H58       1.0  0.93448  0.48173  0.18539  1.0000
  C   C82       1.0  0.99370  0.51454  0.19059  1.0000
  C   C83       1.0  0.02171  0.51172  0.19761  1.0000
  H   H59       1.0  0.99979  0.53774  0.19646  1.0000
  H   H60       1.0  0.98370  0.50669  0.12493  1.0000
  H   H61       1.0  0.03722  0.52539  0.14568  1.0000
  H   H62       1.0  0.01592  0.48883  0.18560  1.0000
  C   C84       1.0  0.89017  0.44607  0.29150  1.0000
  H   H63       1.0  0.88726  0.43213  0.23359  1.0000
  H   H64       1.0  0.88369  0.46219  0.27200  1.0000
  H   H65       1.0  0.16142  0.54620  0.27851  1.0000
  H   H66       1.0  0.21374  0.56636  0.29508  1.0000
  H   H67       1.0  0.38540  0.83934  0.27841  1.0000
  H   H68       1.0  0.45453  0.61534  0.27833  1.0000
  H   H69       1.0  0.83532  0.44220  0.44619  1.0000
  H   H70       1.0  0.78320  0.42249  0.42549  1.0000
  H   H71       1.0  0.60747  0.16543  0.44622  1.0000
  H   H72       1.0  0.55856  0.39328  0.44632  1.0000
  C   C85       1.0  0.45362  0.53221  0.38187  1.0000
  C   C86       1.0  0.45919  0.51920  0.45613  1.0000
  C   C87       1.0  0.47515  0.50400  0.44877  1.0000
  C   C88       1.0  0.48700  0.50242  0.36456  1.0000
  C   C89       1.0  0.50349  0.48734  0.35004  1.0000
  C   C90       1.0  0.52279  0.48646  0.41467  1.0000
  C   C91       1.0  0.53919  0.47240  0.39764  1.0000
  H   H73       1.0  0.52628  0.49716  0.47416  1.0000
  H   H74       1.0  0.55257  0.47227  0.44705  1.0000
  H   H75       1.0  0.45079  0.52008  0.51701  1.0000
  N   N7        1.0  0.47710  0.48872  0.52419  1.0000
  O   O1        1.0  0.48974  0.50576  0.58884  1.0000
  O   O2        1.0  0.45215  0.46860  0.54928  1.0000
  C   C92       1.0  0.43628  0.54748  0.39526  1.0000
  H   H76       1.0  0.44901  0.56604  0.44038  1.0000
  H   H77       1.0  0.41557  0.53216  0.42860  1.0000
  C   C93       1.0  0.46853  0.92156  0.38191  1.0000
  C   C94       1.0  0.48154  0.94015  0.45616  1.0000
  C   C95       1.0  0.49674  0.97131  0.44878  1.0000
  C   C96       1.0  0.49832  0.98473  0.36456  1.0000
  C   C97       1.0  0.51340  0.01630  0.35003  1.0000
  C   C98       1.0  0.51428  0.03648  0.41465  1.0000
  C   C99       1.0  0.52835  0.06695  0.39761  1.0000
  H   H78       1.0  0.50359  0.02927  0.47414  1.0000
  H   H79       1.0  0.52848  0.08046  0.44700  1.0000
  H   H80       1.0  0.48067  0.93087  0.51704  1.0000
  N   N8        1.0  0.51203  0.98853  0.52418  1.0000
  O   O3        1.0  0.49500  0.98415  0.58884  1.0000
  O   O4        1.0  0.53215  0.98371  0.54926  1.0000
  C   C100      1.0  0.45326  0.88895  0.39531  1.0000
  H   H81       1.0  0.43471  0.88312  0.44044  1.0000
  H   H82       1.0  0.46859  0.88357  0.42864  1.0000
  C   C101      1.0  0.07919  0.54712  0.38191  1.0000
  C   C102      1.0  0.06059  0.54155  0.45615  1.0000
  C   C103      1.0  0.02943  0.52558  0.44877  1.0000
  C   C104      1.0  0.01602  0.51374  0.36455  1.0000
  C   C105      1.0  0.98445  0.49725  0.35002  1.0000
  C   C106      1.0  0.96426  0.47795  0.41463  1.0000
  C   C107      1.0  0.93380  0.46155  0.39759  1.0000
  H   H83       1.0  0.97147  0.47446  0.47414  1.0000
  H   H84       1.0  0.92029  0.44817  0.44699  1.0000
  H   H85       1.0  0.06988  0.54995  0.51704  1.0000
  N   N9        1.0  0.01221  0.52364  0.52418  1.0000
  O   O5        1.0  0.01660  0.51099  0.58884  1.0000
  O   O6        1.0  0.01703  0.54858  0.54927  1.0000
  C   C108      1.0  0.11179  0.56445  0.39532  1.0000
  H   H86       1.0  0.11762  0.55173  0.44047  1.0000
  H   H87       1.0  0.11718  0.58517  0.42863  1.0000
