data_image0
_chemical_formula_structural       C2HC2HC2HNCHC2HC3HNCHNC3N2CHC2HNC4N2CHC4NC6H5C5H4C2H2C4HNCN2CH2C2NC6H5C7H4CHC3H2C4H2N2CN2CHC2HN2C7H4CHC5H4C2H2C4HNCN2CHCN2CHC2HCHN2C7H4CHC7H4CHC4H2C4H2N2CN2CHCN2CH
_chemical_formula_sum              "C128 H72 N32"
_cell_length_a       31.462
_cell_length_b       31.462
_cell_length_c       14.9079
_cell_angle_alpha    90
_cell_angle_beta     90
_cell_angle_gamma    90

_space_group_name_H-M_alt    "P 1"
_space_group_IT_number       1

loop_
  _space_group_symop_operation_xyz
  'x, y, z'

loop_
  _atom_site_type_symbol
  _atom_site_label
  _atom_site_symmetry_multiplicity
  _atom_site_fract_x
  _atom_site_fract_y
  _atom_site_fract_z
  _atom_site_occupancy
  C   C1        1.0  0.02505  0.04805  0.29588  1.0000
  C   C2        1.0  0.03508  0.00366  0.29701  1.0000
  H   H1        1.0  0.49454  0.05781  0.29539  1.0000
  C   C3        1.0  0.29385  0.03938  0.26696  1.0000
  C   C4        1.0  0.24816  0.03782  0.26348  1.0000
  H   H2        1.0  0.37966  0.02385  0.28014  1.0000
  C   C5        1.0  0.09851  0.06972  0.29660  1.0000
  C   C6        1.0  0.11106  0.02682  0.29600  1.0000
  H   H3        1.0  0.44832  0.01159  0.29856  1.0000
  N   N1        1.0  0.15351  0.02051  0.29093  1.0000
  C   C7        1.0  0.52505  0.04805  0.29588  1.0000
  H   H4        1.0  0.99454  0.05781  0.29539  1.0000
  C   C8        1.0  0.79384  0.03938  0.26696  1.0000
  C   C9        1.0  0.74816  0.03782  0.26348  1.0000
  H   H5        1.0  0.87967  0.02385  0.28014  1.0000
  C   C10       1.0  0.53508  0.00366  0.29701  1.0000
  C   C11       1.0  0.59851  0.06972  0.29660  1.0000
  C   C12       1.0  0.61106  0.02682  0.29600  1.0000
  H   H6        1.0  0.94832  0.01159  0.29856  1.0000
  N   N2        1.0  0.65351  0.02051  0.29093  1.0000
  C   C13       1.0  0.05548  0.08114  0.29552  1.0000
  H   H7        1.0  0.04202  0.41565  0.29474  1.0000
  N   N3        1.0  0.04637  0.12350  0.29223  1.0000
  C   C14       1.0  0.00517  0.18924  0.28173  1.0000
  C   C15       1.0  0.00888  0.14449  0.28526  1.0000
  C   C16       1.0  0.00796  0.27900  0.27967  1.0000
  N   N4        1.0  0.04233  0.25366  0.29272  1.0000
  N   N5        1.0  0.04121  0.21224  0.29326  1.0000
  C   C17       1.0  0.01659  0.32309  0.28709  1.0000
  H   H8        1.0  0.04728  0.33321  0.29516  1.0000
  C   C18       1.0  0.02505  0.54804  0.29588  1.0000
  C   C19       1.0  0.05548  0.58114  0.29552  1.0000
  H   H9        1.0  0.04202  0.91565  0.29474  1.0000
  N   N6        1.0  0.04637  0.62349  0.29223  1.0000
  C   C20       1.0  0.00517  0.68924  0.28173  1.0000
  C   C21       1.0  0.00888  0.64449  0.28526  1.0000
  C   C22       1.0  0.03508  0.50365  0.29701  1.0000
  C   C23       1.0  0.00796  0.77900  0.27967  1.0000
  N   N7        1.0  0.04233  0.75366  0.29272  1.0000
  N   N8        1.0  0.04121  0.71224  0.29326  1.0000
  C   C24       1.0  0.01659  0.82308  0.28709  1.0000
  H   H10       1.0  0.04728  0.83321  0.29516  1.0000
  C   C25       1.0  0.01158  0.42650  0.29631  1.0000
  C   C26       1.0  0.01158  0.92650  0.29631  1.0000
  C   C27       1.0  0.47936  0.39508  0.29563  1.0000
  C   C28       1.0  0.51158  0.42650  0.29631  1.0000
  N   N9        1.0  0.48568  0.35264  0.29033  1.0000
  C   C29       1.0  0.96678  0.21235  0.26604  1.0000
  C   C30       1.0  0.96835  0.25803  0.26263  1.0000
  C   C31       1.0  0.93051  0.28005  0.23878  1.0000
  C   C32       1.0  0.89202  0.25887  0.22344  1.0000
  C   C33       1.0  0.89025  0.21468  0.23051  1.0000
  C   C34       1.0  0.92716  0.19172  0.25079  1.0000
  H   H11       1.0  0.93000  0.31182  0.22752  1.0000
  H   H12       1.0  0.86542  0.27559  0.20561  1.0000
  H   H13       1.0  0.86232  0.19915  0.21819  1.0000
  H   H14       1.0  0.92399  0.15952  0.25253  1.0000
  H   H15       1.0  0.98228  0.12654  0.27932  1.0000
  C   C35       1.0  0.31694  0.00100  0.28276  1.0000
  C   C36       1.0  0.22616  0.07567  0.23955  1.0000
  C   C37       1.0  0.24736  0.11415  0.22420  1.0000
  C   C38       1.0  0.29154  0.11591  0.23134  1.0000
  C   C39       1.0  0.31449  0.07900  0.25170  1.0000
  H   H16       1.0  0.19439  0.07619  0.22833  1.0000
  H   H17       1.0  0.23065  0.14076  0.20643  1.0000
  H   H18       1.0  0.30708  0.14384  0.21918  1.0000
  H   H19       1.0  0.34669  0.08217  0.25363  1.0000
  C   C40       1.0  0.36169  0.99727  0.28632  1.0000
  C   C41       1.0  0.07966  0.99460  0.29683  1.0000
  H   H20       1.0  0.09052  0.46415  0.29598  1.0000
  H   H21       1.0  0.12110  0.09321  0.29524  1.0000
  C   C42       1.0  0.50250  0.47107  0.29714  1.0000
  C   C43       1.0  0.45811  0.48109  0.29709  1.0000
  C   C44       1.0  0.42502  0.45065  0.29628  1.0000
  C   C45       1.0  0.43646  0.40762  0.29661  1.0000
  H   H22       1.0  0.41297  0.38503  0.29513  1.0000
  N   N10       1.0  0.38267  0.45976  0.29314  1.0000
  C   C46       1.0  0.22717  0.99823  0.28058  1.0000
  N   N11       1.0  0.25251  0.96387  0.29374  1.0000
  N   N12       1.0  0.29392  0.96497  0.29433  1.0000
  C   C47       1.0  0.18309  0.98961  0.28797  1.0000
  H   H23       1.0  0.17297  0.95892  0.29608  1.0000
  H   H24       1.0  0.49454  0.55781  0.29539  1.0000
  C   C48       1.0  0.47936  0.89508  0.29563  1.0000
  C   C49       1.0  0.51158  0.92650  0.29631  1.0000
  N   N13       1.0  0.48568  0.85265  0.29033  1.0000
  C   C50       1.0  0.96678  0.71235  0.26604  1.0000
  C   C51       1.0  0.96835  0.75803  0.26263  1.0000
  C   C52       1.0  0.93051  0.78005  0.23878  1.0000
  C   C53       1.0  0.89202  0.75887  0.22344  1.0000
  C   C54       1.0  0.89025  0.71468  0.23051  1.0000
  C   C55       1.0  0.92716  0.69172  0.25079  1.0000
  H   H25       1.0  0.93000  0.81182  0.22752  1.0000
  H   H26       1.0  0.86542  0.77558  0.20561  1.0000
  H   H27       1.0  0.86232  0.69915  0.21819  1.0000
  H   H28       1.0  0.92399  0.65952  0.25253  1.0000
  H   H29       1.0  0.98228  0.62653  0.27932  1.0000
  C   C56       1.0  0.31694  0.50100  0.28276  1.0000
  C   C57       1.0  0.29385  0.53938  0.26696  1.0000
  C   C58       1.0  0.24816  0.53782  0.26348  1.0000
  C   C59       1.0  0.22616  0.57567  0.23955  1.0000
  C   C60       1.0  0.24736  0.61415  0.22420  1.0000
  C   C61       1.0  0.29154  0.61591  0.23134  1.0000
  C   C62       1.0  0.31449  0.57900  0.25170  1.0000
  H   H30       1.0  0.19439  0.57619  0.22833  1.0000
  H   H31       1.0  0.23065  0.64076  0.20643  1.0000
  H   H32       1.0  0.30708  0.64384  0.21918  1.0000
  H   H33       1.0  0.34669  0.58217  0.25363  1.0000
  C   C63       1.0  0.36169  0.49727  0.28632  1.0000
  H   H34       1.0  0.37966  0.52385  0.28014  1.0000
  C   C64       1.0  0.09851  0.56972  0.29660  1.0000
  C   C65       1.0  0.11106  0.52682  0.29600  1.0000
  C   C66       1.0  0.07966  0.49459  0.29683  1.0000
  H   H35       1.0  0.09052  0.96415  0.29598  1.0000
  H   H36       1.0  0.12110  0.59322  0.29524  1.0000
  C   C67       1.0  0.50250  0.97107  0.29714  1.0000
  C   C68       1.0  0.45811  0.98109  0.29709  1.0000
  C   C69       1.0  0.42502  0.95066  0.29628  1.0000
  C   C70       1.0  0.43646  0.90762  0.29661  1.0000
  H   H37       1.0  0.44832  0.51159  0.29856  1.0000
  H   H38       1.0  0.41297  0.88503  0.29513  1.0000
  N   N14       1.0  0.38267  0.95976  0.29314  1.0000
  N   N15       1.0  0.15351  0.52051  0.29093  1.0000
  C   C71       1.0  0.22717  0.49823  0.28058  1.0000
  N   N16       1.0  0.25251  0.46387  0.29374  1.0000
  N   N17       1.0  0.29392  0.46497  0.29433  1.0000
  C   C72       1.0  0.18309  0.48961  0.28797  1.0000
  H   H39       1.0  0.17297  0.45892  0.29608  1.0000
  C   C73       1.0  0.55547  0.08114  0.29552  1.0000
  C   C74       1.0  0.97936  0.39508  0.29563  1.0000
  H   H40       1.0  0.54202  0.41565  0.29474  1.0000
  N   N18       1.0  0.98568  0.35264  0.29033  1.0000
  N   N19       1.0  0.54637  0.12350  0.29223  1.0000
  C   C75       1.0  0.50517  0.18924  0.28173  1.0000
  C   C76       1.0  0.46679  0.21235  0.26604  1.0000
  C   C77       1.0  0.46836  0.25803  0.26263  1.0000
  C   C78       1.0  0.43051  0.28005  0.23878  1.0000
  C   C79       1.0  0.39202  0.25887  0.22344  1.0000
  C   C80       1.0  0.39025  0.21468  0.23051  1.0000
  C   C81       1.0  0.42716  0.19172  0.25079  1.0000
  H   H41       1.0  0.43000  0.31182  0.22752  1.0000
  H   H42       1.0  0.36542  0.27559  0.20561  1.0000
  H   H43       1.0  0.36232  0.19915  0.21819  1.0000
  H   H44       1.0  0.42399  0.15952  0.25253  1.0000
  C   C82       1.0  0.50888  0.14449  0.28526  1.0000
  H   H45       1.0  0.48228  0.12654  0.27932  1.0000
  C   C83       1.0  0.81694  0.00100  0.28276  1.0000
  C   C84       1.0  0.72616  0.07567  0.23955  1.0000
  C   C85       1.0  0.74736  0.11415  0.22420  1.0000
  C   C86       1.0  0.79154  0.11591  0.23134  1.0000
  C   C87       1.0  0.81449  0.07900  0.25170  1.0000
  H   H46       1.0  0.69439  0.07619  0.22833  1.0000
  H   H47       1.0  0.73065  0.14076  0.20643  1.0000
  H   H48       1.0  0.80708  0.14384  0.21918  1.0000
  H   H49       1.0  0.84668  0.08217  0.25363  1.0000
  C   C88       1.0  0.86169  0.99727  0.28632  1.0000
  C   C89       1.0  0.57966  0.99460  0.29683  1.0000
  H   H50       1.0  0.59052  0.46415  0.29598  1.0000
  H   H51       1.0  0.62110  0.09321  0.29524  1.0000
  C   C90       1.0  0.00250  0.47107  0.29714  1.0000
  C   C91       1.0  0.95811  0.48109  0.29709  1.0000
  C   C92       1.0  0.92502  0.45065  0.29628  1.0000
  C   C93       1.0  0.93646  0.40762  0.29661  1.0000
  H   H52       1.0  0.91297  0.38503  0.29513  1.0000
  N   N20       1.0  0.88267  0.45976  0.29314  1.0000
  C   C94       1.0  0.50796  0.27900  0.27967  1.0000
  N   N21       1.0  0.54233  0.25366  0.29272  1.0000
  N   N22       1.0  0.54121  0.21224  0.29326  1.0000
  C   C95       1.0  0.51659  0.32309  0.28709  1.0000
  H   H53       1.0  0.54728  0.33321  0.29516  1.0000
  C   C96       1.0  0.72717  0.99823  0.28058  1.0000
  N   N23       1.0  0.75251  0.96387  0.29374  1.0000
  N   N24       1.0  0.79392  0.96497  0.29433  1.0000
  C   C97       1.0  0.68309  0.98961  0.28797  1.0000
  H   H54       1.0  0.67297  0.95892  0.29608  1.0000
  C   C98       1.0  0.52505  0.54804  0.29588  1.0000
  C   C99       1.0  0.55547  0.58114  0.29552  1.0000
  H   H55       1.0  0.99454  0.55781  0.29539  1.0000
  C   C100      1.0  0.97936  0.89508  0.29563  1.0000
  H   H56       1.0  0.54202  0.91565  0.29474  1.0000
  N   N25       1.0  0.98568  0.85265  0.29033  1.0000
  N   N26       1.0  0.54637  0.62349  0.29223  1.0000
  C   C101      1.0  0.50517  0.68924  0.28173  1.0000
  C   C102      1.0  0.46679  0.71235  0.26604  1.0000
  C   C103      1.0  0.46836  0.75803  0.26263  1.0000
  C   C104      1.0  0.43051  0.78005  0.23878  1.0000
  C   C105      1.0  0.39202  0.75887  0.22344  1.0000
  C   C106      1.0  0.39025  0.71468  0.23051  1.0000
  C   C107      1.0  0.42716  0.69172  0.25079  1.0000
  H   H57       1.0  0.43000  0.81182  0.22752  1.0000
  H   H58       1.0  0.36542  0.77558  0.20561  1.0000
  H   H59       1.0  0.36232  0.69915  0.21819  1.0000
  H   H60       1.0  0.42399  0.65952  0.25253  1.0000
  C   C108      1.0  0.50888  0.64449  0.28526  1.0000
  H   H61       1.0  0.48228  0.62653  0.27932  1.0000
  C   C109      1.0  0.81694  0.50100  0.28276  1.0000
  C   C110      1.0  0.79384  0.53938  0.26696  1.0000
  C   C111      1.0  0.74816  0.53782  0.26348  1.0000
  C   C112      1.0  0.72616  0.57567  0.23955  1.0000
  C   C113      1.0  0.74736  0.61415  0.22420  1.0000
  C   C114      1.0  0.79154  0.61591  0.23134  1.0000
  C   C115      1.0  0.81449  0.57900  0.25170  1.0000
  H   H62       1.0  0.69439  0.57619  0.22833  1.0000
  H   H63       1.0  0.73065  0.64076  0.20643  1.0000
  H   H64       1.0  0.80708  0.64384  0.21918  1.0000
  H   H65       1.0  0.84668  0.58217  0.25363  1.0000
  C   C116      1.0  0.86169  0.49727  0.28632  1.0000
  H   H66       1.0  0.87967  0.52385  0.28014  1.0000
  C   C117      1.0  0.53508  0.50365  0.29701  1.0000
  C   C118      1.0  0.59851  0.56972  0.29660  1.0000
  C   C119      1.0  0.61106  0.52682  0.29600  1.0000
  C   C120      1.0  0.57966  0.49459  0.29683  1.0000
  H   H67       1.0  0.59052  0.96415  0.29598  1.0000
  H   H68       1.0  0.62110  0.59322  0.29524  1.0000
  C   C121      1.0  0.00250  0.97107  0.29714  1.0000
  C   C122      1.0  0.95811  0.98109  0.29709  1.0000
  C   C123      1.0  0.92502  0.95066  0.29628  1.0000
  C   C124      1.0  0.93646  0.90762  0.29661  1.0000
  H   H69       1.0  0.94832  0.51159  0.29856  1.0000
  H   H70       1.0  0.91297  0.88503  0.29513  1.0000
  N   N27       1.0  0.88267  0.95976  0.29314  1.0000
  N   N28       1.0  0.65351  0.52051  0.29093  1.0000
  C   C125      1.0  0.50796  0.77900  0.27967  1.0000
  N   N29       1.0  0.54233  0.75366  0.29272  1.0000
  N   N30       1.0  0.54121  0.71224  0.29326  1.0000
  C   C126      1.0  0.51659  0.82308  0.28709  1.0000
  H   H71       1.0  0.54728  0.83321  0.29516  1.0000
  C   C127      1.0  0.72717  0.49823  0.28058  1.0000
  N   N31       1.0  0.75251  0.46387  0.29374  1.0000
  N   N32       1.0  0.79392  0.46497  0.29433  1.0000
  C   C128      1.0  0.68309  0.48961  0.28797  1.0000
  H   H72       1.0  0.67297  0.45892  0.29608  1.0000
