data_image0
_chemical_formula_structural       NC3H3NC3H3CNCHC12H7NC12H8NC12H8CNCHCNCHNC3H3NC3H3CNCHCNCHNC6H5C6H4C6H4NC18H12CNCHNC3H3NC3H3
_chemical_formula_sum              "N16 C102 H72"
_cell_length_a       38.6371
_cell_length_b       38.637
_cell_length_c       14.7599
_cell_angle_alpha    90
_cell_angle_beta     90
_cell_angle_gamma    120

_space_group_name_H-M_alt    "P 1"
_space_group_IT_number       1

loop_
  _space_group_symop_operation_xyz
  'x, y, z'

loop_
  _atom_site_type_symbol
  _atom_site_label
  _atom_site_symmetry_multiplicity
  _atom_site_fract_x
  _atom_site_fract_y
  _atom_site_fract_z
  _atom_site_occupancy
  N   N1        1.0  0.23935  0.13073  0.27424  1.0000
  C   C1        1.0  0.19892  0.11145  0.26243  1.0000
  C   C2        1.0  0.17437  0.08775  0.33523  1.0000
  C   C3        1.0  0.18383  0.11896  0.17686  1.0000
  H   H1        1.0  0.20811  0.14236  0.13702  1.0000
  H   H2        1.0  0.16223  0.12857  0.19125  1.0000
  H   H3        1.0  0.16973  0.09198  0.13562  1.0000
  N   N2        1.0  0.90771  0.14405  0.29732  1.0000
  C   C4        1.0  0.93087  0.12675  0.28880  1.0000
  C   C5        1.0  0.91953  0.09093  0.33807  1.0000
  C   C6        1.0  0.96757  0.14841  0.23350  1.0000
  H   H4        1.0  0.97330  0.17828  0.21554  1.0000
  H   H5        1.0  0.96448  0.13235  0.17064  1.0000
  H   H6        1.0  0.99334  0.15175  0.27114  1.0000
  C   C7        1.0  0.62739  0.17940  0.34279  1.0000
  N   N3        1.0  0.58032  0.19820  0.29166  1.0000
  C   C8        1.0  0.61613  0.20014  0.28151  1.0000
  H   H7        1.0  0.63496  0.21818  0.23201  1.0000
  C   C9        1.0  0.04552  0.02392  0.34456  1.0000
  C   C10       1.0  0.98215  0.02467  0.34582  1.0000
  C   C11       1.0  0.96746  0.03281  0.42573  1.0000
  C   C12       1.0  0.94717  0.05469  0.42269  1.0000
  C   C13       1.0  0.94067  0.06912  0.33974  1.0000
  C   C14       1.0  0.95446  0.05959  0.25973  1.0000
  C   C15       1.0  0.97535  0.03835  0.26274  1.0000
  C   C16       1.0  0.06593  0.01987  0.26958  1.0000
  C   C17       1.0  0.10809  0.04054  0.26628  1.0000
  C   C18       1.0  0.13148  0.06662  0.33693  1.0000
  C   C19       1.0  0.11075  0.06992  0.41267  1.0000
  C   C20       1.0  0.06861  0.04903  0.41636  1.0000
  H   H8        1.0  0.12153  0.03534  0.21256  1.0000
  H   H9        1.0  0.05473  0.05227  0.47204  1.0000
  H   H10       1.0  0.12626  0.08810  0.46584  1.0000
  H   H11       1.0  0.97186  0.02313  0.48683  1.0000
  H   H12       1.0  0.93758  0.06047  0.48242  1.0000
  H   H13       1.0  0.98501  0.03220  0.20361  1.0000
  H   H14       1.0  0.94849  0.06707  0.19769  1.0000
  N   N4        1.0  0.43154  0.21716  0.35020  1.0000
  C   C21       1.0  0.38904  0.19575  0.35048  1.0000
  C   C22       1.0  0.45441  0.19767  0.35775  1.0000
  C   C23       1.0  0.47576  0.20138  0.43827  1.0000
  C   C24       1.0  0.50700  0.19258  0.43948  1.0000
  C   C25       1.0  0.51767  0.17939  0.36038  1.0000
  C   C26       1.0  0.49539  0.17461  0.28049  1.0000
  C   C27       1.0  0.46411  0.18342  0.27926  1.0000
  C   C28       1.0  0.36753  0.17757  0.43025  1.0000
  C   C29       1.0  0.32535  0.15613  0.43047  1.0000
  C   C30       1.0  0.30263  0.15161  0.35101  1.0000
  C   C31       1.0  0.32498  0.17033  0.27142  1.0000
  C   C32       1.0  0.36716  0.19193  0.27102  1.0000
  H   H15       1.0  0.47085  0.21368  0.49469  1.0000
  H   H16       1.0  0.52412  0.19941  0.49665  1.0000
  H   H17       1.0  0.38263  0.18009  0.48906  1.0000
  H   H18       1.0  0.31163  0.14416  0.49071  1.0000
  H   H19       1.0  0.31073  0.16828  0.21157  1.0000
  H   H20       1.0  0.38196  0.20467  0.21203  1.0000
  H   H21       1.0  0.45061  0.18250  0.21900  1.0000
  H   H22       1.0  0.50304  0.16647  0.22109  1.0000
  N   N5        1.0  0.78902  0.21701  0.35397  1.0000
  C   C33       1.0  0.74659  0.19771  0.34787  1.0000
  C   C34       1.0  0.80999  0.19541  0.35274  1.0000
  C   C35       1.0  0.72333  0.18788  0.42748  1.0000
  C   C36       1.0  0.68353  0.17985  0.42463  1.0000
  C   C37       1.0  0.66580  0.18216  0.34239  1.0000
  C   C38       1.0  0.68876  0.18995  0.26217  1.0000
  C   C39       1.0  0.72847  0.19770  0.26486  1.0000
  C   C40       1.0  0.80800  0.17147  0.42701  1.0000
  C   C41       1.0  0.82869  0.14997  0.42598  1.0000
  C   C42       1.0  0.85244  0.15165  0.35090  1.0000
  C   C43       1.0  0.85445  0.17612  0.27703  1.0000
  C   C44       1.0  0.83349  0.19734  0.27764  1.0000
  H   H23       1.0  0.66869  0.17530  0.48479  1.0000
  H   H24       1.0  0.73619  0.18947  0.48902  1.0000
  H   H25       1.0  0.74502  0.20606  0.20661  1.0000
  H   H26       1.0  0.67736  0.19156  0.20083  1.0000
  H   H27       1.0  0.79164  0.16983  0.48293  1.0000
  H   H28       1.0  0.82690  0.13379  0.48234  1.0000
  H   H29       1.0  0.87083  0.17831  0.22065  1.0000
  H   H30       1.0  0.83539  0.21420  0.22249  1.0000
  C   C45       1.0  0.25934  0.12956  0.34929  1.0000
  N   N6        1.0  0.19388  0.08669  0.41112  1.0000
  C   C46       1.0  0.23426  0.10592  0.42094  1.0000
  H   H31       1.0  0.24536  0.10238  0.48062  1.0000
  C   C47       1.0  0.87414  0.13031  0.34892  1.0000
  N   N7        1.0  0.88623  0.07728  0.39072  1.0000
  C   C48       1.0  0.86355  0.09499  0.39817  1.0000
  H   H32       1.0  0.83868  0.08176  0.43814  1.0000
  N   N8        1.0  0.60009  0.15798  0.40820  1.0000
  C   C49       1.0  0.56378  0.15530  0.41887  1.0000
  C   C50       1.0  0.55322  0.17679  0.35730  1.0000
  C   C51       1.0  0.53728  0.12878  0.49117  1.0000
  H   H33       1.0  0.54985  0.11190  0.52276  1.0000
  H   H34       1.0  0.50821  0.10748  0.46284  1.0000
  H   H35       1.0  0.53334  0.14620  0.54393  1.0000
  N   N9        1.0  0.89584  0.76630  0.28388  1.0000
  C   C52       1.0  0.91717  0.80670  0.27207  1.0000
  C   C53       1.0  0.91722  0.83130  0.34388  1.0000
  C   C54       1.0  0.94062  0.82173  0.18751  1.0000
  H   H36       1.0  0.94020  0.79743  0.14869  1.0000
  H   H37       1.0  0.97166  0.84340  0.20327  1.0000
  H   H38       1.0  0.92814  0.83575  0.14472  1.0000
  C   C55       1.0  0.82625  0.45054  0.34556  1.0000
  N   N10       1.0  0.80580  0.38386  0.29769  1.0000
  C   C56       1.0  0.80365  0.41761  0.28775  1.0000
  H   H39       1.0  0.78434  0.41772  0.24072  1.0000
  C   C57       1.0  0.55517  0.37883  0.34212  1.0000
  N   N11       1.0  0.62171  0.42607  0.29481  1.0000
  C   C58       1.0  0.58796  0.39029  0.28305  1.0000
  H   H40       1.0  0.58787  0.37169  0.23386  1.0000
  N   N12       1.0  0.00289  0.00281  0.34900  1.0000
  C   C59       1.0  0.98100  0.96013  0.34819  1.0000
  C   C60       1.0  0.98347  0.93790  0.42135  1.0000
  C   C61       1.0  0.96250  0.89570  0.41968  1.0000
  C   C62       1.0  0.93850  0.87416  0.34456  1.0000
  C   C63       1.0  0.93533  0.89668  0.27265  1.0000
  C   C64       1.0  0.95652  0.93882  0.27392  1.0000
  H   H41       1.0  0.05005  0.00131  0.21731  1.0000
  H   H42       1.0  0.00089  0.95248  0.47617  1.0000
  H   H43       1.0  0.96551  0.88075  0.47359  1.0000
  H   H44       1.0  0.91678  0.88262  0.21912  1.0000
  H   H45       1.0  0.95377  0.95397  0.22021  1.0000
  C   C65       1.0  0.45426  0.25952  0.34277  1.0000
  C   C66       1.0  0.46524  0.28338  0.42154  1.0000
  C   C67       1.0  0.49708  0.32318  0.41986  1.0000
  C   C68       1.0  0.51939  0.34045  0.33967  1.0000
  C   C69       1.0  0.50628  0.31698  0.25968  1.0000
  C   C70       1.0  0.47450  0.27721  0.26127  1.0000
  H   H46       1.0  0.50568  0.33839  0.47996  1.0000
  H   H47       1.0  0.45226  0.27083  0.48225  1.0000
  H   H48       1.0  0.46804  0.26025  0.20385  1.0000
  H   H49       1.0  0.52077  0.32796  0.19951  1.0000
  C   C71       1.0  0.80885  0.25950  0.35914  1.0000
  C   C72       1.0  0.80813  0.27795  0.44117  1.0000
  C   C73       1.0  0.81660  0.31791  0.44261  1.0000
  C   C74       1.0  0.82669  0.34096  0.36228  1.0000
  C   C75       1.0  0.82851  0.32263  0.28068  1.0000
  C   C76       1.0  0.81971  0.28258  0.27907  1.0000
  H   H50       1.0  0.79812  0.26133  0.49914  1.0000
  H   H51       1.0  0.81197  0.32876  0.50170  1.0000
  H   H52       1.0  0.81816  0.26943  0.21796  1.0000
  H   H53       1.0  0.83422  0.33770  0.22050  1.0000
  N   N13       1.0  0.78866  0.57428  0.35929  1.0000
  C   C77       1.0  0.80819  0.55152  0.35027  1.0000
  C   C78       1.0  0.80980  0.61677  0.35920  1.0000
  C   C79       1.0  0.74624  0.55148  0.36555  1.0000
  C   C80       1.0  0.72816  0.52959  0.44520  1.0000
  C   C81       1.0  0.68809  0.49842  0.44486  1.0000
  C   C82       1.0  0.66470  0.48847  0.36512  1.0000
  C   C83       1.0  0.68263  0.51136  0.28619  1.0000
  C   C84       1.0  0.72276  0.54254  0.28647  1.0000
  C   C85       1.0  0.82104  0.54011  0.42844  1.0000
  C   C86       1.0  0.82900  0.50828  0.42543  1.0000
  C   C87       1.0  0.82383  0.48639  0.34452  1.0000
  C   C88       1.0  0.81350  0.49991  0.26517  1.0000
  C   C89       1.0  0.80565  0.53177  0.26801  1.0000
  C   C90       1.0  0.81319  0.63831  0.43897  1.0000
  C   C91       1.0  0.83410  0.68049  0.43920  1.0000
  C   C92       1.0  0.85242  0.70315  0.35977  1.0000
  C   C93       1.0  0.84873  0.68078  0.28017  1.0000
  C   C94       1.0  0.82795  0.63860  0.27975  1.0000
  H   H54       1.0  0.83546  0.49923  0.48509  1.0000
  H   H55       1.0  0.82137  0.55271  0.48962  1.0000
  H   H56       1.0  0.79512  0.53853  0.21109  1.0000
  H   H57       1.0  0.80988  0.48563  0.20464  1.0000
  H   H58       1.0  0.74507  0.53403  0.50194  1.0000
  H   H59       1.0  0.67733  0.48096  0.50145  1.0000
  H   H60       1.0  0.80056  0.62324  0.49777  1.0000
  H   H61       1.0  0.83598  0.69427  0.49945  1.0000
  H   H62       1.0  0.86100  0.69501  0.22035  1.0000
  H   H63       1.0  0.82587  0.62378  0.22078  1.0000
  H   H64       1.0  0.73570  0.55648  0.22681  1.0000
  H   H65       1.0  0.66719  0.50415  0.22633  1.0000
  C   C95       1.0  0.87388  0.74641  0.35815  1.0000
  N   N14       1.0  0.89589  0.81192  0.41908  1.0000
  C   C96       1.0  0.87467  0.77155  0.42897  1.0000
  H   H66       1.0  0.85929  0.76045  0.48786  1.0000
  N   N15       1.0  0.84930  0.44545  0.40802  1.0000
  C   C97       1.0  0.85207  0.41185  0.41860  1.0000
  C   C98       1.0  0.82892  0.37897  0.36016  1.0000
  C   C99       1.0  0.88043  0.41278  0.48719  1.0000
  H   H67       1.0  0.89833  0.44270  0.51597  1.0000
  H   H68       1.0  0.90075  0.40430  0.45626  1.0000
  H   H69       1.0  0.86438  0.39237  0.54254  1.0000
  N   N16       1.0  0.56037  0.40594  0.40748  1.0000
  C   C100      1.0  0.59391  0.44219  0.41992  1.0000
  C   C101      1.0  0.62662  0.45295  0.36027  1.0000
  C   C102      1.0  0.59328  0.46842  0.49209  1.0000
  H   H70       1.0  0.56363  0.45563  0.52273  1.0000
  H   H71       1.0  0.60110  0.49753  0.46389  1.0000
  H   H72       1.0  0.61437  0.47234  0.54551  1.0000
