data_image0
_chemical_formula_structural       C15HCH3NHC3HCH3NHC3HCH3NHC3HCH3NHC3HCH3NHC3HCH3NHC3H2NHC3H2NHC3H2NHC3H2NHC3H2NHC3H2NHC3HCH3NHC3HCH3NHC3HCH3NHC3HCH3NHC3HCH3NHC3HCH3NHC5H3C2O3C5H3C2O3C5H3C2O3C5H3C2O3C5H3C2O3C5H3C2O3C6H3C3O3C6H3C3O3C6H3C3O3C6H3C3O3C6H3C3O3C6H3C3O3C3H2NHC3H2NHC3H2NHC3H2NHC3H2NHC3H2NHC3HCH3NHC3HCH3NHC3HCH3NHC3HCH3NHC3HCH3NHC3HCH3NHC3H2NHC3H2NHC3H2NHC3H2NHC3H2NHC3H2NH
_chemical_formula_sum              "C234 H180 N36 O36"
_cell_length_a       59.0511
_cell_length_b       59.0511
_cell_length_c       15.0794
_cell_angle_alpha    90
_cell_angle_beta     90
_cell_angle_gamma    120

_space_group_name_H-M_alt    "P 1"
_space_group_IT_number       1

loop_
  _space_group_symop_operation_xyz
  'x, y, z'

loop_
  _atom_site_type_symbol
  _atom_site_label
  _atom_site_symmetry_multiplicity
  _atom_site_fract_x
  _atom_site_fract_y
  _atom_site_fract_z
  _atom_site_occupancy
  C   C1        1.0  0.10158  0.44854  0.34114  1.0000
  C   C2        1.0  0.07642  0.42673  0.35655  1.0000
  C   C3        1.0  0.56379  0.67051  0.34153  1.0000
  C   C4        1.0  0.58562  0.66719  0.35716  1.0000
  C   C5        1.0  0.34152  0.91075  0.33903  1.0000
  C   C6        1.0  0.34465  0.93580  0.35499  1.0000
  C   C7        1.0  0.90300  0.57130  0.34062  1.0000
  C   C8        1.0  0.92811  0.59309  0.35701  1.0000
  C   C9        1.0  0.44091  0.34904  0.34001  1.0000
  C   C10       1.0  0.41909  0.35229  0.35643  1.0000
  C   C11       1.0  0.66303  0.10922  0.34259  1.0000
  C   C12       1.0  0.65968  0.08407  0.35830  1.0000
  C   C13       1.0  0.22611  0.43600  0.20844  1.0000
  C   C14       1.0  0.20363  0.43833  0.19621  1.0000
  C   C15       1.0  0.18779  0.43524  0.27111  1.0000
  H   H1        1.0  0.23848  0.43931  0.15629  1.0000
  C   C16       1.0  0.19785  0.44551  0.10805  1.0000
  H   H2        1.0  0.21194  0.44742  0.05754  1.0000
  H   H3        1.0  0.19824  0.46415  0.11262  1.0000
  H   H4        1.0  0.17847  0.43046  0.08613  1.0000
  N   N1        1.0  0.16816  0.44085  0.26750  1.0000
  H   H5        1.0  0.15246  0.42879  0.23480  1.0000
  C   C17       1.0  0.57614  0.80736  0.20673  1.0000
  C   C18       1.0  0.57384  0.78255  0.19490  1.0000
  C   C19       1.0  0.57703  0.76993  0.27000  1.0000
  H   H6        1.0  0.57277  0.81634  0.15443  1.0000
  C   C20       1.0  0.56661  0.76946  0.10698  1.0000
  H   H7        1.0  0.56463  0.78154  0.05626  1.0000
  H   H8        1.0  0.54799  0.75119  0.11188  1.0000
  H   H9        1.0  0.58166  0.76512  0.08510  1.0000
  N   N2        1.0  0.57145  0.74470  0.26689  1.0000
  H   H10       1.0  0.58347  0.74102  0.23415  1.0000
  C   C21       1.0  0.20466  0.78579  0.20715  1.0000
  C   C22       1.0  0.22943  0.80822  0.19384  1.0000
  C   C23       1.0  0.24233  0.82438  0.26797  1.0000
  H   H11       1.0  0.19548  0.77322  0.15557  1.0000
  C   C24       1.0  0.24221  0.81367  0.10542  1.0000
  H   H12       1.0  0.22993  0.79940  0.05553  1.0000
  H   H13       1.0  0.26047  0.81331  0.10995  1.0000
  H   H14       1.0  0.24650  0.83298  0.08268  1.0000
  N   N3        1.0  0.26756  0.84397  0.26349  1.0000
  H   H15       1.0  0.27108  0.85972  0.23135  1.0000
  C   C25       1.0  0.77827  0.58337  0.20712  1.0000
  C   C26       1.0  0.80081  0.58121  0.19392  1.0000
  C   C27       1.0  0.81712  0.58483  0.26795  1.0000
  H   H16       1.0  0.76561  0.57973  0.15562  1.0000
  C   C28       1.0  0.80624  0.57370  0.10578  1.0000
  H   H17       1.0  0.79188  0.57148  0.05590  1.0000
  H   H18       1.0  0.80599  0.55514  0.11094  1.0000
  H   H19       1.0  0.82548  0.58872  0.08263  1.0000
  N   N4        1.0  0.83668  0.57914  0.26389  1.0000
  H   H20       1.0  0.85259  0.59151  0.23284  1.0000
  C   C29       1.0  0.42908  0.21229  0.20787  1.0000
  C   C30       1.0  0.43124  0.23695  0.19367  1.0000
  C   C31       1.0  0.42741  0.24973  0.26693  1.0000
  H   H21       1.0  0.43283  0.20318  0.15692  1.0000
  C   C32       1.0  0.43892  0.24972  0.10533  1.0000
  H   H22       1.0  0.44124  0.23750  0.05606  1.0000
  H   H23       1.0  0.45747  0.26805  0.11053  1.0000
  H   H24       1.0  0.42394  0.25390  0.08134  1.0000
  N   N5        1.0  0.43316  0.27498  0.26207  1.0000
  H   H25       1.0  0.42057  0.27843  0.23214  1.0000
  C   C33       1.0  0.79985  0.23361  0.20710  1.0000
  C   C34       1.0  0.77507  0.21108  0.19523  1.0000
  C   C35       1.0  0.76249  0.19520  0.27025  1.0000
  H   H26       1.0  0.80880  0.24599  0.15485  1.0000
  C   C36       1.0  0.76194  0.20525  0.10737  1.0000
  H   H27       1.0  0.77399  0.21935  0.05669  1.0000
  H   H28       1.0  0.74366  0.20557  0.11244  1.0000
  H   H29       1.0  0.75762  0.18588  0.08532  1.0000
  N   N6        1.0  0.73726  0.17558  0.26721  1.0000
  H   H30       1.0  0.73357  0.15981  0.23489  1.0000
  C   C37       1.0  0.15428  0.61440  0.34470  1.0000
  C   C38       1.0  0.15697  0.57943  0.26725  1.0000
  C   C39       1.0  0.15657  0.60297  0.26545  1.0000
  H   H31       1.0  0.15785  0.57119  0.20856  1.0000
  H   H32       1.0  0.15688  0.61120  0.20541  1.0000
  N   N7        1.0  0.15261  0.63671  0.34025  1.0000
  H   H33       1.0  0.16232  0.64877  0.29223  1.0000
  C   C40       1.0  0.39783  0.55739  0.34420  1.0000
  C   C41       1.0  0.43293  0.59505  0.26720  1.0000
  C   C42       1.0  0.40937  0.57112  0.26510  1.0000
  H   H34       1.0  0.44125  0.60418  0.20860  1.0000
  H   H35       1.0  0.40119  0.56325  0.20497  1.0000
  N   N8        1.0  0.37552  0.53340  0.33950  1.0000
  H   H36       1.0  0.36349  0.53111  0.29144  1.0000
  C   C43       1.0  0.45472  0.85770  0.34396  1.0000
  C   C44       1.0  0.41737  0.85577  0.26685  1.0000
  C   C45       1.0  0.44117  0.85588  0.26478  1.0000
  H   H37       1.0  0.40835  0.85517  0.20822  1.0000
  H   H38       1.0  0.44907  0.85561  0.20465  1.0000
  N   N9        1.0  0.47860  0.85911  0.33936  1.0000
  H   H39       1.0  0.48086  0.84946  0.29099  1.0000
  C   C46       1.0  0.84964  0.40518  0.34399  1.0000
  C   C47       1.0  0.84744  0.44040  0.26650  1.0000
  C   C48       1.0  0.84762  0.41675  0.26471  1.0000
  H   H40       1.0  0.84673  0.44872  0.20779  1.0000
  H   H41       1.0  0.84730  0.40851  0.20467  1.0000
  N   N10       1.0  0.85114  0.38276  0.33962  1.0000
  H   H42       1.0  0.84144  0.37075  0.29150  1.0000
  C   C49       1.0  0.60694  0.46206  0.34435  1.0000
  C   C50       1.0  0.57176  0.42468  0.26652  1.0000
  C   C51       1.0  0.59540  0.44853  0.26494  1.0000
  H   H43       1.0  0.56345  0.41570  0.20773  1.0000
  H   H44       1.0  0.60363  0.45652  0.20497  1.0000
  N   N11       1.0  0.62935  0.48598  0.34022  1.0000
  H   H45       1.0  0.64137  0.48833  0.29205  1.0000
  C   C52       1.0  0.54988  0.16186  0.34515  1.0000
  C   C53       1.0  0.58756  0.16462  0.26766  1.0000
  C   C54       1.0  0.56360  0.16418  0.26590  1.0000
  H   H46       1.0  0.59669  0.16554  0.20896  1.0000
  H   H47       1.0  0.55569  0.16453  0.20588  1.0000
  N   N12       1.0  0.52590  0.16021  0.34077  1.0000
  H   H48       1.0  0.52352  0.16993  0.29287  1.0000
  C   C55       1.0  0.98495  0.37769  0.27711  1.0000
  C   C56       1.0  0.01186  0.39333  0.25782  1.0000
  C   C57       1.0  0.02975  0.40531  0.32902  1.0000
  H   H49       1.0  0.97203  0.37095  0.22547  1.0000
  C   C58       1.0  0.02081  0.39732  0.16388  1.0000
  H   H50       1.0  0.00508  0.38531  0.11776  1.0000
  H   H51       1.0  0.03609  0.39218  0.15604  1.0000
  H   H52       1.0  0.02864  0.41773  0.14505  1.0000
  N   N13       1.0  0.05506  0.42420  0.31343  1.0000
  H   H53       1.0  0.05775  0.43714  0.26833  1.0000
  C   C59       1.0  0.63472  0.62474  0.27906  1.0000
  C   C60       1.0  0.61903  0.63593  0.25945  1.0000
  C   C61       1.0  0.60704  0.64190  0.33044  1.0000
  H   H54       1.0  0.64148  0.61851  0.22760  1.0000
  C   C62       1.0  0.61503  0.64077  0.16538  1.0000
  H   H55       1.0  0.62706  0.63703  0.11941  1.0000
  H   H56       1.0  0.62013  0.66117  0.15722  1.0000
  H   H57       1.0  0.59463  0.62815  0.14660  1.0000
  N   N14       1.0  0.58813  0.64827  0.31458  1.0000
  H   H58       1.0  0.57520  0.63797  0.26952  1.0000
  C   C63       1.0  0.38693  0.02752  0.27939  1.0000
  C   C64       1.0  0.37583  0.00069  0.25904  1.0000
  C   C65       1.0  0.36982  0.98256  0.32953  1.0000
  H   H59       1.0  0.39327  0.04062  0.22828  1.0000
  C   C66       1.0  0.37112  0.99207  0.16475  1.0000
  H   H60       1.0  0.37488  0.00793  0.11921  1.0000
  H   H61       1.0  0.35075  0.97675  0.15616  1.0000
  H   H62       1.0  0.38381  0.98438  0.14576  1.0000
  N   N15       1.0  0.36357  0.95735  0.31297  1.0000
  H   H63       1.0  0.37401  0.95488  0.26804  1.0000
  C   C67       1.0  0.01972  0.64258  0.28043  1.0000
  C   C68       1.0  0.99288  0.62674  0.26047  1.0000
  C   C69       1.0  0.97486  0.61464  0.33125  1.0000
  H   H64       1.0  0.03276  0.64934  0.22913  1.0000
  C   C70       1.0  0.98414  0.62271  0.16629  1.0000
  H   H65       1.0  0.99994  0.63481  0.12052  1.0000
  H   H66       1.0  0.96876  0.62767  0.15783  1.0000
  H   H67       1.0  0.97651  0.60232  0.14750  1.0000
  N   N16       1.0  0.94963  0.59566  0.31501  1.0000
  H   H68       1.0  0.94713  0.58274  0.27006  1.0000
  C   C71       1.0  0.36966  0.39445  0.27915  1.0000
  C   C72       1.0  0.38542  0.38335  0.25937  1.0000
  C   C73       1.0  0.39749  0.37744  0.33026  1.0000
  H   H69       1.0  0.36293  0.40072  0.22775  1.0000
  C   C74       1.0  0.38941  0.37855  0.16525  1.0000
  H   H70       1.0  0.37731  0.38223  0.11940  1.0000
  H   H71       1.0  0.38440  0.35818  0.15702  1.0000
  H   H72       1.0  0.40980  0.39125  0.14636  1.0000
  N   N17       1.0  0.41647  0.37117  0.31413  1.0000
  H   H73       1.0  0.42937  0.38156  0.26912  1.0000
  C   C75       1.0  0.61747  0.99264  0.27866  1.0000
  C   C76       1.0  0.62860  0.01955  0.25953  1.0000
  C   C77       1.0  0.63447  0.03739  0.33086  1.0000
  H   H74       1.0  0.61126  0.97974  0.22698  1.0000
  C   C78       1.0  0.63348  0.02853  0.16562  1.0000
  H   H75       1.0  0.62982  0.01285  0.11938  1.0000
  H   H76       1.0  0.65386  0.04389  0.15770  1.0000
  H   H77       1.0  0.62080  0.03628  0.14700  1.0000
  N   N18       1.0  0.64080  0.06268  0.31544  1.0000
  H   H78       1.0  0.63052  0.06534  0.27037  1.0000
  C   C79       1.0  0.14855  0.46661  0.31449  1.0000
  C   C80       1.0  0.15175  0.49195  0.30989  1.0000
  C   C81       1.0  0.13021  0.49598  0.31928  1.0000
  C   C82       1.0  0.10523  0.47401  0.33408  1.0000
  C   C83       1.0  0.12345  0.44518  0.33221  1.0000
  H   H79       1.0  0.08954  0.47671  0.34313  1.0000
  H   H80       1.0  0.12096  0.42679  0.33828  1.0000
  H   H81       1.0  0.16985  0.50756  0.29623  1.0000
  C   C84       1.0  0.17024  0.46275  0.30532  1.0000
  C   C85       1.0  0.13318  0.52131  0.31222  1.0000
  O   O1        1.0  0.07433  0.40703  0.40841  1.0000
  O   O2        1.0  0.19344  0.48125  0.33944  1.0000
  O   O3        1.0  0.11313  0.52316  0.27603  1.0000
  C   C86       1.0  0.54571  0.69938  0.31440  1.0000
  C   C87       1.0  0.52036  0.67722  0.31001  1.0000
  C   C88       1.0  0.51635  0.65166  0.31965  1.0000
  C   C89       1.0  0.53833  0.64868  0.33460  1.0000
  C   C90       1.0  0.56714  0.69573  0.33226  1.0000
  H   H82       1.0  0.53563  0.63030  0.34388  1.0000
  H   H83       1.0  0.58553  0.71164  0.33822  1.0000
  H   H84       1.0  0.50475  0.67969  0.29617  1.0000
  C   C91       1.0  0.54955  0.72491  0.30489  1.0000
  C   C92       1.0  0.49102  0.62929  0.31266  1.0000
  O   O4        1.0  0.60530  0.68485  0.40896  1.0000
  O   O5        1.0  0.53106  0.72965  0.33883  1.0000
  O   O6        1.0  0.48919  0.60739  0.27658  1.0000
  C   C93       1.0  0.31290  0.86378  0.31113  1.0000
  C   C94       1.0  0.33517  0.86075  0.30739  1.0000
  C   C95       1.0  0.36064  0.88238  0.31775  1.0000
  C   C96       1.0  0.36346  0.90727  0.33268  1.0000
  C   C97       1.0  0.31637  0.88879  0.32911  1.0000
  H   H85       1.0  0.38177  0.92300  0.34249  1.0000
  H   H86       1.0  0.30039  0.89116  0.33478  1.0000
  H   H87       1.0  0.33284  0.84273  0.29362  1.0000
  C   C98       1.0  0.28745  0.84199  0.30129  1.0000
  C   C99       1.0  0.38311  0.87956  0.31166  1.0000
  O   O7        1.0  0.32683  0.93761  0.40660  1.0000
  O   O8        1.0  0.28283  0.81880  0.33525  1.0000
  O   O9        1.0  0.40505  0.89968  0.27605  1.0000
  C   C100      1.0  0.85614  0.55328  0.31154  1.0000
  C   C101      1.0  0.85296  0.52793  0.30743  1.0000
  C   C102      1.0  0.87444  0.52388  0.31818  1.0000
  C   C103      1.0  0.89937  0.54583  0.33389  1.0000
  C   C104      1.0  0.88118  0.57468  0.33031  1.0000
  H   H88       1.0  0.91501  0.54310  0.34393  1.0000
  H   H89       1.0  0.88366  0.59306  0.33622  1.0000
  H   H90       1.0  0.83491  0.51232  0.29308  1.0000
  C   C105      1.0  0.83448  0.55713  0.30118  1.0000
  C   C106      1.0  0.87148  0.49854  0.31170  1.0000
  O   O10       1.0  0.92999  0.61276  0.40856  1.0000
  O   O11       1.0  0.81111  0.53849  0.33385  1.0000
  O   O12       1.0  0.89156  0.49664  0.27618  1.0000
  C   C107      1.0  0.45900  0.32030  0.31005  1.0000
  C   C108      1.0  0.48433  0.34251  0.30608  1.0000
  C   C109      1.0  0.48832  0.36801  0.31736  1.0000
  C   C110      1.0  0.46635  0.37092  0.33338  1.0000
  C   C111      1.0  0.43757  0.32386  0.32927  1.0000
  H   H91       1.0  0.46904  0.38925  0.34374  1.0000
  H   H92       1.0  0.41921  0.30793  0.33512  1.0000
  H   H93       1.0  0.49996  0.34014  0.29146  1.0000
  C   C112      1.0  0.45522  0.29483  0.29907  1.0000
  C   C113      1.0  0.51364  0.39042  0.31105  1.0000
  O   O13       1.0  0.39945  0.33451  0.40809  1.0000
  O   O14       1.0  0.47392  0.29012  0.33117  1.0000
  O   O15       1.0  0.51549  0.41242  0.27583  1.0000
  C   C114      1.0  0.69195  0.15614  0.31481  1.0000
  C   C115      1.0  0.66981  0.15935  0.31030  1.0000
  C   C116      1.0  0.64425  0.13784  0.32014  1.0000
  C   C117      1.0  0.64122  0.11288  0.33547  1.0000
  C   C118      1.0  0.68827  0.13106  0.33310  1.0000
  H   H94       1.0  0.62284  0.09723  0.34490  1.0000
  H   H95       1.0  0.70416  0.12855  0.33912  1.0000
  H   H96       1.0  0.67230  0.17742  0.29610  1.0000
  C   C119      1.0  0.71749  0.17778  0.30497  1.0000
  C   C120      1.0  0.62188  0.14081  0.31302  1.0000
  O   O16       1.0  0.67732  0.08201  0.41009  1.0000
  O   O17       1.0  0.72227  0.20108  0.33838  1.0000
  O   O18       1.0  0.60000  0.12076  0.27681  1.0000
  C   C121      1.0  0.45050  0.15649  0.32288  1.0000
  C   C122      1.0  0.47527  0.15995  0.34560  1.0000
  C   C123      1.0  0.47873  0.13855  0.36644  1.0000
  C   C124      1.0  0.45642  0.11327  0.36654  1.0000
  C   C125      1.0  0.43124  0.10900  0.34505  1.0000
  C   C126      1.0  0.42881  0.13084  0.32206  1.0000
  H   H97       1.0  0.45889  0.09752  0.37706  1.0000
  H   H98       1.0  0.41093  0.12789  0.30252  1.0000
  H   H99       1.0  0.49108  0.17847  0.34783  1.0000
  C   C127      1.0  0.44779  0.17820  0.29733  1.0000
  C   C128      1.0  0.40936  0.08323  0.33840  1.0000
  C   C129      1.0  0.50401  0.14204  0.38421  1.0000
  O   O19       1.0  0.38986  0.07899  0.28146  1.0000
  O   O20       1.0  0.46910  0.19931  0.26276  1.0000
  O   O21       1.0  0.50531  0.12404  0.43647  1.0000
  C   C130      1.0  0.70071  0.56160  0.32058  1.0000
  C   C131      1.0  0.67954  0.53679  0.34378  1.0000
  C   C132      1.0  0.65465  0.53319  0.36509  1.0000
  C   C133      1.0  0.65152  0.55540  0.36511  1.0000
  C   C134      1.0  0.67227  0.58061  0.34319  1.0000
  C   C135      1.0  0.69658  0.58318  0.31971  1.0000
  H   H100      1.0  0.63327  0.55283  0.37600  1.0000
  H   H101      1.0  0.71140  0.60108  0.29992  1.0000
  H   H102      1.0  0.68237  0.52106  0.34605  1.0000
  C   C136      1.0  0.72517  0.56446  0.29489  1.0000
  C   C137      1.0  0.66822  0.60239  0.33666  1.0000
  C   C138      1.0  0.63299  0.50787  0.38342  1.0000
  O   O22       1.0  0.68332  0.62190  0.27953  1.0000
  O   O23       1.0  0.72511  0.54321  0.26043  1.0000
  O   O24       1.0  0.61370  0.50654  0.43587  1.0000
  C   C139      1.0  0.85570  0.31155  0.31874  1.0000
  C   C140      1.0  0.85197  0.33264  0.34229  1.0000
  C   C141      1.0  0.87321  0.35756  0.36358  1.0000
  C   C142      1.0  0.89861  0.36081  0.36302  1.0000
  C   C143      1.0  0.90315  0.34013  0.34086  1.0000
  C   C144      1.0  0.88146  0.31579  0.31746  1.0000
  H   H103      1.0  0.91424  0.37907  0.37408  1.0000
  H   H104      1.0  0.88459  0.30102  0.29752  1.0000
  H   H105      1.0  0.83338  0.32972  0.34493  1.0000
  C   C145      1.0  0.83414  0.28701  0.29344  1.0000
  C   C146      1.0  0.92901  0.34427  0.33416  1.0000
  C   C147      1.0  0.86946  0.37913  0.38246  1.0000
  O   O25       1.0  0.93345  0.32919  0.27705  1.0000
  O   O26       1.0  0.81285  0.28694  0.25929  1.0000
  O   O27       1.0  0.88746  0.39844  0.43469  1.0000
  C   C148      1.0  0.55426  0.86344  0.31790  1.0000
  C   C149      1.0  0.52946  0.85977  0.34143  1.0000
  C   C150      1.0  0.52587  0.88103  0.36329  1.0000
  C   C151      1.0  0.54807  0.90638  0.36333  1.0000
  C   C152      1.0  0.57328  0.91087  0.34118  1.0000
  C   C153      1.0  0.57584  0.88916  0.31717  1.0000
  H   H106      1.0  0.54551  0.92204  0.37482  1.0000
  H   H107      1.0  0.59374  0.89225  0.29735  1.0000
  H   H108      1.0  0.51374  0.84119  0.34373  1.0000
  C   C154      1.0  0.55716  0.84186  0.29228  1.0000
  C   C155      1.0  0.59507  0.93670  0.33508  1.0000
  C   C156      1.0  0.50057  0.87735  0.38227  1.0000
  O   O28       1.0  0.61459  0.94119  0.27790  1.0000
  O   O29       1.0  0.53593  0.82065  0.25779  1.0000
  O   O30       1.0  0.49931  0.89528  0.43502  1.0000
  C   C157      1.0  0.30400  0.45784  0.31985  1.0000
  C   C158      1.0  0.32521  0.48264  0.34283  1.0000
  C   C159      1.0  0.35007  0.48618  0.36431  1.0000
  C   C160      1.0  0.35312  0.46392  0.36459  1.0000
  C   C161      1.0  0.33231  0.43871  0.34297  1.0000
  C   C162      1.0  0.30804  0.43620  0.31932  1.0000
  H   H109      1.0  0.37133  0.46643  0.37580  1.0000
  H   H110      1.0  0.29317  0.41830  0.29979  1.0000
  H   H111      1.0  0.32243  0.49840  0.34497  1.0000
  C   C163      1.0  0.27953  0.45500  0.29436  1.0000
  C   C164      1.0  0.33626  0.41686  0.33684  1.0000
  C   C165      1.0  0.37176  0.51147  0.38270  1.0000
  O   O31       1.0  0.32108  0.39729  0.27999  1.0000
  O   O32       1.0  0.27960  0.47622  0.25958  1.0000
  O   O33       1.0  0.39101  0.51277  0.43528  1.0000
  C   C166      1.0  0.14871  0.70830  0.32109  1.0000
  C   C167      1.0  0.15227  0.68706  0.34411  1.0000
  C   C168      1.0  0.13094  0.66223  0.36572  1.0000
  C   C169      1.0  0.10564  0.65922  0.36618  1.0000
  C   C170      1.0  0.10127  0.68005  0.34459  1.0000
  C   C171      1.0  0.12304  0.70430  0.32078  1.0000
  H   H112      1.0  0.08994  0.64102  0.37744  1.0000
  H   H113      1.0  0.12003  0.71917  0.30118  1.0000
  H   H114      1.0  0.17080  0.68982  0.34607  1.0000
  C   C172      1.0  0.17035  0.73270  0.29508  1.0000
  C   C173      1.0  0.07548  0.67612  0.33848  1.0000
  C   C174      1.0  0.13452  0.64051  0.38389  1.0000
  O   O34       1.0  0.07108  0.69126  0.28151  1.0000
  O   O35       1.0  0.19140  0.73249  0.25998  1.0000
  O   O36       1.0  0.11655  0.62124  0.43632  1.0000
  C   C175      1.0  0.23286  0.43088  0.29304  1.0000
  C   C176      1.0  0.19354  0.42834  0.35429  1.0000
  C   C177      1.0  0.21583  0.42600  0.36509  1.0000
  H   H115      1.0  0.18224  0.42629  0.40852  1.0000
  H   H116      1.0  0.22055  0.42258  0.42705  1.0000
  N   N19       1.0  0.25637  0.43248  0.30768  1.0000
  H   H117      1.0  0.25621  0.41918  0.34647  1.0000
  C   C178      1.0  0.58133  0.81937  0.29110  1.0000
  C   C179      1.0  0.58397  0.78270  0.35298  1.0000
  C   C180      1.0  0.58632  0.80735  0.36334  1.0000
  H   H118      1.0  0.58607  0.77354  0.40737  1.0000
  H   H119      1.0  0.58974  0.81556  0.42518  1.0000
  N   N20       1.0  0.57972  0.84128  0.30541  1.0000
  H   H120      1.0  0.59304  0.85447  0.34398  1.0000
  C   C181      1.0  0.19297  0.77938  0.29207  1.0000
  C   C182      1.0  0.22986  0.81896  0.35144  1.0000
  C   C183      1.0  0.20524  0.79671  0.36329  1.0000
  H   H121      1.0  0.23923  0.83047  0.40514  1.0000
  H   H122      1.0  0.19726  0.79222  0.42550  1.0000
  N   N21       1.0  0.17110  0.75594  0.30790  1.0000
  H   H123      1.0  0.15802  0.75614  0.34684  1.0000
  C   C184      1.0  0.77189  0.58881  0.29184  1.0000
  C   C185      1.0  0.81172  0.59204  0.35116  1.0000
  C   C186      1.0  0.78938  0.59424  0.36289  1.0000
  H   H124      1.0  0.82331  0.59437  0.40484  1.0000
  H   H125      1.0  0.78491  0.59782  0.42501  1.0000
  N   N22       1.0  0.74835  0.58699  0.30780  1.0000
  H   H126      1.0  0.74848  0.60036  0.34613  1.0000
  C   C187      1.0  0.42350  0.20064  0.29288  1.0000
  C   C188      1.0  0.41999  0.23727  0.35033  1.0000
  C   C189      1.0  0.41790  0.21280  0.36312  1.0000
  H   H127      1.0  0.41760  0.24664  0.40354  1.0000
  H   H128      1.0  0.41418  0.20486  0.42541  1.0000
  N   N23       1.0  0.42530  0.17894  0.30983  1.0000
  H   H129      1.0  0.41188  0.16578  0.34821  1.0000
  C   C190      1.0  0.81187  0.24039  0.29145  1.0000
  C   C191      1.0  0.77529  0.20100  0.35316  1.0000
  C   C192      1.0  0.79992  0.22333  0.36358  1.0000
  H   H130      1.0  0.76614  0.18971  0.40752  1.0000
  H   H131      1.0  0.80812  0.22809  0.42543  1.0000
  N   N24       1.0  0.83377  0.26394  0.30575  1.0000
  H   H132      1.0  0.84698  0.26386  0.34434  1.0000
  C   C193      1.0  0.15406  0.60242  0.42617  1.0000
  C   C194      1.0  0.15455  0.57871  0.42945  1.0000
  C   C195      1.0  0.15547  0.56685  0.34848  1.0000
  H   H133      1.0  0.15333  0.61108  0.48400  1.0000
  C   C196      1.0  0.15285  0.56604  0.51632  1.0000
  H   H134      1.0  0.15138  0.57704  0.57200  1.0000
  H   H135      1.0  0.17026  0.56436  0.52634  1.0000
  H   H136      1.0  0.13561  0.54650  0.51749  1.0000
  N   N25       1.0  0.15416  0.54307  0.34627  1.0000
  H   H137      1.0  0.16641  0.54091  0.38361  1.0000
  C   C197      1.0  0.40973  0.56909  0.42583  1.0000
  C   C198      1.0  0.43346  0.59326  0.42941  1.0000
  C   C199      1.0  0.44544  0.60607  0.34859  1.0000
  H   H138      1.0  0.40099  0.55967  0.48355  1.0000
  C   C200      1.0  0.44605  0.60417  0.51644  1.0000
  H   H139      1.0  0.43496  0.59170  0.57199  1.0000
  H   H140      1.0  0.44778  0.62328  0.52643  1.0000
  H   H141      1.0  0.46555  0.60639  0.51789  1.0000
  N   N26       1.0  0.46926  0.62848  0.34673  1.0000
  H   H142      1.0  0.47137  0.64294  0.38371  1.0000
  C   C201      1.0  0.44298  0.85780  0.42559  1.0000
  C   C202      1.0  0.41893  0.85762  0.42912  1.0000
  C   C203      1.0  0.40630  0.85716  0.34827  1.0000
  H   H143      1.0  0.45228  0.85824  0.48332  1.0000
  C   C204      1.0  0.40797  0.85918  0.51619  1.0000
  H   H144      1.0  0.42030  0.86028  0.57179  1.0000
  H   H145      1.0  0.38876  0.84188  0.52562  1.0000
  H   H146      1.0  0.40593  0.87657  0.51819  1.0000
  N   N27       1.0  0.38398  0.85872  0.34653  1.0000
  H   H147      1.0  0.36938  0.84627  0.38286  1.0000
  C   C205      1.0  0.84986  0.41714  0.42547  1.0000
  C   C206      1.0  0.84959  0.44097  0.42874  1.0000
  C   C207      1.0  0.84891  0.45296  0.34777  1.0000
  H   H148      1.0  0.85044  0.40839  0.48330  1.0000
  C   C208      1.0  0.85128  0.45362  0.51564  1.0000
  H   H149      1.0  0.85253  0.44251  0.57135  1.0000
  H   H150      1.0  0.83396  0.45548  0.52533  1.0000
  H   H151      1.0  0.86863  0.47308  0.51711  1.0000
  N   N28       1.0  0.85043  0.47683  0.34562  1.0000
  H   H152      1.0  0.83804  0.47899  0.38220  1.0000
  C   C209      1.0  0.59497  0.45021  0.42574  1.0000
  C   C210      1.0  0.57116  0.42610  0.42878  1.0000
  C   C211      1.0  0.55920  0.41350  0.34769  1.0000
  H   H153      1.0  0.60370  0.45949  0.48365  1.0000
  C   C212      1.0  0.55850  0.41503  0.51559  1.0000
  H   H154      1.0  0.56959  0.42734  0.57142  1.0000
  H   H155      1.0  0.55665  0.39585  0.52499  1.0000
  H   H156      1.0  0.53903  0.41291  0.51714  1.0000
  N   N29       1.0  0.53533  0.39116  0.34542  1.0000
  H   H157      1.0  0.53319  0.37653  0.38157  1.0000
  C   C213      1.0  0.56164  0.16163  0.42661  1.0000
  C   C214      1.0  0.58586  0.16216  0.42985  1.0000
  C   C215      1.0  0.59866  0.16313  0.34887  1.0000
  H   H158      1.0  0.55224  0.16089  0.48446  1.0000
  C   C216      1.0  0.59684  0.16046  0.51670  1.0000
  H   H159      1.0  0.58437  0.15897  0.57240  1.0000
  H   H160      1.0  0.61592  0.17788  0.52674  1.0000
  H   H161      1.0  0.59916  0.14323  0.51781  1.0000
  N   N30       1.0  0.62113  0.16185  0.34665  1.0000
  H   H162      1.0  0.63558  0.17412  0.38386  1.0000
  C   C217      1.0  0.97533  0.37345  0.36512  1.0000
  C   C218      1.0  0.02032  0.40061  0.41716  1.0000
  C   C219      1.0  0.99354  0.38495  0.43482  1.0000
  H   H163      1.0  0.03262  0.41015  0.46899  1.0000
  H   H164      1.0  0.98723  0.38317  0.49903  1.0000
  N   N31       1.0  0.94918  0.36251  0.38368  1.0000
  H   H165      1.0  0.94471  0.36970  0.43463  1.0000
  C   C220      1.0  0.63896  0.61946  0.36722  1.0000
  C   C221      1.0  0.61174  0.63726  0.41870  1.0000
  C   C222      1.0  0.62748  0.62627  0.43673  1.0000
  H   H166      1.0  0.60222  0.64012  0.47039  1.0000
  H   H167      1.0  0.62927  0.62181  0.50101  1.0000
  N   N32       1.0  0.64999  0.60434  0.38611  1.0000
  H   H168      1.0  0.64275  0.59267  0.43701  1.0000
  C   C223      1.0  0.39215  0.03683  0.36780  1.0000
  C   C224      1.0  0.37436  0.99169  0.41803  1.0000
  C   C225      1.0  0.38532  0.01839  0.43678  1.0000
  H   H169      1.0  0.37149  0.97920  0.46938  1.0000
  H   H170      1.0  0.38974  0.02448  0.50121  1.0000
  N   N33       1.0  0.40733  0.06293  0.38731  1.0000
  H   H171      1.0  0.41902  0.06723  0.43812  1.0000
  C   C226      1.0  0.02915  0.64682  0.36871  1.0000
  C   C227      1.0  0.98409  0.61937  0.41963  1.0000
  C   C228      1.0  0.01080  0.63522  0.43797  1.0000
  H   H172      1.0  0.97167  0.60980  0.47117  1.0000
  H   H173      1.0  0.01699  0.63701  0.50233  1.0000
  N   N34       1.0  0.05528  0.65787  0.38785  1.0000
  H   H174      1.0  0.05969  0.65059  0.43866  1.0000
  C   C229      1.0  0.36547  0.39974  0.36736  1.0000
  C   C230      1.0  0.39280  0.38203  0.41857  1.0000
  C   C231      1.0  0.37703  0.39299  0.43673  1.0000
  H   H175      1.0  0.40234  0.37917  0.47020  1.0000
  H   H176      1.0  0.37524  0.39742  0.50105  1.0000
  N   N35       1.0  0.35449  0.41490  0.38628  1.0000
  H   H177      1.0  0.36179  0.42662  0.43703  1.0000
  C   C232      1.0  0.61215  0.98298  0.36665  1.0000
  C   C233      1.0  0.62980  0.02792  0.41894  1.0000
  C   C234      1.0  0.61886  0.00115  0.43647  1.0000
  H   H178      1.0  0.63262  0.04020  0.47089  1.0000
  H   H179      1.0  0.61438  0.99480  0.50064  1.0000
  N   N36       1.0  0.59703  0.95680  0.38503  1.0000
  H   H180      1.0  0.58535  0.95229  0.43595  1.0000
