data_image0
_chemical_formula_structural       C10H4NHC6H4NHC6H4NHCN2CNC2O3CN2CNC2O3C4H2C2H2NHC4H2C2H2NHC4H2C2H2NH
_chemical_formula_sum              "C48 H30 N12 O6"
_cell_length_a       29.2862
_cell_length_b       29.287
_cell_length_c       15.0371
_cell_angle_alpha    90
_cell_angle_beta     90
_cell_angle_gamma    120

_space_group_name_H-M_alt    "P 1"
_space_group_IT_number       1

loop_
  _space_group_symop_operation_xyz
  'x, y, z'

loop_
  _atom_site_type_symbol
  _atom_site_label
  _atom_site_symmetry_multiplicity
  _atom_site_fract_x
  _atom_site_fract_y
  _atom_site_fract_z
  _atom_site_occupancy
  C   C1        1.0  0.36658  0.64737  0.26518  1.0000
  C   C2        1.0  0.36751  0.77311  0.27193  1.0000
  C   C3        1.0  0.63333  0.35439  0.41396  1.0000
  C   C4        1.0  0.62009  0.22298  0.41054  1.0000
  C   C5        1.0  0.58910  0.47316  0.28807  1.0000
  C   C6        1.0  0.55593  0.49403  0.27095  1.0000
  C   C7        1.0  0.48748  0.51394  0.31968  1.0000
  C   C8        1.0  0.45437  0.49841  0.24398  1.0000
  C   C9        1.0  0.42124  0.51946  0.22779  1.0000
  C   C10       1.0  0.42168  0.55789  0.28507  1.0000
  H   H1        1.0  0.45333  0.47084  0.20090  1.0000
  H   H2        1.0  0.39744  0.50733  0.17284  1.0000
  H   H3        1.0  0.61419  0.47471  0.23925  1.0000
  H   H4        1.0  0.55844  0.51121  0.21050  1.0000
  N   N1        1.0  0.38860  0.57735  0.26929  1.0000
  H   H5        1.0  0.35256  0.55184  0.25196  1.0000
  C   C11       1.0  0.52366  0.11528  0.28813  1.0000
  C   C12       1.0  0.50280  0.06125  0.27098  1.0000
  C   C13       1.0  0.48299  0.97290  0.31960  1.0000
  C   C14       1.0  0.49843  0.95534  0.24377  1.0000
  C   C15       1.0  0.47737  0.90116  0.22754  1.0000
  C   C16       1.0  0.43903  0.86315  0.28491  1.0000
  H   H6        1.0  0.52593  0.98187  0.20062  1.0000
  H   H7        1.0  0.48943  0.88950  0.17249  1.0000
  H   H8        1.0  0.52205  0.13881  0.23935  1.0000
  H   H9        1.0  0.48556  0.04657  0.21056  1.0000
  N   N2        1.0  0.41955  0.81062  0.26907  1.0000
  H   H10       1.0  0.44506  0.80010  0.25164  1.0000
  C   C17       1.0  0.88165  0.40773  0.28859  1.0000
  C   C18       1.0  0.93568  0.44091  0.27143  1.0000
  C   C19       1.0  0.02401  0.50951  0.32001  1.0000
  C   C20       1.0  0.04157  0.54246  0.24414  1.0000
  C   C21       1.0  0.09575  0.57558  0.22788  1.0000
  C   C22       1.0  0.13376  0.57529  0.28529  1.0000
  H   H11       1.0  0.01503  0.54340  0.20096  1.0000
  H   H12       1.0  0.10740  0.59927  0.17279  1.0000
  H   H13       1.0  0.85814  0.38256  0.23985  1.0000
  H   H14       1.0  0.95038  0.43832  0.21106  1.0000
  N   N3        1.0  0.18630  0.60833  0.26942  1.0000
  H   H15       1.0  0.19681  0.64434  0.25190  1.0000
  C   C23       1.0  0.27832  0.63032  0.26530  1.0000
  N   N4        1.0  0.31377  0.61328  0.26604  1.0000
  N   N5        1.0  0.38363  0.69986  0.26586  1.0000
  C   C24       1.0  0.34954  0.71858  0.26511  1.0000
  N   N6        1.0  0.29705  0.68313  0.26598  1.0000
  C   C25       1.0  0.40314  0.62940  0.27201  1.0000
  C   C26       1.0  0.22380  0.59379  0.27227  1.0000
  O   O1        1.0  0.33054  0.78762  0.28217  1.0000
  O   O2        1.0  0.20928  0.54231  0.28262  1.0000
  O   O3        1.0  0.45463  0.66638  0.28207  1.0000
  C   C27       1.0  0.71857  0.36355  0.41417  1.0000
  N   N7        1.0  0.68671  0.38489  0.41397  1.0000
  N   N8        1.0  0.61199  0.30118  0.41375  1.0000
  C   C28       1.0  0.64250  0.27831  0.41394  1.0000
  N   N9        1.0  0.69570  0.31017  0.41395  1.0000
  C   C29       1.0  0.60042  0.37681  0.41062  1.0000
  C   C30       1.0  0.77392  0.39646  0.41104  1.0000
  O   O4        1.0  0.65298  0.20358  0.42372  1.0000
  O   O5        1.0  0.79327  0.44877  0.42393  1.0000
  O   O6        1.0  0.54812  0.34391  0.42378  1.0000
  C   C31       1.0  0.58666  0.44867  0.37025  1.0000
  C   C32       1.0  0.52062  0.49240  0.33669  1.0000
  C   C33       1.0  0.51942  0.46937  0.41998  1.0000
  C   C34       1.0  0.55185  0.44758  0.43638  1.0000
  H   H16       1.0  0.49423  0.46743  0.46896  1.0000
  H   H17       1.0  0.55024  0.43123  0.49725  1.0000
  C   C35       1.0  0.45427  0.57289  0.36133  1.0000
  C   C36       1.0  0.48661  0.55112  0.37856  1.0000
  H   H18       1.0  0.45392  0.59912  0.40586  1.0000
  H   H19       1.0  0.51005  0.56323  0.43399  1.0000
  N   N10       1.0  0.61849  0.42766  0.38491  1.0000
  H   H20       1.0  0.65463  0.44799  0.36309  1.0000
  C   C37       1.0  0.54822  0.13734  0.37026  1.0000
  C   C38       1.0  0.50451  0.02757  0.33664  1.0000
  C   C39       1.0  0.52761  0.04940  0.41989  1.0000
  C   C40       1.0  0.54939  0.10363  0.43632  1.0000
  H   H21       1.0  0.52961  0.02616  0.46882  1.0000
  H   H22       1.0  0.56579  0.11836  0.49716  1.0000
  C   C41       1.0  0.42412  0.88072  0.36129  1.0000
  C   C42       1.0  0.44589  0.93483  0.37857  1.0000
  H   H23       1.0  0.39795  0.85414  0.40588  1.0000
  H   H24       1.0  0.43384  0.94615  0.43408  1.0000
  N   N11       1.0  0.56922  0.19018  0.38494  1.0000
  H   H25       1.0  0.54887  0.20596  0.36319  1.0000
  C   C43       1.0  0.85957  0.41028  0.37067  1.0000
  C   C44       1.0  0.96935  0.47635  0.33707  1.0000
  C   C45       1.0  0.94750  0.47767  0.42027  1.0000
  C   C46       1.0  0.89327  0.44522  0.43669  1.0000
  H   H26       1.0  0.97073  0.50295  0.46917  1.0000
  H   H27       1.0  0.87853  0.44692  0.49750  1.0000
  C   C47       1.0  0.11620  0.54285  0.36173  1.0000
  C   C48       1.0  0.06209  0.51052  0.37903  1.0000
  H   H28       1.0  0.14279  0.54329  0.40633  1.0000
  H   H29       1.0  0.05077  0.48718  0.43458  1.0000
  N   N12       1.0  0.80674  0.37844  0.38533  1.0000
  H   H30       1.0  0.79096  0.34229  0.36360  1.0000
