data_image0
_chemical_formula_structural       CHC3HC4H2C2H2CH2CNCNCNCNCNCNC4NC2NHCH3C4NC2NHCH2C3NCNHCH3C2H2C2H2CH2CNCNCNCNCNCNC4NC2NHCH3C4NC2NHCH2C3NCNHCH3C2H2C2H2C2H2CNCNCNCNCNCNC4NC2NHCH3C4NC2NHCH3C4NC2NHCH3C2H2C2H2C2H2CNCNCNCNCNCNC4NC2NHCH3C4NC2NHCH3C4NC2NHCH3
_chemical_formula_sum              "C132 H72 N48"
_cell_length_a       29.5057
_cell_length_b       29.5057
_cell_length_c       14.9665
_cell_angle_alpha    90
_cell_angle_beta     90
_cell_angle_gamma    120

_space_group_name_H-M_alt    "P 1"
_space_group_IT_number       1

loop_
  _space_group_symop_operation_xyz
  'x, y, z'

loop_
  _atom_site_type_symbol
  _atom_site_label
  _atom_site_symmetry_multiplicity
  _atom_site_fract_x
  _atom_site_fract_y
  _atom_site_fract_z
  _atom_site_occupancy
  C   C1        1.0  0.02929  0.30036  0.40476  1.0000
  H   H1        1.0  0.03457  0.45205  0.43961  1.0000
  C   C2        1.0  0.02946  0.21962  0.43147  1.0000
  C   C3        1.0  0.02831  0.13924  0.46704  1.0000
  C   C4        1.0  0.02929  0.80036  0.40476  1.0000
  H   H2        1.0  0.03457  0.95204  0.43961  1.0000
  C   C5        1.0  0.02946  0.71963  0.43147  1.0000
  C   C6        1.0  0.02832  0.63924  0.46704  1.0000
  C   C7        1.0  0.20244  0.22949  0.40474  1.0000
  C   C8        1.0  0.22976  0.20189  0.40344  1.0000
  H   H3        1.0  0.20841  0.16246  0.39200  1.0000
  H   H4        1.0  0.16305  0.20850  0.39318  1.0000
  C   C9        1.0  0.27331  0.47351  0.40473  1.0000
  C   C10       1.0  0.30091  0.02843  0.40345  1.0000
  H   H5        1.0  0.34034  0.04652  0.39200  1.0000
  H   H6        1.0  0.29430  0.45511  0.39318  1.0000
  C   C11       1.0  0.47436  0.27304  0.40346  1.0000
  H   H7        1.0  0.45628  0.29439  0.39202  1.0000
  H   H8        1.0  0.04769  0.33975  0.39320  1.0000
  C   C12       1.0  0.19289  0.38867  0.41880  1.0000
  N   N1        1.0  0.13990  0.35807  0.41868  1.0000
  C   C13       1.0  0.11413  0.30478  0.41881  1.0000
  N   N2        1.0  0.14473  0.28239  0.41869  1.0000
  C   C14       1.0  0.19802  0.30991  0.41881  1.0000
  N   N3        1.0  0.22041  0.36290  0.41868  1.0000
  C   C15       1.0  0.30536  0.11357  0.41270  1.0000
  N   N4        1.0  0.35861  0.13936  0.41267  1.0000
  C   C16       1.0  0.38923  0.19236  0.41270  1.0000
  N   N5        1.0  0.36344  0.21981  0.41267  1.0000
  C   C17       1.0  0.31044  0.19743  0.41270  1.0000
  N   N6        1.0  0.28299  0.14419  0.41267  1.0000
  C   C18       1.0  0.28475  0.22734  0.41449  1.0000
  C   C19       1.0  0.31107  0.28241  0.42875  1.0000
  C   C20       1.0  0.28318  0.31040  0.43144  1.0000
  C   C21       1.0  0.22800  0.28430  0.41841  1.0000
  N   N7        1.0  0.31123  0.36245  0.45123  1.0000
  C   C22       1.0  0.36356  0.38963  0.46706  1.0000
  C   C23       1.0  0.39082  0.36196  0.46250  1.0000
  N   N8        1.0  0.36353  0.31013  0.44450  1.0000
  H   H9        1.0  0.43012  0.37976  0.47438  1.0000
  C   C24       1.0  0.39036  0.44570  0.49016  1.0000
  H   H10       1.0  0.36275  0.46000  0.49402  1.0000
  H   H11       1.0  0.41973  0.46822  0.43957  1.0000
  H   H12       1.0  0.40954  0.45191  0.55496  1.0000
  C   C25       1.0  0.27546  0.05797  0.41449  1.0000
  C   C26       1.0  0.22039  0.02922  0.42875  1.0000
  C   C27       1.0  0.19240  0.47334  0.43143  1.0000
  C   C28       1.0  0.21851  0.44426  0.41840  1.0000
  N   N9        1.0  0.14035  0.44935  0.45122  1.0000
  C   C29       1.0  0.11317  0.47449  0.46705  1.0000
  C   C30       1.0  0.14082  0.02941  0.46239  1.0000
  N   N10       1.0  0.19267  0.05396  0.44447  1.0000
  H   H13       1.0  0.12304  0.05091  0.47441  1.0000
  C   C31       1.0  0.05711  0.44521  0.49020  1.0000
  H   H14       1.0  0.04281  0.40331  0.49412  1.0000
  H   H15       1.0  0.05091  0.45822  0.55499  1.0000
  C   C32       1.0  0.44483  0.21805  0.41449  1.0000
  C   C33       1.0  0.47358  0.19173  0.42876  1.0000
  C   C34       1.0  0.05854  0.27481  0.41842  1.0000
  N   N11       1.0  0.05345  0.19157  0.45122  1.0000
  C   C35       1.0  0.47339  0.11198  0.46243  1.0000
  N   N12       1.0  0.44884  0.13926  0.44447  1.0000
  H   H16       1.0  0.45189  0.07268  0.47434  1.0000
  C   C36       1.0  0.05759  0.11244  0.49013  1.0000
  H   H17       1.0  0.09949  0.14005  0.49403  1.0000
  H   H18       1.0  0.05074  0.08308  0.43952  1.0000
  H   H19       1.0  0.04460  0.09324  0.55491  1.0000
  C   C37       1.0  0.20244  0.72949  0.40474  1.0000
  C   C38       1.0  0.22976  0.70189  0.40344  1.0000
  H   H20       1.0  0.20841  0.66246  0.39200  1.0000
  H   H21       1.0  0.16305  0.70851  0.39318  1.0000
  C   C39       1.0  0.27331  0.97351  0.40473  1.0000
  C   C40       1.0  0.30091  0.52843  0.40345  1.0000
  H   H22       1.0  0.34034  0.54652  0.39200  1.0000
  H   H23       1.0  0.29430  0.95510  0.39318  1.0000
  C   C41       1.0  0.47437  0.77304  0.40346  1.0000
  H   H24       1.0  0.45628  0.79439  0.39202  1.0000
  H   H25       1.0  0.04770  0.83975  0.39320  1.0000
  C   C42       1.0  0.19289  0.88867  0.41880  1.0000
  N   N13       1.0  0.13990  0.85807  0.41868  1.0000
  C   C43       1.0  0.11413  0.80478  0.41881  1.0000
  N   N14       1.0  0.14473  0.78239  0.41869  1.0000
  C   C44       1.0  0.19802  0.80991  0.41881  1.0000
  N   N15       1.0  0.22041  0.86290  0.41868  1.0000
  C   C45       1.0  0.30536  0.61357  0.41270  1.0000
  N   N16       1.0  0.35861  0.63936  0.41267  1.0000
  C   C46       1.0  0.38923  0.69236  0.41270  1.0000
  N   N17       1.0  0.36344  0.71981  0.41267  1.0000
  C   C47       1.0  0.31044  0.69744  0.41270  1.0000
  N   N18       1.0  0.28299  0.64419  0.41267  1.0000
  C   C48       1.0  0.28475  0.72734  0.41449  1.0000
  C   C49       1.0  0.31108  0.78241  0.42875  1.0000
  C   C50       1.0  0.28318  0.81040  0.43144  1.0000
  C   C51       1.0  0.22800  0.78430  0.41841  1.0000
  N   N19       1.0  0.31124  0.86245  0.45123  1.0000
  C   C52       1.0  0.36356  0.88963  0.46706  1.0000
  C   C53       1.0  0.39081  0.86196  0.46250  1.0000
  N   N20       1.0  0.36353  0.81013  0.44450  1.0000
  H   H26       1.0  0.43012  0.87976  0.47438  1.0000
  C   C54       1.0  0.39036  0.94570  0.49016  1.0000
  H   H27       1.0  0.36275  0.96000  0.49402  1.0000
  H   H28       1.0  0.41973  0.96822  0.43957  1.0000
  H   H29       1.0  0.40955  0.95191  0.55496  1.0000
  C   C55       1.0  0.27546  0.55797  0.41449  1.0000
  C   C56       1.0  0.22039  0.52922  0.42875  1.0000
  C   C57       1.0  0.19240  0.97333  0.43143  1.0000
  C   C58       1.0  0.21851  0.94426  0.41840  1.0000
  N   N21       1.0  0.14035  0.94934  0.45122  1.0000
  C   C59       1.0  0.11317  0.97449  0.46705  1.0000
  C   C60       1.0  0.14082  0.52941  0.46239  1.0000
  N   N22       1.0  0.19267  0.55396  0.44447  1.0000
  H   H30       1.0  0.12304  0.55091  0.47441  1.0000
  C   C61       1.0  0.05711  0.94522  0.49020  1.0000
  H   H31       1.0  0.04281  0.90331  0.49412  1.0000
  H   H32       1.0  0.05091  0.95822  0.55499  1.0000
  C   C62       1.0  0.44483  0.71805  0.41449  1.0000
  C   C63       1.0  0.47358  0.69173  0.42876  1.0000
  C   C64       1.0  0.05854  0.77481  0.41842  1.0000
  N   N23       1.0  0.05346  0.69157  0.45122  1.0000
  C   C65       1.0  0.47339  0.61198  0.46243  1.0000
  N   N24       1.0  0.44884  0.63926  0.44447  1.0000
  H   H33       1.0  0.45189  0.57268  0.47434  1.0000
  C   C66       1.0  0.05759  0.61244  0.49013  1.0000
  H   H34       1.0  0.09949  0.64005  0.49403  1.0000
  H   H35       1.0  0.05074  0.58308  0.43952  1.0000
  H   H36       1.0  0.04460  0.59324  0.55491  1.0000
  C   C67       1.0  0.70244  0.22949  0.40474  1.0000
  C   C68       1.0  0.72976  0.20189  0.40344  1.0000
  H   H37       1.0  0.70841  0.16246  0.39200  1.0000
  H   H38       1.0  0.66305  0.20850  0.39318  1.0000
  C   C69       1.0  0.77331  0.47351  0.40473  1.0000
  C   C70       1.0  0.80091  0.02843  0.40345  1.0000
  H   H39       1.0  0.84034  0.04652  0.39200  1.0000
  H   H40       1.0  0.79430  0.45511  0.39318  1.0000
  C   C71       1.0  0.52929  0.30036  0.40476  1.0000
  C   C72       1.0  0.97436  0.27304  0.40346  1.0000
  H   H41       1.0  0.95629  0.29439  0.39202  1.0000
  H   H42       1.0  0.54770  0.33975  0.39320  1.0000
  C   C73       1.0  0.69289  0.38867  0.41880  1.0000
  N   N25       1.0  0.63990  0.35807  0.41868  1.0000
  C   C74       1.0  0.61413  0.30478  0.41881  1.0000
  N   N26       1.0  0.64473  0.28239  0.41869  1.0000
  C   C75       1.0  0.69802  0.30991  0.41881  1.0000
  N   N27       1.0  0.72041  0.36290  0.41868  1.0000
  C   C76       1.0  0.80536  0.11357  0.41270  1.0000
  N   N28       1.0  0.85861  0.13936  0.41267  1.0000
  C   C77       1.0  0.88923  0.19236  0.41270  1.0000
  N   N29       1.0  0.86344  0.21981  0.41267  1.0000
  C   C78       1.0  0.81044  0.19743  0.41270  1.0000
  N   N30       1.0  0.78299  0.14419  0.41267  1.0000
  C   C79       1.0  0.78475  0.22734  0.41449  1.0000
  C   C80       1.0  0.81107  0.28241  0.42875  1.0000
  C   C81       1.0  0.78318  0.31040  0.43144  1.0000
  C   C82       1.0  0.72799  0.28430  0.41841  1.0000
  N   N31       1.0  0.81124  0.36245  0.45123  1.0000
  C   C83       1.0  0.86356  0.38963  0.46706  1.0000
  C   C84       1.0  0.89082  0.36196  0.46250  1.0000
  N   N32       1.0  0.86354  0.31013  0.44450  1.0000
  H   H43       1.0  0.93012  0.37976  0.47438  1.0000
  C   C85       1.0  0.89036  0.44570  0.49016  1.0000
  H   H44       1.0  0.86275  0.46000  0.49402  1.0000
  H   H45       1.0  0.91973  0.46822  0.43957  1.0000
  H   H46       1.0  0.90954  0.45191  0.55496  1.0000
  C   C86       1.0  0.77546  0.05797  0.41449  1.0000
  C   C87       1.0  0.72039  0.02922  0.42875  1.0000
  C   C88       1.0  0.69240  0.47334  0.43143  1.0000
  C   C89       1.0  0.71851  0.44426  0.41840  1.0000
  N   N33       1.0  0.64035  0.44935  0.45122  1.0000
  C   C90       1.0  0.61317  0.47449  0.46705  1.0000
  C   C91       1.0  0.64082  0.02941  0.46239  1.0000
  N   N34       1.0  0.69267  0.05396  0.44447  1.0000
  H   H47       1.0  0.62304  0.05091  0.47441  1.0000
  C   C92       1.0  0.55710  0.44521  0.49020  1.0000
  H   H48       1.0  0.54281  0.40331  0.49412  1.0000
  H   H49       1.0  0.53457  0.45205  0.43961  1.0000
  H   H50       1.0  0.55091  0.45822  0.55499  1.0000
  C   C93       1.0  0.94483  0.21805  0.41449  1.0000
  C   C94       1.0  0.97358  0.19173  0.42876  1.0000
  C   C95       1.0  0.52946  0.21962  0.43147  1.0000
  C   C96       1.0  0.55854  0.27481  0.41842  1.0000
  N   N35       1.0  0.55346  0.19157  0.45122  1.0000
  C   C97       1.0  0.52831  0.13924  0.46704  1.0000
  C   C98       1.0  0.97339  0.11198  0.46243  1.0000
  N   N36       1.0  0.94883  0.13926  0.44447  1.0000
  H   H51       1.0  0.95189  0.07268  0.47434  1.0000
  C   C99       1.0  0.55758  0.11244  0.49013  1.0000
  H   H52       1.0  0.59949  0.14005  0.49403  1.0000
  H   H53       1.0  0.55075  0.08308  0.43952  1.0000
  H   H54       1.0  0.54460  0.09324  0.55491  1.0000
  C   C100      1.0  0.70244  0.72949  0.40474  1.0000
  C   C101      1.0  0.72976  0.70189  0.40344  1.0000
  H   H55       1.0  0.70842  0.66246  0.39200  1.0000
  H   H56       1.0  0.66305  0.70851  0.39318  1.0000
  C   C102      1.0  0.77331  0.97351  0.40473  1.0000
  C   C103      1.0  0.80091  0.52843  0.40345  1.0000
  H   H57       1.0  0.84034  0.54652  0.39200  1.0000
  H   H58       1.0  0.79430  0.95510  0.39318  1.0000
  C   C104      1.0  0.52929  0.80036  0.40476  1.0000
  C   C105      1.0  0.97437  0.77304  0.40346  1.0000
  H   H59       1.0  0.95629  0.79439  0.39202  1.0000
  H   H60       1.0  0.54770  0.83975  0.39320  1.0000
  C   C106      1.0  0.69289  0.88867  0.41880  1.0000
  N   N37       1.0  0.63990  0.85807  0.41868  1.0000
  C   C107      1.0  0.61413  0.80478  0.41881  1.0000
  N   N38       1.0  0.64473  0.78239  0.41869  1.0000
  C   C108      1.0  0.69802  0.80991  0.41881  1.0000
  N   N39       1.0  0.72041  0.86290  0.41868  1.0000
  C   C109      1.0  0.80537  0.61357  0.41270  1.0000
  N   N40       1.0  0.85862  0.63936  0.41267  1.0000
  C   C110      1.0  0.88923  0.69236  0.41270  1.0000
  N   N41       1.0  0.86344  0.71981  0.41267  1.0000
  C   C111      1.0  0.81044  0.69744  0.41270  1.0000
  N   N42       1.0  0.78299  0.64419  0.41267  1.0000
  C   C112      1.0  0.78475  0.72734  0.41449  1.0000
  C   C113      1.0  0.81107  0.78241  0.42875  1.0000
  C   C114      1.0  0.78318  0.81040  0.43144  1.0000
  C   C115      1.0  0.72800  0.78430  0.41841  1.0000
  N   N43       1.0  0.81123  0.86245  0.45123  1.0000
  C   C116      1.0  0.86356  0.88963  0.46706  1.0000
  C   C117      1.0  0.89082  0.86196  0.46250  1.0000
  N   N44       1.0  0.86353  0.81013  0.44450  1.0000
  H   H61       1.0  0.93012  0.87976  0.47438  1.0000
  C   C118      1.0  0.89036  0.94570  0.49016  1.0000
  H   H62       1.0  0.86275  0.96000  0.49402  1.0000
  H   H63       1.0  0.91973  0.96822  0.43957  1.0000
  H   H64       1.0  0.90955  0.95191  0.55496  1.0000
  C   C119      1.0  0.77546  0.55797  0.41449  1.0000
  C   C120      1.0  0.72039  0.52922  0.42875  1.0000
  C   C121      1.0  0.69240  0.97333  0.43143  1.0000
  C   C122      1.0  0.71851  0.94426  0.41840  1.0000
  N   N45       1.0  0.64035  0.94934  0.45122  1.0000
  C   C123      1.0  0.61317  0.97449  0.46705  1.0000
  C   C124      1.0  0.64082  0.52941  0.46239  1.0000
  N   N46       1.0  0.69267  0.55396  0.44447  1.0000
  H   H65       1.0  0.62304  0.55091  0.47441  1.0000
  C   C125      1.0  0.55711  0.94522  0.49020  1.0000
  H   H66       1.0  0.54282  0.90331  0.49412  1.0000
  H   H67       1.0  0.53457  0.95204  0.43961  1.0000
  H   H68       1.0  0.55091  0.95822  0.55499  1.0000
  C   C126      1.0  0.94483  0.71805  0.41449  1.0000
  C   C127      1.0  0.97358  0.69173  0.42876  1.0000
  C   C128      1.0  0.52946  0.71963  0.43147  1.0000
  C   C129      1.0  0.55854  0.77481  0.41842  1.0000
  N   N47       1.0  0.55346  0.69157  0.45122  1.0000
  C   C130      1.0  0.52832  0.63924  0.46704  1.0000
  C   C131      1.0  0.97339  0.61198  0.46243  1.0000
  N   N48       1.0  0.94884  0.63926  0.44447  1.0000
  H   H69       1.0  0.95189  0.57268  0.47434  1.0000
  C   C132      1.0  0.55759  0.61244  0.49013  1.0000
  H   H70       1.0  0.59950  0.64005  0.49403  1.0000
  H   H71       1.0  0.55074  0.58308  0.43952  1.0000
  H   H72       1.0  0.54460  0.59324  0.55491  1.0000
