data_image0
_chemical_formula_structural       C2HNC4HNC2H3NC2HC2H3N2C2HC2H3N2C5H4CHC5H4CHC5H4CHC5H4CHC5H4CHC5H4CHNC4NH3NC4NC4NH4N2C4NC4NH4N2C4HC3H2NO2CHC4HC3H2NO2CHC4HC3H2NO2CHC4HC3H2NO2CHC4HC3H2NO2CHC4HC3H2NO2CH
_chemical_formula_sum              "C120 H78 N24 O12"
_cell_length_a       39.8481
_cell_length_b       39.8482
_cell_length_c       14.7209
_cell_angle_alpha    90
_cell_angle_beta     90
_cell_angle_gamma    120

_space_group_name_H-M_alt    "P 1"
_space_group_IT_number       1

loop_
  _space_group_symop_operation_xyz
  'x, y, z'

loop_
  _atom_site_type_symbol
  _atom_site_label
  _atom_site_symmetry_multiplicity
  _atom_site_fract_x
  _atom_site_fract_y
  _atom_site_fract_z
  _atom_site_occupancy
  C   C1        1.0  0.05797  0.56109  0.37396  1.0000
  C   C2        1.0  0.09897  0.58195  0.37120  1.0000
  H   H1        1.0  0.04473  0.57699  0.38474  1.0000
  N   N1        1.0  0.11894  0.62065  0.37703  1.0000
  C   C3        1.0  0.03557  0.52004  0.36250  1.0000
  C   C4        1.0  0.11985  0.56181  0.36273  1.0000
  C   C5        1.0  0.09861  0.52082  0.35388  1.0000
  C   C6        1.0  0.05763  0.50105  0.35091  1.0000
  H   H2        1.0  0.04413  0.47192  0.33971  1.0000
  N   N2        1.0  0.11828  0.50184  0.34662  1.0000
  C   C7        1.0  0.92955  0.43700  0.37097  1.0000
  C   C8        1.0  0.97054  0.45787  0.37388  1.0000
  H   H3        1.0  0.98379  0.44197  0.38474  1.0000
  H   H4        1.0  0.85381  0.40962  0.37124  1.0000
  H   H5        1.0  0.17470  0.60928  0.37225  1.0000
  N   N3        1.0  0.90957  0.39829  0.37678  1.0000
  C   C9        1.0  0.46257  0.50155  0.37382  1.0000
  C   C10       1.0  0.44170  0.52168  0.37088  1.0000
  H   H6        1.0  0.44667  0.47241  0.38466  1.0000
  C   C11       1.0  0.58666  0.49720  0.37121  1.0000
  C   C12       1.0  0.56579  0.51734  0.37397  1.0000
  H   H7        1.0  0.58169  0.54649  0.38473  1.0000
  H   H8        1.0  0.61398  0.44880  0.37226  1.0000
  H   H9        1.0  0.41434  0.57005  0.37111  1.0000
  N   N4        1.0  0.62536  0.51594  0.37703  1.0000
  N   N5        1.0  0.40300  0.50296  0.37669  1.0000
  C   C13       1.0  0.52212  0.96579  0.37390  1.0000
  C   C14       1.0  0.50200  0.92480  0.37108  1.0000
  H   H10       1.0  0.55127  0.97904  0.38470  1.0000
  C   C15       1.0  0.52645  0.09422  0.37094  1.0000
  C   C16       1.0  0.50632  0.05323  0.37386  1.0000
  H   H11       1.0  0.47718  0.03998  0.38470  1.0000
  H   H12       1.0  0.57481  0.16995  0.37120  1.0000
  H   H13       1.0  0.45363  0.84906  0.37166  1.0000
  N   N6        1.0  0.50772  0.11420  0.37674  1.0000
  N   N7        1.0  0.52072  0.90482  0.37686  1.0000
  C   C17       1.0  0.17107  0.47348  0.31427  1.0000
  C   C18       1.0  0.20472  0.47086  0.30123  1.0000
  C   C19       1.0  0.29155  0.50293  0.28409  1.0000
  C   C20       1.0  0.32803  0.50653  0.26817  1.0000
  C   C21       1.0  0.34181  0.48656  0.32231  1.0000
  H   H14       1.0  0.28355  0.51914  0.24543  1.0000
  H   H15       1.0  0.34512  0.52519  0.21824  1.0000
  H   H16       1.0  0.15385  0.46979  0.25925  1.0000
  H   H17       1.0  0.21037  0.46481  0.23730  1.0000
  C   C22       1.0  0.37956  0.49403  0.30883  1.0000
  H   H18       1.0  0.39080  0.50184  0.24667  1.0000
  C   C23       1.0  0.55001  0.70228  0.31417  1.0000
  C   C24       1.0  0.55272  0.73859  0.30118  1.0000
  C   C25       1.0  0.52069  0.79337  0.28430  1.0000
  C   C26       1.0  0.51706  0.82624  0.26842  1.0000
  C   C27       1.0  0.53710  0.86001  0.32245  1.0000
  H   H19       1.0  0.50447  0.76916  0.24565  1.0000
  H   H20       1.0  0.49839  0.82466  0.21852  1.0000
  H   H21       1.0  0.55357  0.68870  0.25905  1.0000
  H   H22       1.0  0.55869  0.75025  0.23721  1.0000
  C   C28       1.0  0.52962  0.89029  0.30898  1.0000
  H   H23       1.0  0.52178  0.89371  0.24684  1.0000
  C   C29       1.0  0.32140  0.85267  0.31435  1.0000
  C   C30       1.0  0.28512  0.81904  0.30130  1.0000
  C   C31       1.0  0.23040  0.73223  0.28407  1.0000
  C   C32       1.0  0.19757  0.69571  0.26820  1.0000
  C   C33       1.0  0.16381  0.68188  0.32235  1.0000
  H   H24       1.0  0.25463  0.74024  0.24547  1.0000
  H   H25       1.0  0.19920  0.67862  0.21837  1.0000
  H   H26       1.0  0.33496  0.86986  0.25929  1.0000
  H   H27       1.0  0.27343  0.81340  0.23736  1.0000
  C   C34       1.0  0.13364  0.64404  0.30915  1.0000
  H   H28       1.0  0.13036  0.63286  0.24694  1.0000
  C   C35       1.0  0.85734  0.54540  0.31425  1.0000
  C   C36       1.0  0.82371  0.54806  0.30122  1.0000
  C   C37       1.0  0.73692  0.51602  0.28409  1.0000
  C   C38       1.0  0.70040  0.51234  0.26823  1.0000
  C   C39       1.0  0.68658  0.53229  0.32232  1.0000
  H   H29       1.0  0.74491  0.49978  0.24552  1.0000
  H   H30       1.0  0.68329  0.49359  0.21843  1.0000
  H   H31       1.0  0.87448  0.54896  0.25916  1.0000
  H   H32       1.0  0.81806  0.55410  0.23727  1.0000
  C   C40       1.0  0.64874  0.52462  0.30915  1.0000
  H   H33       1.0  0.63756  0.51672  0.24694  1.0000
  C   C41       1.0  0.47822  0.31664  0.31430  1.0000
  C   C42       1.0  0.47560  0.28037  0.30126  1.0000
  C   C43       1.0  0.50768  0.22562  0.28413  1.0000
  C   C44       1.0  0.51128  0.19274  0.26822  1.0000
  C   C45       1.0  0.49132  0.15899  0.32236  1.0000
  H   H34       1.0  0.52389  0.24982  0.24547  1.0000
  H   H35       1.0  0.52996  0.19432  0.21830  1.0000
  H   H36       1.0  0.47452  0.33016  0.25927  1.0000
  H   H37       1.0  0.46955  0.26867  0.23733  1.0000
  C   C46       1.0  0.49880  0.12872  0.30888  1.0000
  H   H38       1.0  0.50662  0.12529  0.24672  1.0000
  C   C47       1.0  0.70705  0.16648  0.31419  1.0000
  C   C48       1.0  0.74336  0.20008  0.30119  1.0000
  C   C49       1.0  0.79815  0.28689  0.28426  1.0000
  C   C50       1.0  0.83103  0.32337  0.26837  1.0000
  C   C51       1.0  0.86480  0.33711  0.32240  1.0000
  H   H39       1.0  0.77394  0.27890  0.24562  1.0000
  H   H40       1.0  0.82945  0.34047  0.21845  1.0000
  H   H41       1.0  0.69347  0.14933  0.25909  1.0000
  H   H42       1.0  0.75503  0.20576  0.23723  1.0000
  C   C52       1.0  0.89508  0.37485  0.30892  1.0000
  H   H43       1.0  0.89853  0.38609  0.24675  1.0000
  N   N8        1.0  0.15954  0.58148  0.36297  1.0000
  C   C53       1.0  0.99294  0.49891  0.36245  1.0000
  C   C54       1.0  0.97088  0.51790  0.35084  1.0000
  C   C55       1.0  0.92990  0.49812  0.35366  1.0000
  C   C56       1.0  0.90867  0.45712  0.36232  1.0000
  N   N9        1.0  0.86897  0.43743  0.36220  1.0000
  H   H44       1.0  0.85402  0.45033  0.35336  1.0000
  H   H45       1.0  0.17449  0.56857  0.35440  1.0000
  H   H46       1.0  0.98438  0.54704  0.33974  1.0000
  N   N10       1.0  0.91023  0.51711  0.34643  1.0000
  C   C57       1.0  0.50362  0.52019  0.36243  1.0000
  C   C58       1.0  0.46184  0.56269  0.36225  1.0000
  C   C59       1.0  0.50284  0.58246  0.35365  1.0000
  C   C60       1.0  0.52261  0.56125  0.35085  1.0000
  N   N11       1.0  0.44215  0.58270  0.36210  1.0000
  C   C61       1.0  0.52475  0.49870  0.36250  1.0000
  C   C62       1.0  0.50576  0.45764  0.35094  1.0000
  C   C63       1.0  0.52552  0.43643  0.35392  1.0000
  C   C64       1.0  0.56651  0.45619  0.36276  1.0000
  N   N12       1.0  0.58619  0.43616  0.36299  1.0000
  H   H47       1.0  0.57327  0.40830  0.35442  1.0000
  H   H48       1.0  0.45505  0.61055  0.35325  1.0000
  H   H49       1.0  0.55175  0.57689  0.33977  1.0000
  H   H50       1.0  0.47662  0.44201  0.33974  1.0000
  N   N13       1.0  0.50655  0.39778  0.34665  1.0000
  N   N14       1.0  0.52183  0.62111  0.34645  1.0000
  C   C65       1.0  0.50348  0.98819  0.36249  1.0000
  C   C66       1.0  0.46099  0.90392  0.36254  1.0000
  C   C67       1.0  0.44122  0.92514  0.35381  1.0000
  C   C68       1.0  0.46242  0.96612  0.35094  1.0000
  N   N15       1.0  0.44097  0.86422  0.36257  1.0000
  C   C69       1.0  0.52497  0.03082  0.36246  1.0000
  C   C70       1.0  0.56602  0.05288  0.35086  1.0000
  C   C71       1.0  0.58723  0.09387  0.35366  1.0000
  C   C72       1.0  0.56746  0.11510  0.36231  1.0000
  N   N16       1.0  0.58746  0.15480  0.36217  1.0000
  H   H51       1.0  0.61531  0.16974  0.35331  1.0000
  H   H52       1.0  0.41312  0.84927  0.35386  1.0000
  H   H53       1.0  0.44678  0.97962  0.33982  1.0000
  H   H54       1.0  0.58166  0.03939  0.33978  1.0000
  N   N17       1.0  0.62588  0.11353  0.34647  1.0000
  N   N18       1.0  0.40257  0.90547  0.34664  1.0000
  C   C73       1.0  0.16218  0.48302  0.40010  1.0000
  C   C74       1.0  0.23111  0.47777  0.37304  1.0000
  C   C75       1.0  0.22218  0.48660  0.46024  1.0000
  C   C76       1.0  0.18797  0.48874  0.47246  1.0000
  H   H55       1.0  0.18316  0.49681  0.53505  1.0000
  C   C77       1.0  0.26712  0.47902  0.35452  1.0000
  C   C78       1.0  0.31733  0.46225  0.39213  1.0000
  C   C79       1.0  0.28057  0.45839  0.40743  1.0000
  H   H56       1.0  0.32632  0.44753  0.43321  1.0000
  H   H57       1.0  0.26373  0.44056  0.45866  1.0000
  N   N19       1.0  0.24873  0.49583  0.53290  1.0000
  O   O1        1.0  0.23344  0.47324  0.59899  1.0000
  O   O2        1.0  0.26184  0.53006  0.56000  1.0000
  C   C80       1.0  0.13283  0.49220  0.41315  1.0000
  H   H58       1.0  0.12894  0.49913  0.47589  1.0000
  C   C81       1.0  0.54059  0.68388  0.40004  1.0000
  C   C82       1.0  0.54594  0.75813  0.37308  1.0000
  C   C83       1.0  0.53717  0.74039  0.46030  1.0000
  C   C84       1.0  0.53496  0.70400  0.47244  1.0000
  H   H59       1.0  0.52692  0.69114  0.53505  1.0000
  C   C85       1.0  0.54466  0.79288  0.35461  1.0000
  C   C86       1.0  0.56147  0.85988  0.39213  1.0000
  C   C87       1.0  0.56534  0.82698  0.40742  1.0000
  H   H60       1.0  0.57622  0.88360  0.43315  1.0000
  H   H61       1.0  0.58322  0.82799  0.45855  1.0000
  N   N20       1.0  0.52802  0.75774  0.53302  1.0000
  O   O3        1.0  0.55064  0.76501  0.59903  1.0000
  O   O4        1.0  0.49380  0.73666  0.56022  1.0000
  C   C88       1.0  0.53112  0.64528  0.41296  1.0000
  H   H62       1.0  0.52399  0.63434  0.47557  1.0000
  C   C89       1.0  0.33984  0.86154  0.40017  1.0000
  C   C90       1.0  0.26562  0.79265  0.37310  1.0000
  C   C91       1.0  0.28338  0.80157  0.46030  1.0000
  C   C92       1.0  0.31973  0.83578  0.47255  1.0000
  H   H63       1.0  0.33264  0.84053  0.53508  1.0000
  C   C93       1.0  0.23088  0.75662  0.35454  1.0000
  C   C94       1.0  0.16394  0.70634  0.39216  1.0000
  C   C95       1.0  0.19680  0.74313  0.40746  1.0000
  H   H64       1.0  0.14026  0.69729  0.43334  1.0000
  H   H65       1.0  0.19579  0.75994  0.45872  1.0000
  N   N21       1.0  0.26606  0.77499  0.53290  1.0000
  O   O5        1.0  0.25877  0.79026  0.59905  1.0000
  O   O6        1.0  0.28719  0.76188  0.55994  1.0000
  C   C96       1.0  0.37839  0.89080  0.41318  1.0000
  H   H66       1.0  0.38932  0.89473  0.47580  1.0000
  C   C97       1.0  0.86620  0.53582  0.40006  1.0000
  C   C98       1.0  0.79735  0.54124  0.37306  1.0000
  C   C99       1.0  0.80628  0.53241  0.46026  1.0000
  C   C100      1.0  0.84045  0.53019  0.47246  1.0000
  H   H67       1.0  0.84524  0.52209  0.53502  1.0000
  C   C101      1.0  0.76133  0.53996  0.35450  1.0000
  C   C102      1.0  0.71105  0.55662  0.39214  1.0000
  C   C103      1.0  0.74784  0.56055  0.40741  1.0000
  H   H68       1.0  0.70202  0.57128  0.43328  1.0000
  H   H69       1.0  0.76467  0.57840  0.45863  1.0000
  N   N22       1.0  0.77974  0.52321  0.53293  1.0000
  O   O7        1.0  0.79507  0.54580  0.59901  1.0000
  O   O8        1.0  0.76659  0.48897  0.56003  1.0000
  C   C104      1.0  0.89541  0.52645  0.41295  1.0000
  H   H70       1.0  0.89921  0.51937  0.47562  1.0000
  C   C105      1.0  0.48775  0.33507  0.40013  1.0000
  C   C106      1.0  0.48251  0.26089  0.37308  1.0000
  C   C107      1.0  0.49133  0.27864  0.46028  1.0000
  C   C108      1.0  0.49347  0.31499  0.47250  1.0000
  H   H71       1.0  0.50153  0.32787  0.53508  1.0000
  C   C109      1.0  0.48377  0.22613  0.35456  1.0000
  C   C110      1.0  0.46701  0.15915  0.39217  1.0000
  C   C111      1.0  0.46314  0.19205  0.40747  1.0000
  H   H72       1.0  0.45229  0.13545  0.43325  1.0000
  H   H73       1.0  0.44530  0.19106  0.45870  1.0000
  N   N23       1.0  0.50056  0.26132  0.53293  1.0000
  O   O9        1.0  0.47796  0.25402  0.59901  1.0000
  O   O10       1.0  0.53479  0.28245  0.56005  1.0000
  C   C112      1.0  0.49692  0.37359  0.41319  1.0000
  H   H74       1.0  0.50386  0.38441  0.47592  1.0000
  C   C113      1.0  0.68864  0.15752  0.40005  1.0000
  C   C114      1.0  0.76290  0.22640  0.37308  1.0000
  C   C115      1.0  0.74515  0.21744  0.46029  1.0000
  C   C116      1.0  0.70876  0.18328  0.47245  1.0000
  H   H75       1.0  0.69590  0.17846  0.53505  1.0000
  C   C117      1.0  0.79765  0.26243  0.35459  1.0000
  C   C118      1.0  0.86466  0.31260  0.39210  1.0000
  C   C119      1.0  0.83175  0.27584  0.40742  1.0000
  H   H76       1.0  0.88837  0.32158  0.43313  1.0000
  H   H77       1.0  0.83275  0.25898  0.45856  1.0000
  N   N24       1.0  0.76251  0.24396  0.53300  1.0000
  O   O11       1.0  0.76977  0.22861  0.59903  1.0000
  O   O12       1.0  0.74143  0.25710  0.56018  1.0000
  C   C120      1.0  0.65004  0.12839  0.41298  1.0000
  H   H78       1.0  0.63911  0.12457  0.47559  1.0000
