data_image0
_chemical_formula_structural       C15H3C6H4NCHN2H2C3H2C11H2C4H2NCHC4NC4NC14H16NC2OHCNC2OHC10H11
_chemical_formula_sum              "C78 H46 N8 O2"
_cell_length_a       29.9025
_cell_length_b       29.9024
_cell_length_c       14.848
_cell_angle_alpha    90
_cell_angle_beta     90
_cell_angle_gamma    90.0717

_space_group_name_H-M_alt    "P 1"
_space_group_IT_number       1

loop_
  _space_group_symop_operation_xyz
  'x, y, z'

loop_
  _atom_site_type_symbol
  _atom_site_label
  _atom_site_symmetry_multiplicity
  _atom_site_fract_x
  _atom_site_fract_y
  _atom_site_fract_z
  _atom_site_occupancy
  C   C1        1.0  0.10267  0.04720  0.34302  1.0000
  C   C2        1.0  0.12536  0.00538  0.34291  1.0000
  C   C3        1.0  0.89055  0.00595  0.34324  1.0000
  C   C4        1.0  0.84282  0.00550  0.34324  1.0000
  C   C5        1.0  0.74700  0.00538  0.34343  1.0000
  C   C6        1.0  0.69894  0.00547  0.34355  1.0000
  C   C7        1.0  0.60249  0.00564  0.34405  1.0000
  C   C8        1.0  0.17310  0.00585  0.34227  1.0000
  C   C9        1.0  0.19679  0.00941  0.26039  1.0000
  C   C10       1.0  0.24388  0.00971  0.25972  1.0000
  C   C11       1.0  0.26890  0.00641  0.34056  1.0000
  C   C12       1.0  0.31690  0.00651  0.33946  1.0000
  C   C13       1.0  0.41299  0.00558  0.33455  1.0000
  C   C14       1.0  0.38823  0.03483  0.27889  1.0000
  C   C15       1.0  0.34116  0.03523  0.28128  1.0000
  H   H1        1.0  0.25974  0.01144  0.19879  1.0000
  H   H2        1.0  0.17991  0.01158  0.20059  1.0000
  H   H3        1.0  0.03552  0.03332  0.34139  1.0000
  C   C16       1.0  0.55469  0.00574  0.34291  1.0000
  C   C17       1.0  0.91203  0.04833  0.34331  1.0000
  C   C18       1.0  0.77173  0.00507  0.42492  1.0000
  C   C19       1.0  0.81888  0.00516  0.42505  1.0000
  C   C20       1.0  0.62727  0.03092  0.40741  1.0000
  C   C21       1.0  0.67437  0.03094  0.40694  1.0000
  H   H4        1.0  0.83547  0.00487  0.48514  1.0000
  H   H5        1.0  0.75568  0.00400  0.48560  1.0000
  H   H6        1.0  0.69059  0.05076  0.45263  1.0000
  H   H7        1.0  0.61129  0.05073  0.45335  1.0000
  N   N1        1.0  0.48259  0.00928  0.41213  1.0000
  C   C22       1.0  0.52775  0.01009  0.42053  1.0000
  H   H8        1.0  0.54132  0.01286  0.48336  1.0000
  N   N2        1.0  0.05818  0.05605  0.34252  1.0000
  N   N3        1.0  0.95640  0.05705  0.34320  1.0000
  H   H9        1.0  0.40432  0.05660  0.23671  1.0000
  H   H10       1.0  0.32474  0.05747  0.24075  1.0000
  C   C23       1.0  0.00732  0.12307  0.34318  1.0000
  C   C24       1.0  0.00837  0.19500  0.26193  1.0000
  C   C25       1.0  0.00852  0.24209  0.26244  1.0000
  H   H11       1.0  0.00991  0.25831  0.20187  1.0000
  H   H12       1.0  0.00895  0.17848  0.20158  1.0000
  C   C26       1.0  0.00709  0.55297  0.33378  1.0000
  C   C27       1.0  0.00854  0.88823  0.34343  1.0000
  C   C28       1.0  0.00765  0.17080  0.34351  1.0000
  C   C29       1.0  0.00790  0.26663  0.34417  1.0000
  C   C30       1.0  0.00795  0.31466  0.34455  1.0000
  C   C31       1.0  0.00822  0.84049  0.34273  1.0000
  C   C32       1.0  0.00836  0.74468  0.34130  1.0000
  C   C33       1.0  0.01197  0.76964  0.26041  1.0000
  C   C34       1.0  0.01189  0.81673  0.26094  1.0000
  C   C35       1.0  0.00851  0.69669  0.34039  1.0000
  C   C36       1.0  0.00778  0.60061  0.33590  1.0000
  H   H13       1.0  0.01444  0.83357  0.20116  1.0000
  H   H14       1.0  0.01390  0.75373  0.19957  1.0000
  C   C37       1.0  0.00806  0.45890  0.34436  1.0000
  C   C38       1.0  0.00719  0.24182  0.42557  1.0000
  C   C39       1.0  0.00707  0.19473  0.42542  1.0000
  C   C40       1.0  0.00798  0.41110  0.34543  1.0000
  H   H15       1.0  0.00631  0.17801  0.48555  1.0000
  H   H16       1.0  0.00581  0.25784  0.48635  1.0000
  N   N4        1.0  0.01126  0.53102  0.41362  1.0000
  C   C41       1.0  0.01209  0.48585  0.42204  1.0000
  H   H17       1.0  0.01461  0.47229  0.48491  1.0000
  C   C42       1.0  0.12360  0.08899  0.34405  1.0000
  C   C43       1.0  0.09093  0.12157  0.34412  1.0000
  C   C44       1.0  0.04920  0.10050  0.34319  1.0000
  C   C45       1.0  0.10384  0.96301  0.34307  1.0000
  N   N5        1.0  0.05947  0.95427  0.34334  1.0000
  C   C46       1.0  0.05085  0.90987  0.34335  1.0000
  C   C47       1.0  0.09247  0.88874  0.34325  1.0000
  C   C48       1.0  0.12509  0.92145  0.34284  1.0000
  C   C49       1.0  0.96665  0.91080  0.34338  1.0000
  N   N6        1.0  0.95768  0.95526  0.34405  1.0000
  C   C50       1.0  0.91320  0.96412  0.34322  1.0000
  C   C51       1.0  0.89225  0.92234  0.34211  1.0000
  C   C52       1.0  0.92492  0.88976  0.34209  1.0000
  C   C53       1.0  0.96501  0.10145  0.34313  1.0000
  C   C54       1.0  0.92339  0.12259  0.34315  1.0000
  C   C55       1.0  0.89078  0.08988  0.34329  1.0000
  C   C56       1.0  0.98323  0.38658  0.28083  1.0000
  C   C57       1.0  0.98298  0.33948  0.28079  1.0000
  C   C58       1.0  0.81871  0.00572  0.26151  1.0000
  C   C59       1.0  0.77161  0.00566  0.26179  1.0000
  C   C60       1.0  0.67408  0.98025  0.28014  1.0000
  C   C61       1.0  0.62698  0.98057  0.27998  1.0000
  C   C62       1.0  0.03754  0.67250  0.28284  1.0000
  C   C63       1.0  0.03723  0.62543  0.28064  1.0000
  H   H18       1.0  0.15717  0.09540  0.34502  1.0000
  H   H19       1.0  0.09723  0.15516  0.34502  1.0000
  H   H20       1.0  0.98035  0.97799  0.34537  1.0000
  H   H21       1.0  0.15870  0.91536  0.34252  1.0000
  H   H22       1.0  0.09866  0.85515  0.34332  1.0000
  H   H23       1.0  0.91861  0.85617  0.34096  1.0000
  H   H24       1.0  0.85868  0.91595  0.34104  1.0000
  H   H25       1.0  0.85716  0.09596  0.34331  1.0000
  H   H26       1.0  0.83529  0.00624  0.20123  1.0000
  H   H27       1.0  0.75546  0.00681  0.20112  1.0000
  H   H28       1.0  0.61070  0.96135  0.23331  1.0000
  H   H29       1.0  0.69005  0.96057  0.23393  1.0000
  H   H30       1.0  0.96351  0.32348  0.23419  1.0000
  H   H31       1.0  0.96419  0.40282  0.23386  1.0000
  H   H32       1.0  0.05990  0.68897  0.24258  1.0000
  H   H33       1.0  0.05920  0.60938  0.23889  1.0000
  N   N7        1.0  0.00320  0.48114  0.26503  1.0000
  C   C64       1.0  0.00257  0.52644  0.25475  1.0000
  C   C65       1.0  0.99583  0.54393  0.16948  1.0000
  O   O1        1.0  0.99318  0.51917  0.10416  1.0000
  H   H34       1.0  0.97777  0.57164  0.16474  1.0000
  C   C66       1.0  0.46062  0.00483  0.33236  1.0000
  N   N8        1.0  0.53244  0.00060  0.26367  1.0000
  C   C67       1.0  0.48714  0.99996  0.25341  1.0000
  C   C68       1.0  0.46960  0.99296  0.16824  1.0000
  O   O2        1.0  0.49434  0.99002  0.10296  1.0000
  H   H35       1.0  0.44181  0.97495  0.16377  1.0000
  C   C69       1.0  0.03308  0.33926  0.40853  1.0000
  C   C70       1.0  0.03299  0.38636  0.40918  1.0000
  C   C71       1.0  0.00453  0.81610  0.42379  1.0000
  C   C72       1.0  0.00454  0.76900  0.42291  1.0000
  C   C73       1.0  0.97951  0.62445  0.39510  1.0000
  C   C74       1.0  0.97967  0.67156  0.39679  1.0000
  C   C75       1.0  0.19755  0.00257  0.42332  1.0000
  C   C76       1.0  0.24465  0.00281  0.42230  1.0000
  C   C77       1.0  0.34198  0.97784  0.39619  1.0000
  C   C78       1.0  0.38908  0.97761  0.39435  1.0000
  H   H36       1.0  0.40579  0.95583  0.43546  1.0000
  H   H37       1.0  0.32614  0.95590  0.43835  1.0000
  H   H38       1.0  0.26108  0.00115  0.48260  1.0000
  H   H39       1.0  0.18120  0.00010  0.48367  1.0000
  H   H40       1.0  0.00206  0.83249  0.48409  1.0000
  H   H41       1.0  0.00268  0.75261  0.48324  1.0000
  H   H42       1.0  0.91722  0.15618  0.34311  1.0000
  H   H43       1.0  0.05255  0.40237  0.45559  1.0000
  H   H44       1.0  0.05267  0.32307  0.45459  1.0000
  H   H45       1.0  0.95753  0.68735  0.43852  1.0000
  H   H46       1.0  0.95762  0.60769  0.43597  1.0000
