data_image0
_chemical_formula_structural       C5H6C6H6C6H2NH2NO2NC5H2NH2NO2NC5H2NH2NO2NC12H6C6H3C9H3C12H6C6H3C9H3C3HC4HN2H2O2NC3HC4HN2H2O2NC3HC4HN2H2O2N
_chemical_formula_sum              "C102 H60 N18 O12"
_cell_length_a       52.6924
_cell_length_b       52.6981
_cell_length_c       14.8088
_cell_angle_alpha    90
_cell_angle_beta     90
_cell_angle_gamma    119.995

_space_group_name_H-M_alt    "P 1"
_space_group_IT_number       1

loop_
  _space_group_symop_operation_xyz
  'x, y, z'

loop_
  _atom_site_type_symbol
  _atom_site_label
  _atom_site_symmetry_multiplicity
  _atom_site_fract_x
  _atom_site_fract_y
  _atom_site_fract_z
  _atom_site_occupancy
  C   C1        1.0  0.39433  0.59134  0.34328  1.0000
  C   C2        1.0  0.42467  0.80624  0.34106  1.0000
  C   C3        1.0  0.43684  0.83691  0.34338  1.0000
  C   C4        1.0  0.20992  0.62168  0.34089  1.0000
  C   C5        1.0  0.17926  0.60318  0.34321  1.0000
  H   H1        1.0  0.40365  0.55709  0.33537  1.0000
  H   H2        1.0  0.43808  0.79785  0.32702  1.0000
  H   H3        1.0  0.45878  0.84981  0.33102  1.0000
  H   H4        1.0  0.21832  0.64347  0.32674  1.0000
  H   H5        1.0  0.16635  0.61221  0.33074  1.0000
  H   H6        1.0  0.37240  0.57781  0.33149  1.0000
  C   C6        1.0  0.41282  0.57916  0.34549  1.0000
  C   C7        1.0  0.62658  0.42344  0.33379  1.0000
  C   C8        1.0  0.59282  0.20633  0.33168  1.0000
  C   C9        1.0  0.58092  0.17569  0.33477  1.0000
  C   C10       1.0  0.80978  0.38969  0.33153  1.0000
  C   C11       1.0  0.84042  0.40843  0.33463  1.0000
  H   H7        1.0  0.61673  0.45737  0.32640  1.0000
  H   H8        1.0  0.57926  0.21450  0.31710  1.0000
  H   H9        1.0  0.55902  0.16255  0.32222  1.0000
  H   H10       1.0  0.80162  0.36797  0.31680  1.0000
  H   H11       1.0  0.85358  0.39969  0.32194  1.0000
  H   H12       1.0  0.64844  0.43712  0.32140  1.0000
  C   C12       1.0  0.60784  0.43534  0.33677  1.0000
  C   C13       1.0  0.55004  0.46887  0.34799  1.0000
  C   C14       1.0  0.55808  0.49326  0.29105  1.0000
  C   C15       1.0  0.54147  0.50765  0.29287  1.0000
  C   C16       1.0  0.48881  0.51722  0.26842  1.0000
  C   C17       1.0  0.47302  0.53245  0.26590  1.0000
  H   H13       1.0  0.49057  0.50749  0.21070  1.0000
  H   H14       1.0  0.54774  0.52543  0.25165  1.0000
  N   N1        1.0  0.46110  0.53417  0.18615  1.0000
  H   H15       1.0  0.46333  0.52526  0.13133  1.0000
  H   H16       1.0  0.45024  0.54453  0.18092  1.0000
  N   N2        1.0  0.58236  0.50247  0.23244  1.0000
  O   O1        1.0  0.60189  0.52842  0.24850  1.0000
  O   O2        1.0  0.57479  0.50069  0.15115  1.0000
  N   N3        1.0  0.56587  0.45540  0.34611  1.0000
  C   C18       1.0  0.54732  0.08440  0.34821  1.0000
  C   C19       1.0  0.52294  0.06806  0.29117  1.0000
  C   C20       1.0  0.50854  0.03707  0.29292  1.0000
  C   C21       1.0  0.49887  0.97481  0.26856  1.0000
  C   C22       1.0  0.48362  0.94378  0.26611  1.0000
  H   H17       1.0  0.50860  0.98628  0.21082  1.0000
  H   H18       1.0  0.49078  0.02558  0.25166  1.0000
  N   N4        1.0  0.48187  0.93013  0.18638  1.0000
  H   H19       1.0  0.49075  0.94124  0.13152  1.0000
  H   H20       1.0  0.47147  0.90890  0.18118  1.0000
  N   N5        1.0  0.51377  0.08316  0.23254  1.0000
  O   O3        1.0  0.48781  0.07674  0.24851  1.0000
  O   O4        1.0  0.51557  0.07739  0.15125  1.0000
  N   N6        1.0  0.56077  0.11369  0.34646  1.0000
  C   C23       1.0  0.93173  0.46612  0.34821  1.0000
  C   C24       1.0  0.94808  0.45812  0.29107  1.0000
  C   C25       1.0  0.97907  0.47472  0.29281  1.0000
  C   C26       1.0  0.04134  0.52729  0.26854  1.0000
  C   C27       1.0  0.07237  0.54308  0.26609  1.0000
  H   H21       1.0  0.02986  0.52553  0.21079  1.0000
  H   H22       1.0  0.99057  0.46847  0.25149  1.0000
  N   N7        1.0  0.08602  0.55497  0.18636  1.0000
  H   H23       1.0  0.07491  0.55273  0.13149  1.0000
  H   H24       1.0  0.10725  0.56581  0.18117  1.0000
  N   N8        1.0  0.93298  0.43387  0.23236  1.0000
  O   O5        1.0  0.93942  0.41433  0.24820  1.0000
  O   O6        1.0  0.93875  0.44148  0.15109  1.0000
  N   N9        1.0  0.90243  0.45027  0.34646  1.0000
  C   C28       1.0  0.39452  0.78748  0.35784  1.0000
  C   C29       1.0  0.40591  0.62166  0.35722  1.0000
  C   C30       1.0  0.22868  0.61029  0.35784  1.0000
  C   C31       1.0  0.44334  0.59688  0.36162  1.0000
  C   C32       1.0  0.45458  0.62726  0.37564  1.0000
  C   C33       1.0  0.43621  0.63953  0.37344  1.0000
  C   C34       1.0  0.41927  0.84968  0.36243  1.0000
  C   C35       1.0  0.38906  0.83053  0.37932  1.0000
  C   C36       1.0  0.37680  0.79990  0.37704  1.0000
  C   C37       1.0  0.16648  0.57285  0.36243  1.0000
  C   C38       1.0  0.18564  0.56180  0.37947  1.0000
  C   C39       1.0  0.21627  0.58017  0.37719  1.0000
  H   H25       1.0  0.47645  0.64094  0.38764  1.0000
  H   H26       1.0  0.44528  0.66161  0.38388  1.0000
  H   H27       1.0  0.35484  0.78686  0.38957  1.0000
  H   H28       1.0  0.37549  0.83870  0.39348  1.0000
  H   H29       1.0  0.17746  0.54007  0.39376  1.0000
  H   H30       1.0  0.22930  0.57125  0.38984  1.0000
  C   C40       1.0  0.31200  0.65683  0.35398  1.0000
  C   C41       1.0  0.32679  0.68779  0.35404  1.0000
  C   C42       1.0  0.35776  0.70418  0.35399  1.0000
  C   C43       1.0  0.37392  0.68938  0.35395  1.0000
  C   C44       1.0  0.35935  0.65842  0.35389  1.0000
  C   C45       1.0  0.32839  0.64226  0.35395  1.0000
  H   H31       1.0  0.39643  0.70123  0.35416  1.0000
  H   H32       1.0  0.31495  0.69845  0.35433  1.0000
  H   H33       1.0  0.31773  0.61975  0.35415  1.0000
  C   C46       1.0  0.25717  0.62717  0.35580  1.0000
  C   C47       1.0  0.28334  0.64169  0.35462  1.0000
  C   C48       1.0  0.38903  0.63327  0.35541  1.0000
  C   C49       1.0  0.37450  0.64490  0.35440  1.0000
  C   C50       1.0  0.37128  0.73284  0.35463  1.0000
  C   C51       1.0  0.38291  0.75900  0.35580  1.0000
  C   C52       1.0  0.13622  0.55388  0.36564  1.0000
  C   C53       1.0  0.43055  0.87993  0.36564  1.0000
  C   C54       1.0  0.46229  0.58557  0.36488  1.0000
  H   H34       1.0  0.48314  0.59890  0.38207  1.0000
  H   H35       1.0  0.41724  0.88744  0.38327  1.0000
  H   H36       1.0  0.12871  0.53307  0.38323  1.0000
  C   C55       1.0  0.62294  0.22538  0.34824  1.0000
  C   C56       1.0  0.61532  0.39316  0.34760  1.0000
  C   C57       1.0  0.79073  0.40075  0.34828  1.0000
  C   C58       1.0  0.57740  0.41736  0.35355  1.0000
  C   C59       1.0  0.56650  0.38702  0.36740  1.0000
  C   C60       1.0  0.58510  0.37504  0.36449  1.0000
  C   C61       1.0  0.59876  0.16327  0.35437  1.0000
  C   C62       1.0  0.62893  0.18272  0.37102  1.0000
  C   C63       1.0  0.64090  0.21329  0.36804  1.0000
  C   C64       1.0  0.85285  0.43868  0.35444  1.0000
  C   C65       1.0  0.83339  0.44938  0.37128  1.0000
  C   C66       1.0  0.80282  0.43078  0.36828  1.0000
  H   H37       1.0  0.54469  0.37314  0.37986  1.0000
  H   H38       1.0  0.57624  0.35297  0.37483  1.0000
  H   H39       1.0  0.66286  0.22652  0.38038  1.0000
  H   H40       1.0  0.64271  0.17481  0.38557  1.0000
  H   H41       1.0  0.84130  0.47105  0.38598  1.0000
  H   H42       1.0  0.78959  0.43950  0.38076  1.0000
  C   C67       1.0  0.70739  0.35525  0.34282  1.0000
  C   C68       1.0  0.69175  0.32428  0.34290  1.0000
  C   C69       1.0  0.66076  0.30871  0.34282  1.0000
  C   C70       1.0  0.64544  0.32435  0.34280  1.0000
  C   C71       1.0  0.66085  0.35534  0.34273  1.0000
  C   C72       1.0  0.69182  0.37066  0.34280  1.0000
  H   H43       1.0  0.62292  0.31311  0.34310  1.0000
  H   H44       1.0  0.70300  0.31301  0.34327  1.0000
  H   H45       1.0  0.70309  0.39318  0.34310  1.0000
  C   C73       1.0  0.76226  0.38380  0.34537  1.0000
  C   C74       1.0  0.73607  0.36965  0.34372  1.0000
  C   C75       1.0  0.63229  0.38165  0.34496  1.0000
  C   C76       1.0  0.64645  0.36961  0.34349  1.0000
  C   C77       1.0  0.64649  0.28004  0.34371  1.0000
  C   C78       1.0  0.63445  0.25385  0.34535  1.0000
  C   C79       1.0  0.88303  0.45804  0.35782  1.0000
  C   C80       1.0  0.58795  0.13309  0.35775  1.0000
  C   C81       1.0  0.55806  0.42820  0.35706  1.0000
  H   H46       1.0  0.53691  0.41403  0.36738  1.0000
  H   H47       1.0  0.60213  0.12614  0.36831  1.0000
  H   H48       1.0  0.88998  0.47917  0.36843  1.0000
  C   C82       1.0  0.51690  0.49835  0.35023  1.0000
  C   C83       1.0  0.50872  0.47374  0.40769  1.0000
  C   C84       1.0  0.52583  0.45987  0.40658  1.0000
  H   H49       1.0  0.52026  0.44249  0.44880  1.0000
  C   C85       1.0  0.50161  0.51440  0.34881  1.0000
  C   C86       1.0  0.47019  0.54548  0.34662  1.0000
  C   C87       1.0  0.48281  0.54277  0.42822  1.0000
  C   C88       1.0  0.49882  0.52777  0.42782  1.0000
  H   H50       1.0  0.50797  0.52607  0.48686  1.0000
  N   N10       1.0  0.47857  0.55446  0.50921  1.0000
  N   N11       1.0  0.48457  0.46219  0.46179  1.0000
  H   H51       1.0  0.47917  0.44497  0.49889  1.0000
  H   H52       1.0  0.47077  0.46929  0.46055  1.0000
  O   O7        1.0  0.46489  0.53475  0.56691  1.0000
  O   O8        1.0  0.50253  0.57342  0.54284  1.0000
  N   N12       1.0  0.45426  0.55876  0.34575  1.0000
  C   C89       1.0  0.51781  0.02177  0.35031  1.0000
  C   C90       1.0  0.54242  0.03819  0.40785  1.0000
  C   C91       1.0  0.55629  0.06917  0.40682  1.0000
  H   H53       1.0  0.57365  0.08096  0.44912  1.0000
  C   C92       1.0  0.50173  0.99045  0.34894  1.0000
  C   C93       1.0  0.47060  0.92795  0.34688  1.0000
  C   C94       1.0  0.47335  0.94330  0.42846  1.0000
  C   C95       1.0  0.48836  0.97430  0.42798  1.0000
  H   H54       1.0  0.49010  0.98517  0.48702  1.0000
  N   N13       1.0  0.46169  0.92739  0.50951  1.0000
  N   N14       1.0  0.55394  0.02558  0.46198  1.0000
  H   H55       1.0  0.57115  0.03738  0.49913  1.0000
  H   H56       1.0  0.54685  0.00468  0.46067  1.0000
  O   O9        1.0  0.48144  0.93343  0.56709  1.0000
  O   O10       1.0  0.44277  0.93243  0.54326  1.0000
  N   N15       1.0  0.45732  0.89873  0.34605  1.0000
  C   C96       1.0  0.99437  0.49926  0.35029  1.0000
  C   C97       1.0  0.97794  0.50741  0.40791  1.0000
  C   C98       1.0  0.94696  0.49029  0.40692  1.0000
  H   H57       1.0  0.93515  0.49582  0.44930  1.0000
  C   C99       1.0  0.02569  0.51451  0.34892  1.0000
  C   C100      1.0  0.08820  0.54591  0.34688  1.0000
  C   C101      1.0  0.07285  0.53331  0.42846  1.0000
  C   C102      1.0  0.04185  0.51731  0.42796  1.0000
  H   H58       1.0  0.03098  0.50818  0.48702  1.0000
  N   N16       1.0  0.08876  0.53758  0.50952  1.0000
  N   N17       1.0  0.99055  0.53151  0.46218  1.0000
  H   H59       1.0  0.97872  0.53699  0.49894  1.0000
  H   H60       1.0  0.01142  0.54541  0.46032  1.0000
  O   O11       1.0  0.08270  0.55127  0.56709  1.0000
  O   O12       1.0  0.08374  0.51363  0.54329  1.0000
  N   N18       1.0  0.11742  0.56185  0.34606  1.0000
