data_image0
_chemical_formula_structural       C14H12C7NC12H12C2NC3NC3NC15H14C2H2C2H2C2H2C2H2C2H2C2H2C3NC2NC5NC3NC17H14CNC2NC4NC18H14C2NC19H12C4NC2NHOHC4NC2NHOHC4NC2NHOHC4NC2NHOHC4NC2NHOHC4NC2NHOH
_chemical_formula_sum              "C180 H102 N24 O6"
_cell_length_a       41.877
_cell_length_b       41.877
_cell_length_c       15.0157
_cell_angle_alpha    90.0372
_cell_angle_beta     89.9628
_cell_angle_gamma    120

_space_group_name_H-M_alt    "P 1"
_space_group_IT_number       1

loop_
  _space_group_symop_operation_xyz
  'x, y, z'

loop_
  _atom_site_type_symbol
  _atom_site_label
  _atom_site_symmetry_multiplicity
  _atom_site_fract_x
  _atom_site_fract_y
  _atom_site_fract_z
  _atom_site_occupancy
  C   C1        1.0  0.94912  0.54852  0.32487  1.0000
  C   C2        1.0  0.09809  0.53595  0.32450  1.0000
  C   C3        1.0  0.11019  0.57437  0.32441  1.0000
  C   C4        1.0  0.14708  0.63590  0.32176  1.0000
  C   C5        1.0  0.14685  0.60297  0.32560  1.0000
  C   C6        1.0  0.15788  0.75628  0.27237  1.0000
  C   C7        1.0  0.13102  0.71872  0.26503  1.0000
  C   C8        1.0  0.12580  0.52530  0.32569  1.0000
  C   C9        1.0  0.18157  0.52912  0.26266  1.0000
  C   C10       1.0  0.15178  0.53558  0.25602  1.0000
  C   C11       1.0  0.92848  0.40421  0.26502  1.0000
  C   C12       1.0  0.90184  0.36659  0.27237  1.0000
  C   C13       1.0  0.90757  0.58717  0.25581  1.0000
  C   C14       1.0  0.87765  0.59341  0.26236  1.0000
  H   H1        1.0  0.85785  0.58191  0.21417  1.0000
  H   H2        1.0  0.90871  0.57242  0.20270  1.0000
  H   H3        1.0  0.99619  0.66581  0.32554  1.0000
  H   H4        1.0  0.94602  0.41274  0.21159  1.0000
  H   H5        1.0  0.90144  0.34911  0.22426  1.0000
  H   H6        1.0  0.06310  0.45708  0.32583  1.0000
  H   H7        1.0  0.17060  0.66103  0.32002  1.0000
  H   H8        1.0  0.17022  0.60110  0.32760  1.0000
  H   H9        1.0  0.15075  0.55032  0.20282  1.0000
  H   H10       1.0  0.20137  0.54046  0.21442  1.0000
  H   H11       1.0  0.11359  0.71026  0.21144  1.0000
  H   H12       1.0  0.15851  0.77380  0.22414  1.0000
  C   C15       1.0  0.43741  0.45041  0.32562  1.0000
  C   C16       1.0  0.44440  0.50731  0.32681  1.0000
  C   C17       1.0  0.54191  0.49252  0.32441  1.0000
  C   C18       1.0  0.61357  0.61294  0.32720  1.0000
  C   C19       1.0  0.62056  0.66984  0.32596  1.0000
  C   C20       1.0  0.55449  0.65407  0.32414  1.0000
  C   C21       1.0  0.51607  0.62776  0.32408  1.0000
  N   N1        1.0  0.49940  0.59048  0.32429  1.0000
  C   C22       1.0  0.45454  0.60311  0.32158  1.0000
  C   C23       1.0  0.48748  0.63581  0.32515  1.0000
  C   C24       1.0  0.33416  0.49352  0.27216  1.0000
  C   C25       1.0  0.37172  0.50423  0.26474  1.0000
  C   C26       1.0  0.56516  0.69244  0.32532  1.0000
  C   C27       1.0  0.58161  0.76799  0.33405  1.0000
  C   C28       1.0  0.56137  0.74436  0.26224  1.0000
  C   C29       1.0  0.55487  0.70811  0.25567  1.0000
  C   C30       1.0  0.68623  0.61616  0.26485  1.0000
  C   C31       1.0  0.72384  0.62708  0.27217  1.0000
  C   C32       1.0  0.50327  0.41229  0.25539  1.0000
  C   C33       1.0  0.49704  0.37613  0.26198  1.0000
  H   H13       1.0  0.50854  0.36782  0.21380  1.0000
  H   H14       1.0  0.51802  0.42814  0.20228  1.0000
  H   H15       1.0  0.42461  0.42231  0.32519  1.0000
  H   H16       1.0  0.67770  0.62511  0.21138  1.0000
  H   H17       1.0  0.74133  0.64413  0.22407  1.0000
  H   H18       1.0  0.63337  0.69795  0.32534  1.0000
  H   H19       1.0  0.42941  0.60150  0.31956  1.0000
  H   H20       1.0  0.48934  0.66105  0.32714  1.0000
  H   H21       1.0  0.54016  0.69234  0.20241  1.0000
  H   H22       1.0  0.55001  0.75280  0.21402  1.0000
  H   H23       1.0  0.38016  0.49520  0.21118  1.0000
  H   H24       1.0  0.31662  0.47657  0.22400  1.0000
  C   C34       1.0  0.64004  0.07895  0.32566  1.0000
  C   C35       1.0  0.58315  0.02904  0.32662  1.0000
  N   N2        1.0  0.58108  0.06037  0.32389  1.0000
  C   C36       1.0  0.62425  0.12924  0.32407  1.0000
  C   C37       1.0  0.59793  0.14133  0.32415  1.0000
  C   C38       1.0  0.47750  0.09256  0.32682  1.0000
  N   N3        1.0  0.47956  0.06122  0.32389  1.0000
  C   C39       1.0  0.42061  0.04264  0.32574  1.0000
  C   C40       1.0  0.43638  0.99235  0.32397  1.0000
  C   C41       1.0  0.46270  0.98025  0.32388  1.0000
  N   N4        1.0  0.49998  0.00086  0.32409  1.0000
  C   C42       1.0  0.48735  0.94337  0.32132  1.0000
  C   C43       1.0  0.45465  0.94360  0.32488  1.0000
  C   C44       1.0  0.56467  0.96336  0.33131  1.0000
  C   C45       1.0  0.58393  0.90641  0.34207  1.0000
  C   C46       1.0  0.59695  0.93257  0.27181  1.0000
  C   C47       1.0  0.58626  0.95943  0.26444  1.0000
  C   C48       1.0  0.39802  0.96465  0.32524  1.0000
  C   C49       1.0  0.32249  0.90555  0.33418  1.0000
  C   C50       1.0  0.34610  0.90887  0.26235  1.0000
  C   C51       1.0  0.38231  0.93868  0.25554  1.0000
  C   C52       1.0  0.47426  0.16196  0.26452  1.0000
  C   C53       1.0  0.46332  0.18864  0.27188  1.0000
  C   C54       1.0  0.67820  0.18291  0.25541  1.0000
  C   C55       1.0  0.73798  0.21635  0.33398  1.0000
  C   C56       1.0  0.71435  0.21284  0.26212  1.0000
  H   H25       1.0  0.72271  0.23264  0.21391  1.0000
  H   H26       1.0  0.66238  0.18180  0.20223  1.0000
  H   H27       1.0  0.66815  0.09426  0.32493  1.0000
  H   H28       1.0  0.55827  0.06055  0.32142  1.0000
  H   H29       1.0  0.50237  0.06105  0.32133  1.0000
  H   H30       1.0  0.46531  0.14447  0.21102  1.0000
  H   H31       1.0  0.44628  0.18906  0.22375  1.0000
  H   H32       1.0  0.39250  0.02734  0.32523  1.0000
  H   H33       1.0  0.48897  0.91985  0.31916  1.0000
  H   H34       1.0  0.42941  0.92022  0.32682  1.0000
  H   H35       1.0  0.39810  0.93965  0.20238  1.0000
  H   H36       1.0  0.33764  0.88904  0.21417  1.0000
  H   H37       1.0  0.59526  0.97686  0.21086  1.0000
  H   H38       1.0  0.61390  0.93196  0.22363  1.0000
  C   C57       1.0  0.23325  0.50036  0.26231  1.0000
  C   C58       1.0  0.26664  0.50026  0.26398  1.0000
  H   H39       1.0  0.27917  0.50239  0.20407  1.0000
  H   H40       1.0  0.22254  0.50019  0.20103  1.0000
  C   C59       1.0  0.59011  0.82480  0.26194  1.0000
  C   C60       1.0  0.59022  0.85830  0.26362  1.0000
  H   H41       1.0  0.58811  0.86868  0.20371  1.0000
  H   H42       1.0  0.59030  0.81425  0.20066  1.0000
  C   C61       1.0  0.26566  0.85717  0.26220  1.0000
  C   C62       1.0  0.23217  0.82378  0.26397  1.0000
  H   H43       1.0  0.22177  0.81123  0.20408  1.0000
  H   H44       1.0  0.27619  0.86786  0.20090  1.0000
  C   C63       1.0  0.82542  0.62149  0.26218  1.0000
  C   C64       1.0  0.79179  0.62111  0.26392  1.0000
  H   H45       1.0  0.77928  0.61893  0.20399  1.0000
  H   H46       1.0  0.83625  0.62186  0.20090  1.0000
  C   C65       1.0  0.46900  0.29584  0.26186  1.0000
  C   C66       1.0  0.46929  0.26255  0.26360  1.0000
  H   H47       1.0  0.47150  0.25220  0.20368  1.0000
  H   H48       1.0  0.46858  0.30625  0.20057  1.0000
  C   C67       1.0  0.79467  0.26503  0.26215  1.0000
  C   C68       1.0  0.82795  0.29864  0.26399  1.0000
  H   H49       1.0  0.83830  0.31119  0.20409  1.0000
  H   H50       1.0  0.78426  0.25425  0.20082  1.0000
  C   C69       1.0  0.01150  0.65302  0.32623  1.0000
  C   C70       1.0  0.04939  0.67170  0.33093  1.0000
  C   C71       1.0  0.06142  0.64604  0.32718  1.0000
  N   N5        1.0  0.03008  0.61264  0.32446  1.0000
  C   C72       1.0  0.99902  0.61521  0.32513  1.0000
  C   C73       1.0  0.96122  0.58694  0.32469  1.0000
  N   N6        1.0  0.96971  0.53184  0.32501  1.0000
  C   C74       1.0  0.94871  0.49459  0.32483  1.0000
  C   C75       1.0  0.91222  0.48699  0.32249  1.0000
  C   C76       1.0  0.91246  0.51992  0.32617  1.0000
  C   C77       1.0  0.96023  0.46785  0.32713  1.0000
  C   C78       1.0  0.99789  0.47687  0.32736  1.0000
  N   N7        1.0  0.02922  0.51026  0.32440  1.0000
  C   C79       1.0  0.06029  0.50769  0.32503  1.0000
  C   C80       1.0  0.04780  0.46988  0.32616  1.0000
  C   C81       1.0  0.00992  0.45121  0.33125  1.0000
  N   N8        1.0  0.08959  0.59105  0.32459  1.0000
  C   C82       1.0  0.11059  0.62829  0.32431  1.0000
  C   C83       1.0  0.09907  0.65504  0.32683  1.0000
  C   C84       1.0  0.12710  0.69324  0.33190  1.0000
  C   C85       1.0  0.15212  0.70640  0.40398  1.0000
  C   C86       1.0  0.18129  0.74303  0.40584  1.0000
  C   C87       1.0  0.18409  0.76944  0.34255  1.0000
  C   C88       1.0  0.12872  0.50519  0.39766  1.0000
  C   C89       1.0  0.15636  0.49545  0.39909  1.0000
  C   C90       1.0  0.18489  0.50885  0.33443  1.0000
  C   C91       1.0  0.93222  0.42963  0.33195  1.0000
  C   C92       1.0  0.87560  0.35326  0.34253  1.0000
  C   C93       1.0  0.87810  0.37962  0.40570  1.0000
  C   C94       1.0  0.90709  0.41634  0.40385  1.0000
  C   C95       1.0  0.93350  0.59758  0.32558  1.0000
  C   C96       1.0  0.93043  0.61769  0.39744  1.0000
  C   C97       1.0  0.90262  0.62719  0.39881  1.0000
  C   C98       1.0  0.87409  0.61356  0.33418  1.0000
  H   H51       1.0  0.90349  0.64396  0.44918  1.0000
  H   H52       1.0  0.94899  0.62627  0.44875  1.0000
  H   H53       1.0  0.06496  0.69973  0.33518  1.0000
  H   H54       1.0  0.02990  0.58964  0.32207  1.0000
  H   H55       1.0  0.02940  0.53325  0.32188  1.0000
  H   H56       1.0  0.88909  0.52180  0.32814  1.0000
  H   H57       1.0  0.88869  0.46186  0.32058  1.0000
  H   H58       1.0  0.90841  0.43390  0.45304  1.0000
  H   H59       1.0  0.85870  0.37248  0.45457  1.0000
  H   H60       1.0  0.99436  0.42319  0.33584  1.0000
  H   H61       1.0  0.11013  0.49669  0.44890  1.0000
  H   H62       1.0  0.15530  0.47860  0.44940  1.0000
  H   H63       1.0  0.20066  0.75004  0.45471  1.0000
  H   H64       1.0  0.15070  0.68878  0.45306  1.0000
  C   C99       1.0  0.41874  0.46963  0.33067  1.0000
  N   N9        1.0  0.47780  0.50937  0.32403  1.0000
  C   C100      1.0  0.47522  0.47573  0.32466  1.0000
  C   C101      1.0  0.50349  0.46620  0.32423  1.0000
  N   N10       1.0  0.55860  0.52980  0.32464  1.0000
  C   C102      1.0  0.59584  0.54604  0.32452  1.0000
  C   C103      1.0  0.60344  0.51715  0.32219  1.0000
  C   C104      1.0  0.57050  0.48446  0.32575  1.0000
  C   C105      1.0  0.62259  0.58430  0.32693  1.0000
  N   N11       1.0  0.58018  0.61089  0.32425  1.0000
  C   C106      1.0  0.58275  0.64452  0.32479  1.0000
  C   C107      1.0  0.63923  0.65064  0.33115  1.0000
  C   C108      1.0  0.46215  0.57423  0.32403  1.0000
  C   C109      1.0  0.43540  0.53596  0.32651  1.0000
  C   C110      1.0  0.39720  0.52579  0.33162  1.0000
  C   C111      1.0  0.38405  0.53768  0.40373  1.0000
  C   C112      1.0  0.34742  0.53021  0.40566  1.0000
  C   C113      1.0  0.32098  0.50653  0.34244  1.0000
  C   C114      1.0  0.58527  0.71551  0.39728  1.0000
  C   C115      1.0  0.59500  0.75288  0.39873  1.0000
  C   C116      1.0  0.66080  0.59451  0.33177  1.0000
  C   C117      1.0  0.73715  0.61420  0.34236  1.0000
  C   C118      1.0  0.71078  0.59040  0.40554  1.0000
  C   C119      1.0  0.67407  0.58270  0.40372  1.0000
  C   C120      1.0  0.49285  0.42785  0.32513  1.0000
  C   C121      1.0  0.47274  0.40471  0.39699  1.0000
  C   C122      1.0  0.46325  0.36740  0.39842  1.0000
  C   C123      1.0  0.47689  0.35247  0.33380  1.0000
  H   H65       1.0  0.44649  0.35154  0.44880  1.0000
  H   H66       1.0  0.46416  0.41471  0.44831  1.0000
  H   H67       1.0  0.39071  0.45717  0.33481  1.0000
  H   H68       1.0  0.50079  0.53218  0.32160  1.0000
  H   H69       1.0  0.55719  0.58808  0.32170  1.0000
  H   H70       1.0  0.56863  0.45922  0.32779  1.0000
  H   H71       1.0  0.62857  0.51875  0.32036  1.0000
  H   H72       1.0  0.65649  0.56646  0.45284  1.0000
  H   H73       1.0  0.71791  0.57814  0.45440  1.0000
  H   H74       1.0  0.66725  0.66310  0.33543  1.0000
  H   H75       1.0  0.59375  0.70543  0.44856  1.0000
  H   H76       1.0  0.61184  0.76869  0.44907  1.0000
  H   H77       1.0  0.34041  0.54257  0.45458  1.0000
  H   H78       1.0  0.40168  0.55390  0.45280  1.0000
  C   C124      1.0  0.62084  0.04107  0.33049  1.0000
  C   C125      1.0  0.61472  0.09144  0.32457  1.0000
  N   N12       1.0  0.56065  0.12074  0.32433  1.0000
  C   C126      1.0  0.54441  0.14174  0.32413  1.0000
  C   C127      1.0  0.57329  0.17823  0.32180  1.0000
  C   C128      1.0  0.60598  0.17799  0.32544  1.0000
  C   C129      1.0  0.50614  0.13021  0.32652  1.0000
  C   C130      1.0  0.44593  0.03016  0.32455  1.0000
  C   C131      1.0  0.43981  0.08052  0.33081  1.0000
  C   C132      1.0  0.51623  0.97986  0.32378  1.0000
  C   C133      1.0  0.55450  0.99139  0.32622  1.0000
  C   C134      1.0  0.55278  0.93834  0.40340  1.0000
  C   C135      1.0  0.56026  0.90919  0.40531  1.0000
  C   C136      1.0  0.37498  0.96174  0.39724  1.0000
  C   C137      1.0  0.33760  0.93411  0.39877  1.0000
  C   C138      1.0  0.49592  0.15822  0.33140  1.0000
  C   C139      1.0  0.47619  0.21485  0.34209  1.0000
  C   C140      1.0  0.50002  0.21234  0.40521  1.0000
  C   C141      1.0  0.50775  0.18334  0.40332  1.0000
  C   C142      1.0  0.66261  0.15696  0.32511  1.0000
  C   C143      1.0  0.68570  0.16000  0.39705  1.0000
  C   C144      1.0  0.72301  0.18780  0.39856  1.0000
  H   H79       1.0  0.73886  0.18690  0.44894  1.0000
  H   H80       1.0  0.67568  0.14141  0.44830  1.0000
  H   H81       1.0  0.63329  0.02549  0.33450  1.0000
  H   H82       1.0  0.63122  0.20136  0.32750  1.0000
  H   H83       1.0  0.57168  0.20176  0.31992  1.0000
  H   H84       1.0  0.52398  0.18203  0.45247  1.0000
  H   H85       1.0  0.51229  0.23174  0.45406  1.0000
  H   H86       1.0  0.42734  0.09608  0.33519  1.0000
  H   H87       1.0  0.38508  0.98034  0.44850  1.0000
  H   H88       1.0  0.32181  0.93517  0.44915  1.0000
  H   H89       1.0  0.54790  0.88983  0.45421  1.0000
  H   H90       1.0  0.53656  0.93977  0.45247  1.0000
  C   C145      1.0  0.28363  0.49969  0.34492  1.0000
  C   C146      1.0  0.26427  0.49705  0.42545  1.0000
  C   C147      1.0  0.23256  0.50150  0.42302  1.0000
  C   C148      1.0  0.21629  0.50331  0.34111  1.0000
  N   N13       1.0  0.21880  0.50450  0.50273  1.0000
  C   C149      1.0  0.23132  0.50121  0.58312  1.0000
  C   C150      1.0  0.25962  0.49267  0.58522  1.0000
  N   N14       1.0  0.27494  0.49074  0.50704  1.0000
  H   H91       1.0  0.21903  0.50302  0.64016  1.0000
  O   O1        1.0  0.27157  0.48698  0.66413  1.0000
  H   H92       1.0  0.29379  0.48373  0.51084  1.0000
  C   C151      1.0  0.59078  0.87590  0.34454  1.0000
  C   C152      1.0  0.59340  0.85920  0.42507  1.0000
  C   C153      1.0  0.58895  0.82304  0.42265  1.0000
  C   C154      1.0  0.58715  0.80493  0.34074  1.0000
  N   N15       1.0  0.58594  0.80632  0.50235  1.0000
  C   C155      1.0  0.58922  0.82216  0.58275  1.0000
  C   C156      1.0  0.59777  0.85900  0.58485  1.0000
  N   N16       1.0  0.59972  0.87622  0.50667  1.0000
  H   H93       1.0  0.58740  0.80808  0.63979  1.0000
  O   O2        1.0  0.60346  0.87668  0.66376  1.0000
  H   H94       1.0  0.60674  0.90209  0.51048  1.0000
  C   C157      1.0  0.21460  0.80680  0.34494  1.0000
  C   C158      1.0  0.23130  0.82619  0.42542  1.0000
  C   C159      1.0  0.26746  0.85791  0.42291  1.0000
  C   C160      1.0  0.28555  0.87414  0.34096  1.0000
  N   N17       1.0  0.28420  0.87169  0.50257  1.0000
  C   C161      1.0  0.26836  0.85924  0.58299  1.0000
  C   C162      1.0  0.23155  0.83089  0.58520  1.0000
  N   N18       1.0  0.21431  0.81555  0.50705  1.0000
  H   H95       1.0  0.28250  0.87146  0.64002  1.0000
  O   O3        1.0  0.21391  0.81893  0.66415  1.0000
  H   H96       1.0  0.18845  0.79668  0.51092  1.0000
  C   C163      1.0  0.77462  0.62140  0.34486  1.0000
  C   C164      1.0  0.79403  0.62424  0.42539  1.0000
  C   C165      1.0  0.82602  0.62024  0.42289  1.0000
  C   C166      1.0  0.84245  0.61871  0.34094  1.0000
  N   N19       1.0  0.83987  0.61740  0.50254  1.0000
  C   C167      1.0  0.82721  0.62051  0.58297  1.0000
  C   C168      1.0  0.79857  0.62854  0.58519  1.0000
  N   N20       1.0  0.78317  0.63032  0.50705  1.0000
  H   H97       1.0  0.83949  0.61870  0.63999  1.0000
  O   O4        1.0  0.78639  0.63393  0.66416  1.0000
  H   H98       1.0  0.76410  0.63703  0.51094  1.0000
  C   C169      1.0  0.46902  0.24515  0.34457  1.0000
  C   C170      1.0  0.46620  0.26178  0.42509  1.0000
  C   C171      1.0  0.47020  0.29776  0.42256  1.0000
  C   C172      1.0  0.47173  0.31568  0.34060  1.0000
  N   N21       1.0  0.47303  0.31449  0.50220  1.0000
  C   C173      1.0  0.46993  0.29878  0.58264  1.0000
  C   C174      1.0  0.46191  0.26210  0.58489  1.0000
  N   N22       1.0  0.46013  0.24488  0.50677  1.0000
  H   H99       1.0  0.47174  0.31290  0.63965  1.0000
  O   O5        1.0  0.45652  0.24458  0.66388  1.0000
  H   H100      1.0  0.45342  0.21911  0.51068  1.0000
  C   C175      1.0  0.84535  0.31576  0.34498  1.0000
  C   C176      1.0  0.82867  0.29635  0.42545  1.0000
  C   C177      1.0  0.79268  0.26438  0.42284  1.0000
  C   C178      1.0  0.77479  0.24797  0.34085  1.0000
  N   N23       1.0  0.77591  0.25051  0.50245  1.0000
  C   C179      1.0  0.79160  0.26315  0.58292  1.0000
  C   C180      1.0  0.82827  0.29179  0.58526  1.0000
  N   N24       1.0  0.84553  0.30719  0.50717  1.0000
  H   H101      1.0  0.77745  0.25086  0.63990  1.0000
  O   O6        1.0  0.84577  0.30394  0.66428  1.0000
  H   H102      1.0  0.87131  0.32626  0.51114  1.0000
