data_image0
_chemical_formula_structural       C4HCNHNH2C4HCNHNH2C4HCNHNH2CNC4H2NH2CNC4H2NH2CNC4H2NH2C24H15C24H15C24H15C24H15CNC4H2NH2CNC4H2NH2CNC4H2NH2C4HCNHNH2C4HCNHNH2C4HCNHNH2
_chemical_formula_sum              "C156 H108 N24"
_cell_length_a       57.4958
_cell_length_b       57.4957
_cell_length_c       14.9263
_cell_angle_alpha    90
_cell_angle_beta     90
_cell_angle_gamma    120

_space_group_name_H-M_alt    "P 1"
_space_group_IT_number       1

loop_
  _space_group_symop_operation_xyz
  'x, y, z'

loop_
  _atom_site_type_symbol
  _atom_site_label
  _atom_site_symmetry_multiplicity
  _atom_site_fract_x
  _atom_site_fract_y
  _atom_site_fract_z
  _atom_site_occupancy
  C   C1        1.0  0.14208  0.07071  0.33371  1.0000
  C   C2        1.0  0.19941  0.09705  0.33813  1.0000
  C   C3        1.0  0.18547  0.08183  0.26106  1.0000
  C   C4        1.0  0.15704  0.06937  0.26033  1.0000
  H   H1        1.0  0.14702  0.05885  0.20441  1.0000
  C   C5        1.0  0.26956  0.14284  0.27657  1.0000
  N   N1        1.0  0.24242  0.12758  0.27826  1.0000
  H   H2        1.0  0.27828  0.15326  0.21923  1.0000
  N   N2        1.0  0.19789  0.07774  0.19015  1.0000
  H   H3        1.0  0.18764  0.06658  0.13969  1.0000
  H   H4        1.0  0.21694  0.08377  0.19064  1.0000
  C   C6        1.0  0.92476  0.07135  0.32855  1.0000
  C   C7        1.0  0.89892  0.10282  0.33263  1.0000
  C   C8        1.0  0.91325  0.10312  0.25430  1.0000
  C   C9        1.0  0.92547  0.08693  0.25384  1.0000
  H   H5        1.0  0.93536  0.08674  0.19714  1.0000
  C   C10       1.0  0.85304  0.12726  0.27315  1.0000
  N   N3        1.0  0.86816  0.11523  0.27428  1.0000
  H   H6        1.0  0.84215  0.12520  0.21668  1.0000
  N   N4        1.0  0.91668  0.11889  0.18177  1.0000
  H   H7        1.0  0.92741  0.11927  0.13070  1.0000
  H   H8        1.0  0.91100  0.13218  0.18209  1.0000
  C   C11       1.0  0.92475  0.85481  0.33593  1.0000
  C   C12       1.0  0.89323  0.79782  0.33684  1.0000
  C   C13       1.0  0.89453  0.81217  0.25723  1.0000
  C   C14       1.0  0.91075  0.84058  0.25836  1.0000
  H   H9        1.0  0.91147  0.85126  0.20245  1.0000
  C   C15       1.0  0.86993  0.72767  0.27776  1.0000
  N   N5        1.0  0.88185  0.75481  0.27927  1.0000
  H   H10       1.0  0.87303  0.71904  0.22268  1.0000
  N   N6        1.0  0.88017  0.80018  0.18189  1.0000
  H   H11       1.0  0.88106  0.81069  0.12951  1.0000
  H   H12       1.0  0.86705  0.78117  0.17996  1.0000
  C   C16       1.0  0.53298  0.16485  0.25488  1.0000
  N   N7        1.0  0.55367  0.16017  0.26456  1.0000
  C   C17       1.0  0.58495  0.15239  0.34231  1.0000
  C   C18       1.0  0.59228  0.13981  0.27444  1.0000
  C   C19       1.0  0.61878  0.14404  0.27578  1.0000
  C   C20       1.0  0.63753  0.15970  0.34272  1.0000
  H   H13       1.0  0.62451  0.13536  0.22716  1.0000
  H   H14       1.0  0.52935  0.16948  0.19229  1.0000
  N   N8        1.0  0.57502  0.12375  0.20983  1.0000
  H   H15       1.0  0.55615  0.11852  0.21068  1.0000
  H   H16       1.0  0.58048  0.11492  0.16577  1.0000
  C   C21       1.0  0.83168  0.36949  0.25483  1.0000
  N   N9        1.0  0.83635  0.39486  0.26457  1.0000
  C   C22       1.0  0.84414  0.43391  0.34232  1.0000
  C   C23       1.0  0.85680  0.45387  0.27465  1.0000
  C   C24       1.0  0.85262  0.47617  0.27611  1.0000
  C   C25       1.0  0.83692  0.47924  0.34292  1.0000
  H   H17       1.0  0.86140  0.49064  0.22769  1.0000
  H   H18       1.0  0.82700  0.36122  0.19225  1.0000
  N   N10       1.0  0.87294  0.45273  0.21023  1.0000
  H   H19       1.0  0.87797  0.43893  0.21047  1.0000
  H   H20       1.0  0.88167  0.46693  0.16584  1.0000
  C   C26       1.0  0.62731  0.46362  0.25397  1.0000
  N   N11       1.0  0.60193  0.44295  0.26373  1.0000
  C   C27       1.0  0.56283  0.41175  0.34155  1.0000
  C   C28       1.0  0.54293  0.40440  0.27365  1.0000
  C   C29       1.0  0.52066  0.37791  0.27509  1.0000
  C   C30       1.0  0.51757  0.35918  0.34209  1.0000
  H   H21       1.0  0.50624  0.37217  0.22647  1.0000
  H   H22       1.0  0.63559  0.46719  0.19141  1.0000
  N   N12       1.0  0.54411  0.42165  0.20903  1.0000
  H   H23       1.0  0.55788  0.44048  0.20930  1.0000
  H   H24       1.0  0.52994  0.41614  0.16450  1.0000
  C   C31       1.0  0.98234  0.01271  0.33509  1.0000
  C   C32       1.0  0.01085  0.02640  0.33569  1.0000
  C   C33       1.0  0.02582  0.01289  0.33724  1.0000
  C   C34       1.0  0.01106  0.98442  0.33860  1.0000
  C   C35       1.0  0.98267  0.96978  0.33801  1.0000
  C   C36       1.0  0.96875  0.98425  0.33633  1.0000
  C   C37       1.0  0.05482  0.02741  0.33666  1.0000
  C   C38       1.0  0.06998  0.05228  0.38173  1.0000
  C   C39       1.0  0.09829  0.06650  0.38006  1.0000
  C   C40       1.0  0.11309  0.05650  0.33425  1.0000
  C   C41       1.0  0.09789  0.03151  0.28990  1.0000
  C   C42       1.0  0.06960  0.01751  0.29033  1.0000
  C   C43       1.0  0.96776  0.02711  0.33271  1.0000
  C   C44       1.0  0.97734  0.05133  0.28380  1.0000
  C   C45       1.0  0.96340  0.06568  0.28278  1.0000
  C   C46       1.0  0.93881  0.05641  0.32926  1.0000
  C   C47       1.0  0.92910  0.03205  0.37750  1.0000
  C   C48       1.0  0.94325  0.01789  0.37960  1.0000
  C   C49       1.0  0.96846  0.94108  0.33822  1.0000
  C   C50       1.0  0.94866  0.92638  0.40362  1.0000
  C   C51       1.0  0.93475  0.89807  0.40399  1.0000
  C   C52       1.0  0.93969  0.88348  0.33765  1.0000
  C   C53       1.0  0.95930  0.89819  0.27171  1.0000
  C   C54       1.0  0.97370  0.92649  0.27271  1.0000
  H   H25       1.0  0.97192  0.08344  0.24847  1.0000
  H   H26       1.0  0.99465  0.05884  0.24717  1.0000
  H   H27       1.0  0.91129  0.02405  0.41144  1.0000
  H   H28       1.0  0.93550  0.00080  0.41749  1.0000
  H   H29       1.0  0.94442  0.93621  0.45246  1.0000
  H   H30       1.0  0.92042  0.88818  0.45203  1.0000
  H   H31       1.0  0.98767  0.93640  0.22365  1.0000
  H   H32       1.0  0.96353  0.88837  0.22282  1.0000
  H   H33       1.0  0.05992  0.99994  0.25502  1.0000
  H   H34       1.0  0.10723  0.02278  0.25740  1.0000
  H   H35       1.0  0.10799  0.08459  0.41237  1.0000
  H   H36       1.0  0.06056  0.06029  0.41782  1.0000
  H   H37       1.0  0.02106  0.04692  0.33468  1.0000
  H   H38       1.0  0.94823  0.97367  0.33272  1.0000
  H   H39       1.0  0.02111  0.97396  0.34280  1.0000
  C   C55       1.0  0.44360  0.24733  0.33899  1.0000
  C   C56       1.0  0.41534  0.23235  0.34518  1.0000
  C   C57       1.0  0.40116  0.20384  0.34167  1.0000
  C   C58       1.0  0.41652  0.19076  0.33352  1.0000
  C   C59       1.0  0.44493  0.20519  0.32831  1.0000
  C   C60       1.0  0.45799  0.23352  0.33196  1.0000
  C   C61       1.0  0.37225  0.18883  0.34442  1.0000
  C   C62       1.0  0.35652  0.19815  0.30095  1.0000
  C   C63       1.0  0.32824  0.18351  0.30364  1.0000
  C   C64       1.0  0.31411  0.15861  0.34918  1.0000
  C   C65       1.0  0.32986  0.14922  0.39213  1.0000
  C   C66       1.0  0.35815  0.16399  0.39021  1.0000
  C   C67       1.0  0.45810  0.27581  0.33671  1.0000
  C   C68       1.0  0.46244  0.29095  0.41572  1.0000
  C   C69       1.0  0.48141  0.31863  0.41703  1.0000
  C   C70       1.0  0.49628  0.33194  0.33935  1.0000
  C   C71       1.0  0.49108  0.31681  0.25962  1.0000
  C   C72       1.0  0.47248  0.28911  0.25854  1.0000
  C   C73       1.0  0.46071  0.19233  0.32066  1.0000
  C   C74       1.0  0.48327  0.20288  0.26296  1.0000
  C   C75       1.0  0.50139  0.19324  0.26482  1.0000
  C   C76       1.0  0.49758  0.17214  0.32301  1.0000
  C   C77       1.0  0.47415  0.16059  0.37710  1.0000
  C   C78       1.0  0.45610  0.17048  0.37614  1.0000
  H   H40       1.0  0.48487  0.32885  0.47617  1.0000
  H   H41       1.0  0.45315  0.28164  0.47421  1.0000
  H   H42       1.0  0.50207  0.32542  0.20291  1.0000
  H   H43       1.0  0.47043  0.27848  0.20116  1.0000
  H   H44       1.0  0.48741  0.21860  0.22113  1.0000
  H   H45       1.0  0.51823  0.20291  0.22586  1.0000
  H   H46       1.0  0.44033  0.16248  0.42009  1.0000
  H   H47       1.0  0.47022  0.14512  0.41971  1.0000
  H   H48       1.0  0.36838  0.15638  0.42386  1.0000
  H   H49       1.0  0.32090  0.13110  0.42439  1.0000
  H   H50       1.0  0.31807  0.19156  0.27234  1.0000
  H   H51       1.0  0.36551  0.21568  0.26522  1.0000
  H   H52       1.0  0.40508  0.24255  0.35180  1.0000
  H   H53       1.0  0.47856  0.24450  0.33057  1.0000
  H   H54       1.0  0.40684  0.17029  0.32778  1.0000
  C   C79       1.0  0.74939  0.19765  0.33915  1.0000
  C   C80       1.0  0.76438  0.18437  0.34475  1.0000
  C   C81       1.0  0.79289  0.19868  0.34055  1.0000
  C   C82       1.0  0.80595  0.22713  0.33245  1.0000
  C   C83       1.0  0.79150  0.24111  0.32793  1.0000
  C   C84       1.0  0.76319  0.22585  0.33213  1.0000
  C   C85       1.0  0.80789  0.18475  0.34249  1.0000
  C   C86       1.0  0.79831  0.15955  0.29982  1.0000
  C   C87       1.0  0.81291  0.14587  0.30180  1.0000
  C   C88       1.0  0.83808  0.15675  0.34569  1.0000
  C   C89       1.0  0.84774  0.18206  0.38777  1.0000
  C   C90       1.0  0.83300  0.19561  0.38667  1.0000
  C   C91       1.0  0.72091  0.18368  0.33708  1.0000
  C   C92       1.0  0.70581  0.17289  0.41617  1.0000
  C   C93       1.0  0.67813  0.16417  0.41757  1.0000
  C   C94       1.0  0.66477  0.16565  0.33990  1.0000
  C   C95       1.0  0.67988  0.17557  0.26011  1.0000
  C   C96       1.0  0.70757  0.18467  0.25889  1.0000
  C   C97       1.0  0.80434  0.26975  0.32028  1.0000
  C   C98       1.0  0.79372  0.28174  0.26280  1.0000
  C   C99       1.0  0.80334  0.30951  0.26466  1.0000
  C   C100      1.0  0.82444  0.32680  0.32283  1.0000
  C   C101      1.0  0.83605  0.31494  0.37676  1.0000
  C   C102      1.0  0.82619  0.28701  0.37571  1.0000
  H   H55       1.0  0.66793  0.15739  0.47674  1.0000
  H   H56       1.0  0.71515  0.17294  0.47463  1.0000
  H   H57       1.0  0.67123  0.17792  0.20343  1.0000
  H   H58       1.0  0.71818  0.19327  0.20148  1.0000
  H   H59       1.0  0.77797  0.27015  0.22109  1.0000
  H   H60       1.0  0.79360  0.31665  0.22598  1.0000
  H   H61       1.0  0.83426  0.27924  0.41944  1.0000
  H   H62       1.0  0.85154  0.32649  0.41928  1.0000
  H   H63       1.0  0.84083  0.21356  0.41972  1.0000
  H   H64       1.0  0.86606  0.19133  0.41877  1.0000
  H   H65       1.0  0.80462  0.12752  0.27124  1.0000
  H   H66       1.0  0.78060  0.15091  0.26512  1.0000
  H   H67       1.0  0.75417  0.16391  0.35137  1.0000
  H   H68       1.0  0.75221  0.23544  0.33111  1.0000
  H   H69       1.0  0.82640  0.23793  0.32619  1.0000
  C   C103      1.0  0.79917  0.55334  0.33915  1.0000
  C   C104      1.0  0.81236  0.58159  0.34527  1.0000
  C   C105      1.0  0.79801  0.59575  0.34077  1.0000
  C   C106      1.0  0.76958  0.58027  0.33183  1.0000
  C   C107      1.0  0.75567  0.55185  0.32715  1.0000
  C   C108      1.0  0.77099  0.53887  0.33159  1.0000
  C   C109      1.0  0.81183  0.62471  0.34338  1.0000
  C   C110      1.0  0.83740  0.64056  0.30330  1.0000
  C   C111      1.0  0.85092  0.66884  0.30588  1.0000
  C   C112      1.0  0.83949  0.68295  0.34756  1.0000
  C   C113      1.0  0.81381  0.66707  0.38699  1.0000
  C   C114      1.0  0.80047  0.63879  0.38560  1.0000
  C   C115      1.0  0.81320  0.53888  0.33732  1.0000
  C   C116      1.0  0.82366  0.53428  0.41667  1.0000
  C   C117      1.0  0.83234  0.51529  0.41806  1.0000
  C   C118      1.0  0.83103  0.50059  0.34019  1.0000
  C   C119      1.0  0.82142  0.50603  0.26017  1.0000
  C   C120      1.0  0.81239  0.52468  0.25897  1.0000
  C   C121      1.0  0.72703  0.53600  0.31944  1.0000
  C   C122      1.0  0.71507  0.51333  0.26224  1.0000
  C   C123      1.0  0.68730  0.49519  0.26410  1.0000
  C   C124      1.0  0.66999  0.49906  0.32197  1.0000
  C   C125      1.0  0.68184  0.52256  0.37573  1.0000
  C   C126      1.0  0.70976  0.54065  0.37463  1.0000
  H   H70       1.0  0.83893  0.51170  0.47737  1.0000
  H   H71       1.0  0.82352  0.54349  0.47520  1.0000
  H   H72       1.0  0.81915  0.49513  0.20333  1.0000
  H   H73       1.0  0.80397  0.52684  0.20135  1.0000
  H   H74       1.0  0.72667  0.50917  0.22058  1.0000
  H   H75       1.0  0.68015  0.47830  0.22541  1.0000
  H   H76       1.0  0.71751  0.55650  0.41828  1.0000
  H   H77       1.0  0.67027  0.52653  0.41805  1.0000
  H   H78       1.0  0.78224  0.62856  0.41693  1.0000
  H   H79       1.0  0.80410  0.67592  0.41626  1.0000
  H   H80       1.0  0.86956  0.67902  0.27732  1.0000
  H   H81       1.0  0.84647  0.63168  0.27001  1.0000
  H   H82       1.0  0.83280  0.59186  0.35257  1.0000
  H   H83       1.0  0.76145  0.51830  0.33042  1.0000
  H   H84       1.0  0.75872  0.58984  0.32521  1.0000
  C   C127      1.0  0.15743  0.08636  0.40731  1.0000
  N   N13       1.0  0.18461  0.09864  0.40642  1.0000
  C   C128      1.0  0.22794  0.11162  0.34780  1.0000
  C   C129      1.0  0.24218  0.11124  0.42541  1.0000
  C   C130      1.0  0.27059  0.12749  0.42514  1.0000
  C   C131      1.0  0.28518  0.14335  0.35054  1.0000
  H   H85       1.0  0.28090  0.12758  0.48112  1.0000
  H   H86       1.0  0.14850  0.08816  0.46393  1.0000
  N   N14       1.0  0.23008  0.09533  0.49781  1.0000
  H   H87       1.0  0.21105  0.08223  0.49845  1.0000
  H   H88       1.0  0.24052  0.09506  0.54876  1.0000
  C   C132      1.0  0.90997  0.07198  0.40333  1.0000
  N   N15       1.0  0.89790  0.08708  0.40224  1.0000
  C   C133      1.0  0.88470  0.11713  0.34247  1.0000
  C   C134      1.0  0.88592  0.13245  0.41921  1.0000
  C   C135      1.0  0.86979  0.14474  0.41963  1.0000
  C   C136      1.0  0.85328  0.14299  0.34640  1.0000
  H   H89       1.0  0.87027  0.15541  0.47515  1.0000
  H   H90       1.0  0.90867  0.06180  0.46087  1.0000
  N   N16       1.0  0.90250  0.13678  0.49008  1.0000
  H   H91       1.0  0.91557  0.13081  0.48988  1.0000
  H   H92       1.0  0.90334  0.14796  0.54037  1.0000
  C   C137      1.0  0.92256  0.83939  0.41228  1.0000
  N   N17       1.0  0.90757  0.81223  0.40933  1.0000
  C   C138      1.0  0.87872  0.76925  0.34550  1.0000
  C   C139      1.0  0.86211  0.75490  0.41971  1.0000
  C   C140      1.0  0.85001  0.72650  0.41996  1.0000
  C   C141      1.0  0.85307  0.71193  0.34868  1.0000
  H   H93       1.0  0.83852  0.71619  0.47397  1.0000
  H   H94       1.0  0.93244  0.84833  0.47030  1.0000
  N   N18       1.0  0.85642  0.76691  0.48814  1.0000
  H   H95       1.0  0.86219  0.78590  0.48733  1.0000
  H   H96       1.0  0.84438  0.75640  0.53654  1.0000
  C   C142      1.0  0.51762  0.16423  0.32978  1.0000
  C   C143      1.0  0.56075  0.15345  0.34309  1.0000
  C   C144      1.0  0.54559  0.15137  0.42119  1.0000
  C   C145      1.0  0.52439  0.15712  0.41267  1.0000
  H   H97       1.0  0.51421  0.15685  0.46924  1.0000
  C   C146      1.0  0.62873  0.17108  0.40888  1.0000
  N   N19       1.0  0.60364  0.16753  0.40492  1.0000
  H   H98       1.0  0.64146  0.18339  0.45747  1.0000
  N   N20       1.0  0.55029  0.14380  0.50243  1.0000
  H   H99       1.0  0.53920  0.14196  0.55420  1.0000
  H   H100      1.0  0.56322  0.13777  0.50979  1.0000
  C   C147      1.0  0.83233  0.35474  0.32967  1.0000
  C   C148      1.0  0.84311  0.40866  0.34308  1.0000
  C   C149      1.0  0.84515  0.39555  0.42116  1.0000
  C   C150      1.0  0.83944  0.36862  0.41259  1.0000
  H   H101      1.0  0.83971  0.35870  0.46913  1.0000
  C   C151      1.0  0.82544  0.45900  0.40885  1.0000
  N   N21       1.0  0.82895  0.43743  0.40481  1.0000
  H   H102      1.0  0.81307  0.45939  0.45729  1.0000
  N   N22       1.0  0.85271  0.40781  0.50243  1.0000
  H   H103      1.0  0.85453  0.39855  0.55421  1.0000
  H   H104      1.0  0.85871  0.42676  0.50983  1.0000
  C   C152      1.0  0.64205  0.47902  0.32880  1.0000
  C   C153      1.0  0.58812  0.43593  0.34224  1.0000
  C   C154      1.0  0.60122  0.45112  0.42027  1.0000
  C   C155      1.0  0.62816  0.47230  0.41170  1.0000
  H   H105      1.0  0.63809  0.48249  0.46823  1.0000
  C   C156      1.0  0.53774  0.36800  0.40830  1.0000
  N   N23       1.0  0.55930  0.39308  0.40420  1.0000
  H   H106      1.0  0.53736  0.35526  0.45676  1.0000
  N   N24       1.0  0.58895  0.44643  0.50154  1.0000
  H   H107      1.0  0.59816  0.45769  0.55303  1.0000
  H   H108      1.0  0.56994  0.43366  0.50863  1.0000
