data_image0
_chemical_formula_structural       C5H6C6H6C3HC4HNH2NO2NC2HC4HNH2NO2NC2HC4HNH2NO2NC12H6C6H3C9H3C12H6C6H3C9H3C6H2NH2NO2NC6H2NH2NO2NC6H2NH2NO2N
_chemical_formula_sum              "C102 H60 N18 O12"
_cell_length_a       52.7408
_cell_length_b       52.7467
_cell_length_c       14.8515
_cell_angle_alpha    90
_cell_angle_beta     90
_cell_angle_gamma    119.995

_space_group_name_H-M_alt    "P 1"
_space_group_IT_number       1

loop_
  _space_group_symop_operation_xyz
  'x, y, z'

loop_
  _atom_site_type_symbol
  _atom_site_label
  _atom_site_symmetry_multiplicity
  _atom_site_fract_x
  _atom_site_fract_y
  _atom_site_fract_z
  _atom_site_occupancy
  C   C1        1.0  0.38980  0.58775  0.35627  1.0000
  C   C2        1.0  0.42481  0.80457  0.35437  1.0000
  C   C3        1.0  0.43733  0.83522  0.34762  1.0000
  C   C4        1.0  0.20798  0.62280  0.35433  1.0000
  C   C5        1.0  0.17732  0.60476  0.34754  1.0000
  H   H1        1.0  0.39819  0.55280  0.34839  1.0000
  H   H2        1.0  0.43838  0.79591  0.35713  1.0000
  H   H3        1.0  0.45964  0.84793  0.34499  1.0000
  H   H4        1.0  0.21671  0.64504  0.35706  1.0000
  H   H5        1.0  0.16468  0.61443  0.34478  1.0000
  H   H6        1.0  0.36760  0.57424  0.36102  1.0000
  C   C6        1.0  0.40784  0.57513  0.34931  1.0000
  C   C7        1.0  0.62263  0.42002  0.33033  1.0000
  C   C8        1.0  0.59255  0.20503  0.32825  1.0000
  C   C9        1.0  0.58028  0.17437  0.33246  1.0000
  C   C10       1.0  0.80744  0.38998  0.32808  1.0000
  C   C11       1.0  0.83810  0.40841  0.33246  1.0000
  H   H7        1.0  0.61322  0.45422  0.32329  1.0000
  H   H8        1.0  0.57929  0.21338  0.31193  1.0000
  H   H9        1.0  0.55843  0.16144  0.31916  1.0000
  H   H10       1.0  0.79913  0.36840  0.31152  1.0000
  H   H11       1.0  0.85107  0.39954  0.31901  1.0000
  H   H12       1.0  0.64436  0.43343  0.31593  1.0000
  C   C12       1.0  0.60420  0.43225  0.33459  1.0000
  C   C13       1.0  0.49700  0.52717  0.26914  1.0000
  C   C14       1.0  0.48053  0.54163  0.27569  1.0000
  H   H13       1.0  0.47781  0.55124  0.21945  1.0000
  C   C15       1.0  0.51652  0.49840  0.34723  1.0000
  C   C16       1.0  0.54645  0.46587  0.34198  1.0000
  C   C17       1.0  0.51853  0.45441  0.30119  1.0000
  C   C18       1.0  0.50383  0.47066  0.30523  1.0000
  H   H14       1.0  0.48364  0.46214  0.27570  1.0000
  N   N1        1.0  0.50928  0.52723  0.18845  1.0000
  H   H15       1.0  0.50690  0.53692  0.13592  1.0000
  H   H16       1.0  0.52139  0.51831  0.18079  1.0000
  N   N2        1.0  0.50622  0.42733  0.25515  1.0000
  O   O1        1.0  0.50244  0.43030  0.17312  1.0000
  O   O2        1.0  0.48208  0.40890  0.28886  1.0000
  N   N3        1.0  0.56233  0.45250  0.33966  1.0000
  C   C19       1.0  0.48380  0.97232  0.27028  1.0000
  C   C20       1.0  0.46959  0.94140  0.27660  1.0000
  H   H17       1.0  0.45951  0.92907  0.22077  1.0000
  C   C21       1.0  0.51340  0.02060  0.34748  1.0000
  C   C22       1.0  0.54623  0.08303  0.34226  1.0000
  C   C23       1.0  0.55753  0.06646  0.30131  1.0000
  C   C24       1.0  0.54110  0.03551  0.30517  1.0000
  H   H18       1.0  0.54949  0.02374  0.27554  1.0000
  N   N4        1.0  0.48280  0.98453  0.19055  1.0000
  H   H19       1.0  0.47259  0.97248  0.13852  1.0000
  H   H20       1.0  0.49155  0.00557  0.18323  1.0000
  N   N5        1.0  0.58465  0.08108  0.25547  1.0000
  O   O3        1.0  0.58173  0.07438  0.17342  1.0000
  O   O4        1.0  0.60294  0.07519  0.28936  1.0000
  N   N6        1.0  0.55972  0.11227  0.33999  1.0000
  C   C25       1.0  0.04021  0.51554  0.26940  1.0000
  C   C26       1.0  0.07114  0.53204  0.27600  1.0000
  H   H21       1.0  0.08349  0.53476  0.21980  1.0000
  C   C27       1.0  0.99190  0.49599  0.34740  1.0000
  C   C28       1.0  0.92944  0.46600  0.34222  1.0000
  C   C29       1.0  0.94586  0.49395  0.30158  1.0000
  C   C30       1.0  0.97682  0.50868  0.30559  1.0000
  H   H22       1.0  0.98847  0.52888  0.27615  1.0000
  N   N7        1.0  0.02801  0.50325  0.18870  1.0000
  H   H23       1.0  0.04008  0.50560  0.13624  1.0000
  H   H24       1.0  0.00698  0.49109  0.18105  1.0000
  N   N8        1.0  0.93106  0.50626  0.25575  1.0000
  O   O5        1.0  0.93779  0.51011  0.17372  1.0000
  O   O6        1.0  0.93674  0.53037  0.28967  1.0000
  N   N9        1.0  0.90020  0.45011  0.33989  1.0000
  C   C31       1.0  0.39408  0.78614  0.35543  1.0000
  C   C32       1.0  0.40213  0.61848  0.35497  1.0000
  C   C33       1.0  0.22634  0.61042  0.35537  1.0000
  C   C34       1.0  0.43861  0.59288  0.34050  1.0000
  C   C35       1.0  0.45071  0.62365  0.33982  1.0000
  C   C36       1.0  0.43280  0.63632  0.34722  1.0000
  C   C37       1.0  0.41947  0.84820  0.34153  1.0000
  C   C38       1.0  0.38871  0.82950  0.34326  1.0000
  C   C39       1.0  0.37614  0.79892  0.35036  1.0000
  C   C40       1.0  0.16426  0.57393  0.34133  1.0000
  C   C41       1.0  0.18287  0.56177  0.34304  1.0000
  C   C42       1.0  0.21346  0.57969  0.35027  1.0000
  H   H25       1.0  0.47282  0.63726  0.33296  1.0000
  H   H26       1.0  0.44243  0.65868  0.34548  1.0000
  H   H27       1.0  0.35378  0.78618  0.35043  1.0000
  H   H28       1.0  0.37502  0.83796  0.33838  1.0000
  H   H29       1.0  0.17433  0.53960  0.33811  1.0000
  H   H30       1.0  0.22616  0.57002  0.35032  1.0000
  C   C43       1.0  0.30978  0.65577  0.36102  1.0000
  C   C44       1.0  0.32503  0.68673  0.36097  1.0000
  C   C45       1.0  0.35600  0.70272  0.36100  1.0000
  C   C46       1.0  0.37170  0.68747  0.36093  1.0000
  C   C47       1.0  0.35674  0.65651  0.36097  1.0000
  C   C48       1.0  0.32578  0.64080  0.36093  1.0000
  H   H31       1.0  0.39419  0.69899  0.36061  1.0000
  H   H32       1.0  0.31351  0.69769  0.36070  1.0000
  H   H33       1.0  0.31482  0.61833  0.36063  1.0000
  C   C49       1.0  0.25489  0.62690  0.35872  1.0000
  C   C50       1.0  0.28108  0.64101  0.36029  1.0000
  C   C51       1.0  0.38563  0.63052  0.35851  1.0000
  C   C52       1.0  0.37150  0.64258  0.36019  1.0000
  C   C53       1.0  0.36996  0.73141  0.36028  1.0000
  C   C54       1.0  0.38206  0.75760  0.35873  1.0000
  C   C55       1.0  0.13431  0.55564  0.32838  1.0000
  C   C56       1.0  0.43098  0.87812  0.32871  1.0000
  C   C57       1.0  0.45685  0.58117  0.32743  1.0000
  H   H34       1.0  0.47493  0.59265  0.29097  1.0000
  H   H35       1.0  0.41917  0.88462  0.29351  1.0000
  H   H36       1.0  0.12772  0.53743  0.29261  1.0000
  C   C58       1.0  0.62256  0.22386  0.34663  1.0000
  C   C59       1.0  0.61131  0.38984  0.34618  1.0000
  C   C60       1.0  0.78856  0.40109  0.34666  1.0000
  C   C61       1.0  0.57398  0.41474  0.35488  1.0000
  C   C62       1.0  0.56295  0.38448  0.37027  1.0000
  C   C63       1.0  0.58125  0.37217  0.36604  1.0000
  C   C64       1.0  0.59758  0.16162  0.35522  1.0000
  C   C65       1.0  0.62769  0.18084  0.37319  1.0000
  C   C66       1.0  0.64004  0.21145  0.36902  1.0000
  C   C67       1.0  0.85078  0.43842  0.35556  1.0000
  C   C68       1.0  0.83151  0.44923  0.37371  1.0000
  C   C69       1.0  0.80091  0.43094  0.36939  1.0000
  H   H37       1.0  0.54129  0.37092  0.38511  1.0000
  H   H38       1.0  0.57233  0.35020  0.37795  1.0000
  H   H39       1.0  0.66189  0.22448  0.38282  1.0000
  H   H40       1.0  0.64111  0.17272  0.38988  1.0000
  H   H41       1.0  0.83959  0.47074  0.39063  1.0000
  H   H42       1.0  0.78785  0.43971  0.38332  1.0000
  C   C70       1.0  0.70520  0.35461  0.34130  1.0000
  C   C71       1.0  0.69040  0.32366  0.34140  1.0000
  C   C72       1.0  0.65945  0.30722  0.34135  1.0000
  C   C73       1.0  0.64329  0.32201  0.34133  1.0000
  C   C74       1.0  0.65780  0.35296  0.34123  1.0000
  C   C75       1.0  0.68875  0.36911  0.34128  1.0000
  H   H43       1.0  0.62082  0.31017  0.34160  1.0000
  H   H44       1.0  0.70225  0.31304  0.34173  1.0000
  H   H45       1.0  0.69937  0.39158  0.34153  1.0000
  C   C76       1.0  0.76004  0.38424  0.34359  1.0000
  C   C77       1.0  0.73388  0.36977  0.34205  1.0000
  C   C78       1.0  0.62816  0.37818  0.34331  1.0000
  C   C79       1.0  0.64263  0.36648  0.34189  1.0000
  C   C80       1.0  0.64594  0.27853  0.34213  1.0000
  C   C81       1.0  0.63426  0.25238  0.34366  1.0000
  C   C82       1.0  0.88102  0.45733  0.36179  1.0000
  C   C83       1.0  0.58621  0.13138  0.36127  1.0000
  C   C84       1.0  0.55506  0.42606  0.36116  1.0000
  H   H46       1.0  0.53487  0.41306  0.38431  1.0000
  H   H47       1.0  0.59918  0.12413  0.38428  1.0000
  H   H48       1.0  0.88821  0.47748  0.38534  1.0000
  C   C85       1.0  0.46769  0.54329  0.35752  1.0000
  C   C86       1.0  0.47070  0.52925  0.43462  1.0000
  C   C87       1.0  0.48700  0.51463  0.42875  1.0000
  C   C88       1.0  0.50037  0.51353  0.34743  1.0000
  C   C89       1.0  0.54481  0.51025  0.38670  1.0000
  C   C90       1.0  0.55926  0.49370  0.38299  1.0000
  H   H49       1.0  0.57968  0.50214  0.41085  1.0000
  H   H50       1.0  0.48915  0.50470  0.48523  1.0000
  N   N10       1.0  0.55879  0.53708  0.42651  1.0000
  H   H51       1.0  0.55022  0.54965  0.42873  1.0000
  H   H52       1.0  0.57829  0.54493  0.45224  1.0000
  N   N11       1.0  0.45770  0.53062  0.51653  1.0000
  O   O7        1.0  0.43933  0.50548  0.54401  1.0000
  O   O8        1.0  0.47664  0.54331  0.57683  1.0000
  N   N12       1.0  0.45210  0.55694  0.36329  1.0000
  C   C91       1.0  0.46883  0.92694  0.35767  1.0000
  C   C92       1.0  0.48341  0.94401  0.43421  1.0000
  C   C93       1.0  0.49787  0.97493  0.42845  1.0000
  C   C94       1.0  0.49818  0.98934  0.34784  1.0000
  C   C95       1.0  0.50172  0.03716  0.38715  1.0000
  C   C96       1.0  0.51839  0.06814  0.38330  1.0000
  H   H53       1.0  0.51007  0.08021  0.41131  1.0000
  H   H54       1.0  0.50825  0.98703  0.48448  1.0000
  N   N13       1.0  0.47495  0.02441  0.42734  1.0000
  H   H55       1.0  0.46239  0.00329  0.43011  1.0000
  H   H56       1.0  0.46724  0.03612  0.45349  1.0000
  N   N14       1.0  0.48267  0.92969  0.51562  1.0000
  O   O9        1.0  0.50801  0.93672  0.54174  1.0000
  O   O10       1.0  0.47010  0.93571  0.57694  1.0000
  N   N15       1.0  0.45539  0.89771  0.36334  1.0000
  C   C97       1.0  0.08560  0.54490  0.35784  1.0000
  C   C98       1.0  0.06854  0.54190  0.43488  1.0000
  C   C99       1.0  0.03761  0.52556  0.42896  1.0000
  C   C100      1.0  0.02318  0.51217  0.34763  1.0000
  C   C101      1.0  0.97549  0.46766  0.38668  1.0000
  C   C102      1.0  0.94449  0.45319  0.38298  1.0000
  H   H57       1.0  0.93254  0.43274  0.41071  1.0000
  H   H58       1.0  0.02553  0.52340  0.48541  1.0000
  N   N16       1.0  0.98838  0.45368  0.42627  1.0000
  H   H59       1.0  0.00951  0.46230  0.42869  1.0000
  H   H60       1.0  0.97676  0.43419  0.45206  1.0000
  N   N17       1.0  0.08288  0.55492  0.51678  1.0000
  O   O11       1.0  0.07606  0.57327  0.54417  1.0000
  O   O12       1.0  0.07665  0.53600  0.57715  1.0000
  N   N18       1.0  0.11484  0.56053  0.36360  1.0000
