data_image0
_chemical_formula_structural       NC3H3NCNCNCHNC3H3NCNCNCHNC2HCNCNCNC3H3N2C2HCNCNCNC3H3NC2HN2C3H3C2HN2C3H3NC3H3NC3H3CNCHCNC2NCNCNCNCNCNCNCHCNCHNC3H3NC3H3NC3H3CNCHCNC2NCNCNCNCNCNCNCHCNCHNC3H3NC3H3NC3H3NC3H3CNCHCNCHCNCHCNCNCNCNCNCNCNCNCNCNCNCNCNCHCNCHCNCHNC3H3NC3H3NC3H3NC3H3NC3H3NC3H3CNCHCNCHCNCHCNCNCNCNCNCNCNCNCNCNCNCNCNCHCNCHCNCHNC3H3NC3H3NC3H3
_chemical_formula_sum              "N96 C168 H96"
_cell_length_a       44.4288
_cell_length_b       44.4334
_cell_length_c       14.7622
_cell_angle_alpha    90
_cell_angle_beta     90
_cell_angle_gamma    120.01

_space_group_name_H-M_alt    "P 1"
_space_group_IT_number       1

loop_
  _space_group_symop_operation_xyz
  'x, y, z'

loop_
  _atom_site_type_symbol
  _atom_site_label
  _atom_site_symmetry_multiplicity
  _atom_site_fract_x
  _atom_site_fract_y
  _atom_site_fract_z
  _atom_site_occupancy
  N   N1        1.0  0.13640  0.07060  0.27204  1.0000
  C   C1        1.0  0.10098  0.05283  0.26661  1.0000
  C   C2        1.0  0.08172  0.04292  0.34863  1.0000
  C   C3        1.0  0.08449  0.04473  0.17614  1.0000
  H   H1        1.0  0.10396  0.05462  0.12230  1.0000
  H   H2        1.0  0.06825  0.05659  0.16873  1.0000
  H   H3        1.0  0.06837  0.01664  0.16800  1.0000
  N   N2        1.0  0.02706  0.04196  0.35177  1.0000
  C   C4        1.0  0.04504  0.02456  0.35228  1.0000
  N   N3        1.0  0.02707  0.48919  0.35176  1.0000
  C   C5        1.0  0.15451  0.07944  0.35113  1.0000
  N   N4        1.0  0.09985  0.05175  0.42781  1.0000
  C   C6        1.0  0.13516  0.06943  0.43224  1.0000
  H   H4        1.0  0.14715  0.07525  0.49402  1.0000
  N   N5        1.0  0.13640  0.57060  0.27204  1.0000
  C   C7        1.0  0.10098  0.55283  0.26661  1.0000
  C   C8        1.0  0.08172  0.54292  0.34863  1.0000
  C   C9        1.0  0.08449  0.54473  0.17614  1.0000
  H   H5        1.0  0.10396  0.55462  0.12230  1.0000
  H   H6        1.0  0.06825  0.55659  0.16873  1.0000
  H   H7        1.0  0.06838  0.51664  0.16800  1.0000
  N   N6        1.0  0.02706  0.54196  0.35177  1.0000
  C   C10       1.0  0.04504  0.52456  0.35228  1.0000
  N   N7        1.0  0.02707  0.98919  0.35176  1.0000
  C   C11       1.0  0.15451  0.57944  0.35113  1.0000
  N   N8        1.0  0.09984  0.55175  0.42781  1.0000
  C   C12       1.0  0.13516  0.56943  0.43224  1.0000
  H   H8        1.0  0.14715  0.57525  0.49402  1.0000
  N   N9        1.0  0.28218  0.08412  0.27213  1.0000
  C   C13       1.0  0.26556  0.18763  0.34617  1.0000
  C   C14       1.0  0.28283  0.20471  0.26580  1.0000
  H   H9        1.0  0.27476  0.19299  0.20398  1.0000
  C   C15       1.0  0.24434  0.15122  0.34607  1.0000
  N   N10       1.0  0.20896  0.13334  0.34788  1.0000
  C   C16       1.0  0.19115  0.09784  0.34993  1.0000
  N   N11       1.0  0.20912  0.08030  0.35067  1.0000
  C   C17       1.0  0.24449  0.09795  0.34863  1.0000
  N   N12       1.0  0.26138  0.13310  0.34678  1.0000
  C   C18       1.0  0.28249  0.08198  0.43254  1.0000
  C   C19       1.0  0.26589  0.08295  0.35125  1.0000
  C   C20       1.0  0.27039  0.08498  0.52368  1.0000
  H   H10       1.0  0.28685  0.08367  0.57665  1.0000
  H   H11       1.0  0.24387  0.06376  0.53422  1.0000
  H   H12       1.0  0.27091  0.10970  0.53026  1.0000
  N   N13       1.0  0.28153  0.20265  0.42554  1.0000
  N   N14       1.0  0.28218  0.58412  0.27213  1.0000
  C   C21       1.0  0.26556  0.68763  0.34617  1.0000
  C   C22       1.0  0.28283  0.70471  0.26580  1.0000
  H   H13       1.0  0.27476  0.69299  0.20398  1.0000
  C   C23       1.0  0.24434  0.65121  0.34607  1.0000
  N   N15       1.0  0.20896  0.63334  0.34788  1.0000
  C   C24       1.0  0.19115  0.59784  0.34993  1.0000
  N   N16       1.0  0.20912  0.58030  0.35067  1.0000
  C   C25       1.0  0.24449  0.59795  0.34863  1.0000
  N   N17       1.0  0.26138  0.63310  0.34678  1.0000
  C   C26       1.0  0.28249  0.58198  0.43254  1.0000
  C   C27       1.0  0.26589  0.58295  0.35125  1.0000
  C   C28       1.0  0.27039  0.58498  0.52368  1.0000
  H   H14       1.0  0.28685  0.58366  0.57665  1.0000
  H   H15       1.0  0.24387  0.56376  0.53422  1.0000
  H   H16       1.0  0.27090  0.60970  0.53026  1.0000
  N   N18       1.0  0.28153  0.70265  0.42554  1.0000
  C   C29       1.0  0.32865  0.08192  0.34648  1.0000
  C   C30       1.0  0.31154  0.08197  0.26600  1.0000
  H   H17       1.0  0.32343  0.08595  0.20432  1.0000
  N   N19       1.0  0.31428  0.23417  0.27199  1.0000
  N   N20       1.0  0.31349  0.08283  0.42563  1.0000
  C   C31       1.0  0.31171  0.23363  0.43264  1.0000
  C   C32       1.0  0.32924  0.25028  0.35138  1.0000
  C   C33       1.0  0.32677  0.24568  0.52385  1.0000
  H   H18       1.0  0.30898  0.22917  0.57673  1.0000
  H   H19       1.0  0.33203  0.27218  0.53451  1.0000
  H   H20       1.0  0.35100  0.24521  0.53044  1.0000
  C   C34       1.0  0.32865  0.58192  0.34648  1.0000
  C   C35       1.0  0.31154  0.58197  0.26600  1.0000
  H   H21       1.0  0.32343  0.58595  0.20432  1.0000
  N   N21       1.0  0.31428  0.73417  0.27199  1.0000
  N   N22       1.0  0.31349  0.58283  0.42563  1.0000
  C   C36       1.0  0.31171  0.73363  0.43264  1.0000
  C   C37       1.0  0.32924  0.75028  0.35138  1.0000
  C   C38       1.0  0.32677  0.74568  0.52385  1.0000
  H   H22       1.0  0.30897  0.72917  0.57673  1.0000
  H   H23       1.0  0.33203  0.77218  0.53451  1.0000
  H   H24       1.0  0.35100  0.74521  0.53044  1.0000
  N   N23       1.0  0.44573  0.06993  0.27204  1.0000
  C   C39       1.0  0.46348  0.05227  0.26661  1.0000
  C   C40       1.0  0.47334  0.04287  0.34864  1.0000
  C   C41       1.0  0.47159  0.04389  0.17614  1.0000
  H   H25       1.0  0.46173  0.05350  0.12231  1.0000
  H   H26       1.0  0.45971  0.01579  0.16869  1.0000
  H   H27       1.0  0.49968  0.05585  0.16806  1.0000
  N   N24       1.0  0.44642  0.37985  0.27209  1.0000
  C   C42       1.0  0.46407  0.41526  0.26663  1.0000
  C   C43       1.0  0.47336  0.43453  0.34865  1.0000
  C   C44       1.0  0.47251  0.43175  0.17616  1.0000
  H   H28       1.0  0.46297  0.41228  0.12234  1.0000
  H   H29       1.0  0.50063  0.44799  0.16886  1.0000
  H   H30       1.0  0.46054  0.44786  0.16790  1.0000
  C   C45       1.0  0.43440  0.25084  0.34555  1.0000
  N   N25       1.0  0.43234  0.20217  0.27150  1.0000
  C   C46       1.0  0.43446  0.23367  0.26528  1.0000
  H   H31       1.0  0.43080  0.24177  0.20353  1.0000
  C   C47       1.0  0.49169  0.47121  0.35229  1.0000
  N   N26       1.0  0.47428  0.48917  0.35180  1.0000
  C   C48       1.0  0.49168  0.02454  0.35229  1.0000
  C   C49       1.0  0.36505  0.09714  0.34638  1.0000
  N   N27       1.0  0.38295  0.07966  0.34810  1.0000
  C   C50       1.0  0.41846  0.09740  0.34994  1.0000
  N   N28       1.0  0.43598  0.13291  0.35047  1.0000
  C   C51       1.0  0.41829  0.15060  0.34853  1.0000
  N   N29       1.0  0.38314  0.13230  0.34686  1.0000
  C   C52       1.0  0.41914  0.27198  0.34613  1.0000
  N   N30       1.0  0.43661  0.30736  0.34776  1.0000
  C   C53       1.0  0.41886  0.32511  0.35002  1.0000
  N   N31       1.0  0.38335  0.30710  0.35094  1.0000
  C   C54       1.0  0.36567  0.27172  0.34898  1.0000
  N   N32       1.0  0.38398  0.25488  0.34692  1.0000
  C   C55       1.0  0.43687  0.07917  0.35113  1.0000
  N   N33       1.0  0.46448  0.05213  0.42781  1.0000
  C   C56       1.0  0.44681  0.06978  0.43224  1.0000
  H   H32       1.0  0.44096  0.07591  0.49402  1.0000
  C   C57       1.0  0.43708  0.36175  0.35118  1.0000
  N   N34       1.0  0.46399  0.41641  0.42783  1.0000
  C   C58       1.0  0.44634  0.38110  0.43227  1.0000
  H   H33       1.0  0.44013  0.36911  0.49406  1.0000
  N   N35       1.0  0.43325  0.23470  0.42483  1.0000
  C   C59       1.0  0.43405  0.20453  0.43197  1.0000
  C   C60       1.0  0.43325  0.18700  0.35075  1.0000
  C   C61       1.0  0.43082  0.18944  0.52323  1.0000
  H   H34       1.0  0.43207  0.20724  0.57604  1.0000
  H   H35       1.0  0.45199  0.18410  0.53424  1.0000
  H   H36       1.0  0.40606  0.16525  0.52960  1.0000
  N   N36       1.0  0.44573  0.56993  0.27204  1.0000
  C   C62       1.0  0.46348  0.55227  0.26661  1.0000
  C   C63       1.0  0.47334  0.54287  0.34864  1.0000
  C   C64       1.0  0.47159  0.54389  0.17614  1.0000
  H   H37       1.0  0.46173  0.55350  0.12231  1.0000
  H   H38       1.0  0.45971  0.51579  0.16869  1.0000
  H   H39       1.0  0.49969  0.55585  0.16806  1.0000
  N   N37       1.0  0.44642  0.87985  0.27209  1.0000
  C   C65       1.0  0.46406  0.91526  0.26663  1.0000
  C   C66       1.0  0.47336  0.93453  0.34865  1.0000
  C   C67       1.0  0.47252  0.93175  0.17616  1.0000
  H   H40       1.0  0.46297  0.91228  0.12234  1.0000
  H   H41       1.0  0.50063  0.94800  0.16886  1.0000
  H   H42       1.0  0.46054  0.94786  0.16790  1.0000
  C   C68       1.0  0.43440  0.75084  0.34555  1.0000
  N   N38       1.0  0.43234  0.70217  0.27150  1.0000
  C   C69       1.0  0.43446  0.73367  0.26528  1.0000
  H   H43       1.0  0.43080  0.74177  0.20353  1.0000
  C   C70       1.0  0.49169  0.97121  0.35229  1.0000
  N   N39       1.0  0.47428  0.98916  0.35180  1.0000
  C   C71       1.0  0.49168  0.52454  0.35229  1.0000
  C   C72       1.0  0.36505  0.59714  0.34638  1.0000
  N   N40       1.0  0.38295  0.57966  0.34810  1.0000
  C   C73       1.0  0.41846  0.59740  0.34994  1.0000
  N   N41       1.0  0.43598  0.63291  0.35047  1.0000
  C   C74       1.0  0.41829  0.65059  0.34853  1.0000
  N   N42       1.0  0.38314  0.63230  0.34686  1.0000
  C   C75       1.0  0.41914  0.77198  0.34613  1.0000
  N   N43       1.0  0.43661  0.80736  0.34776  1.0000
  C   C76       1.0  0.41886  0.82511  0.35002  1.0000
  N   N44       1.0  0.38335  0.80710  0.35094  1.0000
  C   C77       1.0  0.36567  0.77172  0.34898  1.0000
  N   N45       1.0  0.38398  0.75488  0.34692  1.0000
  C   C78       1.0  0.43687  0.57917  0.35113  1.0000
  N   N46       1.0  0.46448  0.55213  0.42781  1.0000
  C   C79       1.0  0.44682  0.56978  0.43224  1.0000
  H   H44       1.0  0.44096  0.57591  0.49402  1.0000
  C   C80       1.0  0.43708  0.86175  0.35118  1.0000
  N   N47       1.0  0.46399  0.91641  0.42783  1.0000
  C   C81       1.0  0.44634  0.88110  0.43227  1.0000
  H   H45       1.0  0.44013  0.86911  0.49406  1.0000
  N   N48       1.0  0.43325  0.73470  0.42483  1.0000
  C   C82       1.0  0.43404  0.70453  0.43197  1.0000
  C   C83       1.0  0.43325  0.68700  0.35075  1.0000
  C   C84       1.0  0.43082  0.68944  0.52323  1.0000
  H   H46       1.0  0.43207  0.70724  0.57604  1.0000
  H   H47       1.0  0.45199  0.68410  0.53424  1.0000
  H   H48       1.0  0.40606  0.66526  0.52960  1.0000
  N   N49       1.0  0.63640  0.07060  0.27204  1.0000
  C   C85       1.0  0.60098  0.05283  0.26661  1.0000
  C   C86       1.0  0.58172  0.04292  0.34863  1.0000
  C   C87       1.0  0.58449  0.04473  0.17614  1.0000
  H   H49       1.0  0.60396  0.05462  0.12230  1.0000
  H   H50       1.0  0.56825  0.05659  0.16873  1.0000
  H   H51       1.0  0.56837  0.01664  0.16800  1.0000
  N   N50       1.0  0.94573  0.06993  0.27204  1.0000
  C   C88       1.0  0.96348  0.05227  0.26661  1.0000
  C   C89       1.0  0.97333  0.04287  0.34864  1.0000
  C   C90       1.0  0.97159  0.04389  0.17614  1.0000
  H   H52       1.0  0.96173  0.05350  0.12231  1.0000
  H   H53       1.0  0.95971  0.01579  0.16869  1.0000
  H   H54       1.0  0.99968  0.05585  0.16806  1.0000
  N   N51       1.0  0.94642  0.37985  0.27209  1.0000
  C   C91       1.0  0.96406  0.41526  0.26663  1.0000
  C   C92       1.0  0.97336  0.43453  0.34865  1.0000
  C   C93       1.0  0.97251  0.43175  0.17616  1.0000
  H   H55       1.0  0.96297  0.41228  0.12234  1.0000
  H   H56       1.0  0.00063  0.44799  0.16886  1.0000
  H   H57       1.0  0.96054  0.44786  0.16790  1.0000
  C   C94       1.0  0.82865  0.08192  0.34648  1.0000
  N   N52       1.0  0.78218  0.08412  0.27213  1.0000
  C   C95       1.0  0.81154  0.08197  0.26600  1.0000
  H   H58       1.0  0.82343  0.08595  0.20432  1.0000
  C   C96       1.0  0.93440  0.25084  0.34555  1.0000
  N   N53       1.0  0.93234  0.20217  0.27150  1.0000
  C   C97       1.0  0.93446  0.23367  0.26528  1.0000
  H   H59       1.0  0.93080  0.24177  0.20353  1.0000
  C   C98       1.0  0.76556  0.18763  0.34617  1.0000
  N   N54       1.0  0.81428  0.23417  0.27199  1.0000
  C   C99       1.0  0.78283  0.20471  0.26580  1.0000
  H   H60       1.0  0.77476  0.19299  0.20398  1.0000
  C   C100      1.0  0.99169  0.47121  0.35229  1.0000
  N   N55       1.0  0.97428  0.48917  0.35180  1.0000
  C   C101      1.0  0.99168  0.02454  0.35229  1.0000
  N   N56       1.0  0.52706  0.04196  0.35177  1.0000
  C   C102      1.0  0.54504  0.02456  0.35228  1.0000
  N   N57       1.0  0.52707  0.48919  0.35176  1.0000
  C   C103      1.0  0.74434  0.15122  0.34607  1.0000
  N   N58       1.0  0.70896  0.13334  0.34788  1.0000
  C   C104      1.0  0.69115  0.09784  0.34993  1.0000
  N   N59       1.0  0.70912  0.08030  0.35067  1.0000
  C   C105      1.0  0.74449  0.09795  0.34863  1.0000
  N   N60       1.0  0.76138  0.13310  0.34678  1.0000
  C   C106      1.0  0.86505  0.09714  0.34638  1.0000
  N   N61       1.0  0.88295  0.07966  0.34810  1.0000
  C   C107      1.0  0.91846  0.09740  0.34994  1.0000
  N   N62       1.0  0.93598  0.13291  0.35047  1.0000
  C   C108      1.0  0.91829  0.15060  0.34853  1.0000
  N   N63       1.0  0.88314  0.13230  0.34686  1.0000
  C   C109      1.0  0.91914  0.27198  0.34613  1.0000
  N   N64       1.0  0.93661  0.30736  0.34776  1.0000
  C   C110      1.0  0.91886  0.32511  0.35002  1.0000
  N   N65       1.0  0.88335  0.30710  0.35094  1.0000
  C   C111      1.0  0.86567  0.27172  0.34898  1.0000
  N   N66       1.0  0.88398  0.25488  0.34692  1.0000
  C   C112      1.0  0.65451  0.07944  0.35113  1.0000
  N   N67       1.0  0.59985  0.05175  0.42781  1.0000
  C   C113      1.0  0.63516  0.06943  0.43224  1.0000
  H   H61       1.0  0.64715  0.07525  0.49402  1.0000
  C   C114      1.0  0.93687  0.07917  0.35113  1.0000
  N   N68       1.0  0.96448  0.05213  0.42781  1.0000
  C   C115      1.0  0.94681  0.06978  0.43224  1.0000
  H   H62       1.0  0.94096  0.07591  0.49402  1.0000
  C   C116      1.0  0.93708  0.36175  0.35118  1.0000
  N   N69       1.0  0.96399  0.41641  0.42783  1.0000
  C   C117      1.0  0.94634  0.38110  0.43227  1.0000
  H   H63       1.0  0.94014  0.36911  0.49406  1.0000
  N   N70       1.0  0.81349  0.08283  0.42563  1.0000
  C   C118      1.0  0.78249  0.08198  0.43254  1.0000
  C   C119      1.0  0.76589  0.08295  0.35125  1.0000
  C   C120      1.0  0.77039  0.08498  0.52368  1.0000
  H   H64       1.0  0.78685  0.08367  0.57665  1.0000
  H   H65       1.0  0.74387  0.06376  0.53422  1.0000
  H   H66       1.0  0.77090  0.10970  0.53026  1.0000
  N   N71       1.0  0.93325  0.23470  0.42483  1.0000
  C   C121      1.0  0.93405  0.20453  0.43197  1.0000
  C   C122      1.0  0.93325  0.18700  0.35075  1.0000
  C   C123      1.0  0.93082  0.18944  0.52323  1.0000
  H   H67       1.0  0.93207  0.20724  0.57604  1.0000
  H   H68       1.0  0.95199  0.18410  0.53424  1.0000
  H   H69       1.0  0.90606  0.16525  0.52960  1.0000
  N   N72       1.0  0.78153  0.20265  0.42554  1.0000
  C   C124      1.0  0.81171  0.23363  0.43264  1.0000
  C   C125      1.0  0.82924  0.25028  0.35138  1.0000
  C   C126      1.0  0.82677  0.24568  0.52385  1.0000
  H   H70       1.0  0.80897  0.22917  0.57673  1.0000
  H   H71       1.0  0.83203  0.27218  0.53451  1.0000
  H   H72       1.0  0.85100  0.24521  0.53044  1.0000
  N   N73       1.0  0.63640  0.57060  0.27204  1.0000
  C   C127      1.0  0.60098  0.55283  0.26661  1.0000
  C   C128      1.0  0.58172  0.54292  0.34863  1.0000
  C   C129      1.0  0.58449  0.54473  0.17614  1.0000
  H   H73       1.0  0.60396  0.55462  0.12230  1.0000
  H   H74       1.0  0.56825  0.55659  0.16873  1.0000
  H   H75       1.0  0.56838  0.51664  0.16800  1.0000
  N   N74       1.0  0.94573  0.56993  0.27204  1.0000
  C   C130      1.0  0.96348  0.55227  0.26661  1.0000
  C   C131      1.0  0.97334  0.54287  0.34864  1.0000
  C   C132      1.0  0.97159  0.54389  0.17614  1.0000
  H   H76       1.0  0.96173  0.55350  0.12231  1.0000
  H   H77       1.0  0.95971  0.51579  0.16869  1.0000
  H   H78       1.0  0.99968  0.55585  0.16806  1.0000
  N   N75       1.0  0.94642  0.87985  0.27209  1.0000
  C   C133      1.0  0.96406  0.91526  0.26663  1.0000
  C   C134      1.0  0.97336  0.93453  0.34865  1.0000
  C   C135      1.0  0.97251  0.93175  0.17616  1.0000
  H   H79       1.0  0.96297  0.91228  0.12234  1.0000
  H   H80       1.0  0.00063  0.94800  0.16886  1.0000
  H   H81       1.0  0.96054  0.94786  0.16790  1.0000
  C   C136      1.0  0.82865  0.58192  0.34648  1.0000
  N   N76       1.0  0.78218  0.58412  0.27213  1.0000
  C   C137      1.0  0.81154  0.58197  0.26600  1.0000
  H   H82       1.0  0.82343  0.58595  0.20432  1.0000
  C   C138      1.0  0.93440  0.75084  0.34555  1.0000
  N   N77       1.0  0.93234  0.70217  0.27150  1.0000
  C   C139      1.0  0.93446  0.73367  0.26528  1.0000
  H   H83       1.0  0.93080  0.74177  0.20353  1.0000
  C   C140      1.0  0.76556  0.68763  0.34617  1.0000
  N   N78       1.0  0.81428  0.73417  0.27199  1.0000
  C   C141      1.0  0.78283  0.70471  0.26580  1.0000
  H   H84       1.0  0.77476  0.69299  0.20398  1.0000
  C   C142      1.0  0.99169  0.97121  0.35229  1.0000
  N   N79       1.0  0.97428  0.98916  0.35180  1.0000
  C   C143      1.0  0.99168  0.52454  0.35229  1.0000
  N   N80       1.0  0.52706  0.54196  0.35177  1.0000
  C   C144      1.0  0.54504  0.52456  0.35228  1.0000
  N   N81       1.0  0.52707  0.98919  0.35176  1.0000
  C   C145      1.0  0.74434  0.65121  0.34607  1.0000
  N   N82       1.0  0.70896  0.63334  0.34788  1.0000
  C   C146      1.0  0.69115  0.59784  0.34993  1.0000
  N   N83       1.0  0.70912  0.58030  0.35067  1.0000
  C   C147      1.0  0.74449  0.59795  0.34863  1.0000
  N   N84       1.0  0.76139  0.63310  0.34678  1.0000
  C   C148      1.0  0.86505  0.59714  0.34638  1.0000
  N   N85       1.0  0.88295  0.57966  0.34810  1.0000
  C   C149      1.0  0.91846  0.59740  0.34994  1.0000
  N   N86       1.0  0.93598  0.63291  0.35047  1.0000
  C   C150      1.0  0.91829  0.65059  0.34853  1.0000
  N   N87       1.0  0.88314  0.63230  0.34686  1.0000
  C   C151      1.0  0.91914  0.77198  0.34613  1.0000
  N   N88       1.0  0.93661  0.80736  0.34776  1.0000
  C   C152      1.0  0.91886  0.82511  0.35002  1.0000
  N   N89       1.0  0.88335  0.80710  0.35094  1.0000
  C   C153      1.0  0.86567  0.77172  0.34898  1.0000
  N   N90       1.0  0.88398  0.75488  0.34692  1.0000
  C   C154      1.0  0.65451  0.57944  0.35113  1.0000
  N   N91       1.0  0.59985  0.55175  0.42781  1.0000
  C   C155      1.0  0.63516  0.56943  0.43224  1.0000
  H   H85       1.0  0.64715  0.57525  0.49402  1.0000
  C   C156      1.0  0.93687  0.57917  0.35113  1.0000
  N   N92       1.0  0.96448  0.55213  0.42781  1.0000
  C   C157      1.0  0.94681  0.56978  0.43224  1.0000
  H   H86       1.0  0.94096  0.57591  0.49402  1.0000
  C   C158      1.0  0.93708  0.86175  0.35118  1.0000
  N   N93       1.0  0.96399  0.91641  0.42783  1.0000
  C   C159      1.0  0.94634  0.88110  0.43227  1.0000
  H   H87       1.0  0.94013  0.86911  0.49406  1.0000
  N   N94       1.0  0.81349  0.58283  0.42563  1.0000
  C   C160      1.0  0.78249  0.58198  0.43254  1.0000
  C   C161      1.0  0.76589  0.58295  0.35125  1.0000
  C   C162      1.0  0.77039  0.58498  0.52368  1.0000
  H   H88       1.0  0.78685  0.58366  0.57665  1.0000
  H   H89       1.0  0.74387  0.56376  0.53422  1.0000
  H   H90       1.0  0.77090  0.60970  0.53026  1.0000
  N   N95       1.0  0.93325  0.73470  0.42483  1.0000
  C   C163      1.0  0.93404  0.70453  0.43197  1.0000
  C   C164      1.0  0.93325  0.68700  0.35075  1.0000
  C   C165      1.0  0.93082  0.68944  0.52323  1.0000
  H   H91       1.0  0.93207  0.70724  0.57604  1.0000
  H   H92       1.0  0.95199  0.68410  0.53424  1.0000
  H   H93       1.0  0.90606  0.66526  0.52960  1.0000
  N   N96       1.0  0.78153  0.70265  0.42554  1.0000
  C   C166      1.0  0.81171  0.73363  0.43264  1.0000
  C   C167      1.0  0.82924  0.75028  0.35138  1.0000
  C   C168      1.0  0.82677  0.74568  0.52385  1.0000
  H   H94       1.0  0.80898  0.72917  0.57673  1.0000
  H   H95       1.0  0.83203  0.77218  0.53451  1.0000
  H   H96       1.0  0.85100  0.74521  0.53044  1.0000
