data_image0
_chemical_formula_structural       C4H4C4H4C4H4CNCNCNC18H12CNCNCNC18H12C4HC4H2NO2C4HC4H2NO2C4HC4H2NO2
_chemical_formula_sum              "C78 H45 N9 O6"
_cell_length_a       36.9736
_cell_length_b       36.9737
_cell_length_c       14.9682
_cell_angle_alpha    90
_cell_angle_beta     90
_cell_angle_gamma    120

_space_group_name_H-M_alt    "P 1"
_space_group_IT_number       1

loop_
  _space_group_symop_operation_xyz
  'x, y, z'

loop_
  _atom_site_type_symbol
  _atom_site_label
  _atom_site_symmetry_multiplicity
  _atom_site_fract_x
  _atom_site_fract_y
  _atom_site_fract_z
  _atom_site_occupancy
  C   C1        1.0  0.55705  0.46794  0.26521  1.0000
  C   C2        1.0  0.53469  0.48948  0.26625  1.0000
  C   C3        1.0  0.45774  0.50140  0.28035  1.0000
  C   C4        1.0  0.43574  0.52334  0.27950  1.0000
  H   H1        1.0  0.44922  0.47723  0.23643  1.0000
  H   H2        1.0  0.41230  0.51492  0.23375  1.0000
  H   H3        1.0  0.57259  0.46854  0.20813  1.0000
  H   H4        1.0  0.53521  0.50570  0.21035  1.0000
  C   C5        1.0  0.53470  0.08964  0.26523  1.0000
  C   C6        1.0  0.51317  0.04574  0.26628  1.0000
  C   C7        1.0  0.50126  0.95688  0.28036  1.0000
  C   C8        1.0  0.47933  0.91293  0.27954  1.0000
  H   H5        1.0  0.52542  0.97253  0.23645  1.0000
  H   H6        1.0  0.48774  0.89792  0.23375  1.0000
  H   H7        1.0  0.53411  0.10458  0.20815  1.0000
  H   H8        1.0  0.49695  0.03004  0.21037  1.0000
  C   C9        1.0  0.91301  0.44557  0.26527  1.0000
  C   C10       1.0  0.95690  0.46794  0.26629  1.0000
  C   C11       1.0  0.04577  0.54490  0.28034  1.0000
  C   C12       1.0  0.08972  0.56692  0.27954  1.0000
  H   H9        1.0  0.03012  0.55342  0.23644  1.0000
  H   H10       1.0  0.10473  0.59034  0.23374  1.0000
  H   H11       1.0  0.89807  0.43006  0.20817  1.0000
  H   H12       1.0  0.97260  0.46743  0.21038  1.0000
  C   C13       1.0  0.35643  0.71086  0.33687  1.0000
  N   N1        1.0  0.37672  0.68868  0.33689  1.0000
  C   C14       1.0  0.35654  0.64621  0.33688  1.0000
  N   N2        1.0  0.31407  0.62593  0.33690  1.0000
  C   C15       1.0  0.29180  0.64611  0.33687  1.0000
  N   N3        1.0  0.31397  0.68858  0.33689  1.0000
  C   C16       1.0  0.37890  0.62397  0.33712  1.0000
  C   C17       1.0  0.42314  0.64526  0.33926  1.0000
  C   C18       1.0  0.44517  0.62334  0.34009  1.0000
  C   C19       1.0  0.42389  0.57919  0.33819  1.0000
  C   C20       1.0  0.37973  0.55780  0.33566  1.0000
  C   C21       1.0  0.35772  0.57973  0.33542  1.0000
  C   C22       1.0  0.37868  0.75546  0.33711  1.0000
  C   C23       1.0  0.42293  0.77852  0.33540  1.0000
  C   C24       1.0  0.44486  0.82247  0.33562  1.0000
  C   C25       1.0  0.42347  0.84523  0.33818  1.0000
  C   C26       1.0  0.37932  0.82236  0.34008  1.0000
  C   C27       1.0  0.35740  0.77842  0.33925  1.0000
  C   C28       1.0  0.24719  0.62376  0.33712  1.0000
  C   C29       1.0  0.22413  0.64494  0.33542  1.0000
  C   C30       1.0  0.18018  0.62292  0.33564  1.0000
  C   C31       1.0  0.15742  0.57877  0.33819  1.0000
  C   C32       1.0  0.18029  0.55749  0.34011  1.0000
  C   C33       1.0  0.22424  0.57952  0.33926  1.0000
  H   H13       1.0  0.47682  0.83773  0.33564  1.0000
  H   H14       1.0  0.43993  0.76360  0.33411  1.0000
  H   H15       1.0  0.36256  0.83756  0.34063  1.0000
  H   H16       1.0  0.32547  0.76342  0.34032  1.0000
  H   H17       1.0  0.23904  0.67686  0.33411  1.0000
  H   H18       1.0  0.16492  0.63961  0.33564  1.0000
  H   H19       1.0  0.23923  0.56258  0.34034  1.0000
  H   H20       1.0  0.16509  0.52553  0.34063  1.0000
  H   H21       1.0  0.32580  0.56272  0.33411  1.0000
  H   H22       1.0  0.36304  0.52584  0.33564  1.0000
  H   H23       1.0  0.47712  0.64010  0.34063  1.0000
  H   H24       1.0  0.44007  0.67718  0.34034  1.0000
  C   C34       1.0  0.64680  0.29135  0.33698  1.0000
  N   N4        1.0  0.62637  0.31338  0.33702  1.0000
  C   C35       1.0  0.64666  0.35585  0.33698  1.0000
  N   N5        1.0  0.68912  0.37628  0.33703  1.0000
  C   C36       1.0  0.71130  0.35599  0.33700  1.0000
  N   N6        1.0  0.68927  0.31353  0.33703  1.0000
  C   C37       1.0  0.62433  0.37803  0.33741  1.0000
  C   C38       1.0  0.58168  0.35815  0.36228  1.0000
  C   C39       1.0  0.55978  0.38019  0.36402  1.0000
  C   C40       1.0  0.57951  0.42276  0.33917  1.0000
  C   C41       1.0  0.62195  0.44263  0.31328  1.0000
  C   C42       1.0  0.64404  0.42077  0.31329  1.0000
  C   C43       1.0  0.62462  0.24684  0.33742  1.0000
  C   C44       1.0  0.58188  0.22380  0.31328  1.0000
  C   C45       1.0  0.56002  0.17985  0.31331  1.0000
  C   C46       1.0  0.57989  0.15729  0.33920  1.0000
  C   C47       1.0  0.62245  0.18012  0.36403  1.0000
  C   C48       1.0  0.64450  0.22406  0.36229  1.0000
  C   C49       1.0  0.75581  0.37831  0.33745  1.0000
  C   C50       1.0  0.77885  0.35861  0.31333  1.0000
  C   C51       1.0  0.82280  0.38070  0.31335  1.0000
  C   C52       1.0  0.84536  0.42313  0.33923  1.0000
  C   C53       1.0  0.82252  0.44286  0.36410  1.0000
  C   C54       1.0  0.77859  0.42097  0.36232  1.0000
  H   H25       1.0  0.52911  0.16443  0.29583  1.0000
  H   H26       1.0  0.56615  0.23877  0.29426  1.0000
  H   H27       1.0  0.63804  0.16490  0.38230  1.0000
  H   H28       1.0  0.67524  0.23922  0.38095  1.0000
  H   H29       1.0  0.76388  0.32792  0.29430  1.0000
  H   H30       1.0  0.83822  0.36521  0.29585  1.0000
  H   H31       1.0  0.76343  0.43656  0.38095  1.0000
  H   H32       1.0  0.83776  0.47367  0.38230  1.0000
  H   H33       1.0  0.67473  0.43649  0.29426  1.0000
  H   H34       1.0  0.63743  0.47354  0.29582  1.0000
  H   H35       1.0  0.52897  0.36461  0.38229  1.0000
  H   H36       1.0  0.56609  0.32741  0.38093  1.0000
  C   C55       1.0  0.55728  0.44503  0.34050  1.0000
  C   C56       1.0  0.51252  0.48946  0.34322  1.0000
  C   C57       1.0  0.51264  0.46680  0.41975  1.0000
  C   C58       1.0  0.53475  0.44468  0.41712  1.0000
  H   H37       1.0  0.53474  0.42856  0.47275  1.0000
  C   C59       1.0  0.49058  0.51198  0.34174  1.0000
  C   C60       1.0  0.44622  0.55691  0.33909  1.0000
  C   C61       1.0  0.47949  0.56769  0.39972  1.0000
  C   C62       1.0  0.50122  0.54547  0.40132  1.0000
  H   H38       1.0  0.48774  0.59139  0.44471  1.0000
  H   H39       1.0  0.52511  0.55416  0.44605  1.0000
  N   N7        1.0  0.48982  0.46572  0.49668  1.0000
  O   O1        1.0  0.51327  0.48056  0.56357  1.0000
  O   O2        1.0  0.46159  0.42914  0.51450  1.0000
  C   C63       1.0  0.55762  0.11279  0.34053  1.0000
  C   C64       1.0  0.51319  0.02359  0.34324  1.0000
  C   C65       1.0  0.53585  0.04637  0.41977  1.0000
  C   C66       1.0  0.55798  0.09061  0.41714  1.0000
  H   H40       1.0  0.57409  0.10672  0.47277  1.0000
  C   C67       1.0  0.49068  0.97914  0.34176  1.0000
  C   C68       1.0  0.44575  0.88984  0.33910  1.0000
  C   C69       1.0  0.43498  0.91233  0.39976  1.0000
  C   C70       1.0  0.45719  0.95627  0.40136  1.0000
  H   H41       1.0  0.41126  0.89687  0.44470  1.0000
  H   H42       1.0  0.44849  0.97147  0.44607  1.0000
  N   N8        1.0  0.53693  0.02464  0.49671  1.0000
  O   O3        1.0  0.52209  0.03325  0.56359  1.0000
  O   O4        1.0  0.57351  0.03298  0.51453  1.0000
  C   C71       1.0  0.88986  0.44536  0.34055  1.0000
  C   C72       1.0  0.97906  0.49013  0.34325  1.0000
  C   C73       1.0  0.95628  0.49001  0.41977  1.0000
  C   C74       1.0  0.91204  0.46790  0.41716  1.0000
  H   H43       1.0  0.89594  0.46792  0.47279  1.0000
  C   C75       1.0  0.02351  0.51206  0.34176  1.0000
  C   C76       1.0  0.11281  0.55643  0.33911  1.0000
  C   C77       1.0  0.09032  0.52317  0.39976  1.0000
  C   C78       1.0  0.04638  0.50143  0.40134  1.0000
  H   H44       1.0  0.10578  0.51492  0.44471  1.0000
  H   H45       1.0  0.03118  0.47755  0.44608  1.0000
  N   N9        1.0  0.97802  0.51283  0.49671  1.0000
  O   O5        1.0  0.96941  0.48938  0.56359  1.0000
  O   O6        1.0  0.96968  0.54107  0.51452  1.0000
