data_image0
_chemical_formula_structural       C16H16C3H2CHC3H2CHC3NC3NC5NC5NC36H26N4CN2CHCN2CH
_chemical_formula_sum              "C80 H50 N12"
_cell_length_a       34.2295
_cell_length_b       34.2275
_cell_length_c       14.6939
_cell_angle_alpha    90
_cell_angle_beta     90
_cell_angle_gamma    89.934

_space_group_name_H-M_alt    "P 1"
_space_group_IT_number       1

loop_
  _space_group_symop_operation_xyz
  'x, y, z'

loop_
  _atom_site_type_symbol
  _atom_site_label
  _atom_site_symmetry_multiplicity
  _atom_site_fract_x
  _atom_site_fract_y
  _atom_site_fract_z
  _atom_site_occupancy
  C   C1        1.0  0.17873  0.01195  0.29342  1.0000
  C   C2        1.0  0.21988  0.01232  0.29188  1.0000
  C   C3        1.0  0.34572  0.03653  0.30798  1.0000
  C   C4        1.0  0.30458  0.03588  0.31098  1.0000
  C   C5        1.0  0.01137  0.17613  0.29701  1.0000
  C   C6        1.0  0.01157  0.21730  0.29756  1.0000
  C   C7        1.0  0.98976  0.30236  0.32439  1.0000
  C   C8        1.0  0.98940  0.34352  0.32511  1.0000
  C   C9        1.0  0.80676  0.00870  0.29785  1.0000
  C   C10       1.0  0.84793  0.00805  0.29715  1.0000
  C   C11       1.0  0.72159  0.98769  0.32498  1.0000
  C   C12       1.0  0.68042  0.98764  0.32595  1.0000
  C   C13       1.0  0.01532  0.84547  0.29324  1.0000
  C   C14       1.0  0.01562  0.80432  0.29152  1.0000
  C   C15       1.0  0.03865  0.67817  0.30676  1.0000
  C   C16       1.0  0.03840  0.71930  0.31006  1.0000
  H   H1        1.0  0.05682  0.66444  0.26153  1.0000
  H   H2        1.0  0.05703  0.73406  0.26787  1.0000
  H   H3        1.0  0.01721  0.79079  0.22955  1.0000
  H   H4        1.0  0.01729  0.86050  0.23317  1.0000
  H   H5        1.0  0.86225  0.00485  0.23643  1.0000
  H   H6        1.0  0.79248  0.00646  0.23691  1.0000
  H   H7        1.0  0.00838  0.16173  0.23633  1.0000
  H   H8        1.0  0.00920  0.23152  0.23656  1.0000
  H   H9        1.0  0.96955  0.35788  0.28522  1.0000
  H   H10       1.0  0.96991  0.28827  0.28401  1.0000
  H   H11       1.0  0.28966  0.05437  0.26873  1.0000
  H   H12       1.0  0.35928  0.05484  0.26284  1.0000
  H   H13       1.0  0.23346  0.01400  0.22999  1.0000
  H   H14       1.0  0.16374  0.01400  0.23330  1.0000
  H   H15       1.0  0.73552  0.96774  0.28449  1.0000
  H   H16       1.0  0.66591  0.96791  0.28612  1.0000
  C   C17       1.0  0.01016  0.46961  0.34248  1.0000
  C   C18       1.0  0.01096  0.49733  0.27118  1.0000
  C   C19       1.0  0.01069  0.53751  0.29150  1.0000
  H   H17       1.0  0.01081  0.55728  0.23927  1.0000
  H   H18       1.0  0.01147  0.48864  0.20452  1.0000
  C   C20       1.0  0.00901  0.42976  0.32493  1.0000
  H   H19       1.0  0.00335  0.42101  0.26169  1.0000
  C   C21       1.0  0.55452  0.00935  0.34374  1.0000
  C   C22       1.0  0.52678  0.01098  0.27256  1.0000
  C   C23       1.0  0.48662  0.01053  0.29293  1.0000
  H   H20       1.0  0.46683  0.01120  0.24075  1.0000
  H   H21       1.0  0.53545  0.01219  0.20594  1.0000
  C   C24       1.0  0.59437  0.00821  0.32605  1.0000
  H   H22       1.0  0.60308  0.00298  0.26256  1.0000
  C   C25       1.0  0.08547  0.90835  0.37796  1.0000
  C   C26       1.0  0.11429  0.93656  0.37785  1.0000
  C   C27       1.0  0.09635  0.97326  0.37857  1.0000
  N   N1        1.0  0.05739  0.96583  0.37908  1.0000
  C   C28       1.0  0.04914  0.92704  0.37838  1.0000
  C   C29       1.0  0.01232  0.90762  0.37820  1.0000
  C   C30       1.0  0.97550  0.92690  0.37844  1.0000
  N   N2        1.0  0.96828  0.96578  0.37844  1.0000
  C   C31       1.0  0.92956  0.97381  0.37838  1.0000
  C   C32       1.0  0.91070  0.93764  0.37855  1.0000
  C   C33       1.0  0.93895  0.90879  0.37828  1.0000
  C   C34       1.0  0.91107  0.01104  0.37848  1.0000
  C   C35       1.0  0.93128  0.04743  0.37851  1.0000
  N   N3        1.0  0.97024  0.05485  0.37830  1.0000
  C   C36       1.0  0.97850  0.09365  0.37838  1.0000
  C   C37       1.0  0.94219  0.11235  0.37865  1.0000
  C   C38       1.0  0.91337  0.08414  0.37841  1.0000
  C   C39       1.0  0.01531  0.11307  0.37853  1.0000
  C   C40       1.0  0.05212  0.09378  0.37860  1.0000
  N   N4        1.0  0.05932  0.05490  0.37873  1.0000
  C   C41       1.0  0.09803  0.04686  0.37837  1.0000
  C   C42       1.0  0.11690  0.08303  0.37810  1.0000
  C   C43       1.0  0.08867  0.11188  0.37803  1.0000
  C   C44       1.0  0.11653  0.00964  0.37826  1.0000
  C   C45       1.0  0.15831  0.00894  0.37659  1.0000
  C   C46       1.0  0.24215  0.00979  0.37312  1.0000
  C   C47       1.0  0.22123  0.00645  0.45610  1.0000
  C   C48       1.0  0.18006  0.00610  0.45799  1.0000
  C   C49       1.0  0.28416  0.01083  0.37135  1.0000
  C   C50       1.0  0.30697  0.98670  0.42919  1.0000
  C   C51       1.0  0.34815  0.98750  0.42670  1.0000
  C   C52       1.0  0.36813  0.01267  0.36630  1.0000
  C   C53       1.0  0.01543  0.15487  0.37883  1.0000
  C   C54       1.0  0.01590  0.23873  0.37958  1.0000
  C   C55       1.0  0.02004  0.21698  0.46120  1.0000
  C   C56       1.0  0.01978  0.17581  0.46100  1.0000
  C   C57       1.0  0.01583  0.28075  0.38005  1.0000
  C   C58       1.0  0.01531  0.36478  0.38137  1.0000
  C   C59       1.0  0.04093  0.34355  0.43803  1.0000
  C   C60       1.0  0.04139  0.30236  0.43692  1.0000
  C   C61       1.0  0.86928  0.01187  0.37889  1.0000
  C   C62       1.0  0.84842  0.01647  0.46113  1.0000
  C   C63       1.0  0.80726  0.01721  0.46147  1.0000
  C   C64       1.0  0.78542  0.01327  0.37994  1.0000
  C   C65       1.0  0.74340  0.01355  0.38060  1.0000
  C   C66       1.0  0.65937  0.01366  0.38245  1.0000
  C   C67       1.0  0.68080  0.03911  0.43903  1.0000
  C   C68       1.0  0.72198  0.03925  0.43765  1.0000
  C   C69       1.0  0.01227  0.86583  0.37649  1.0000
  C   C70       1.0  0.00936  0.84402  0.45778  1.0000
  C   C71       1.0  0.01290  0.78198  0.37261  1.0000
  C   C72       1.0  0.00963  0.80285  0.45569  1.0000
  C   C73       1.0  0.01357  0.73995  0.37060  1.0000
  C   C74       1.0  0.98922  0.71735  0.42828  1.0000
  C   C75       1.0  0.98964  0.67617  0.42556  1.0000
  C   C76       1.0  0.01460  0.65597  0.36499  1.0000
  H   H23       1.0  0.97086  0.66107  0.46662  1.0000
  H   H24       1.0  0.96994  0.73073  0.47145  1.0000
  H   H25       1.0  0.00832  0.78822  0.51633  1.0000
  H   H26       1.0  0.00729  0.85801  0.51918  1.0000
  H   H27       1.0  0.09072  0.87894  0.37745  1.0000
  H   H28       1.0  0.14358  0.93070  0.37715  1.0000
  H   H29       1.0  0.03776  0.98588  0.37956  1.0000
  H   H30       1.0  0.98987  0.03480  0.37815  1.0000
  H   H31       1.0  0.93327  0.87948  0.37818  1.0000
  H   H32       1.0  0.88128  0.93258  0.37874  1.0000
  H   H33       1.0  0.86311  0.01911  0.52151  1.0000
  H   H34       1.0  0.79335  0.01976  0.52279  1.0000
  H   H35       1.0  0.88408  0.09003  0.37833  1.0000
  H   H36       1.0  0.93693  0.14176  0.37893  1.0000
  H   H37       1.0  0.14633  0.08809  0.37782  1.0000
  H   H38       1.0  0.09437  0.14119  0.37749  1.0000
  H   H39       1.0  0.02264  0.16119  0.52143  1.0000
  H   H40       1.0  0.02249  0.23096  0.52246  1.0000
  H   H41       1.0  0.06116  0.28827  0.47757  1.0000
  H   H42       1.0  0.05990  0.35803  0.48002  1.0000
  H   H43       1.0  0.16603  0.00420  0.51936  1.0000
  H   H44       1.0  0.23581  0.00532  0.51682  1.0000
  H   H45       1.0  0.36342  0.96888  0.46793  1.0000
  H   H46       1.0  0.29377  0.96732  0.47231  1.0000
  H   H47       1.0  0.73622  0.05889  0.47830  1.0000
  H   H48       1.0  0.66646  0.05814  0.48121  1.0000
  N   N5        1.0  0.40689  0.01349  0.35681  1.0000
  N   N6        1.0  0.01507  0.61720  0.35533  1.0000
  N   N7        1.0  0.62037  0.01415  0.38789  1.0000
  N   N8        1.0  0.01559  0.40380  0.38655  1.0000
  C   C77       1.0  0.00941  0.54991  0.38322  1.0000
  N   N9        1.0  0.00857  0.52136  0.44780  1.0000
  N   N10       1.0  0.00897  0.48388  0.42896  1.0000
  C   C78       1.0  0.00748  0.58881  0.41004  1.0000
  H   H49       1.0  0.00028  0.59473  0.47415  1.0000
  C   C79       1.0  0.47424  0.00821  0.38456  1.0000
  N   N11       1.0  0.50282  0.00662  0.44901  1.0000
  N   N12       1.0  0.54029  0.00720  0.43014  1.0000
  C   C80       1.0  0.43537  0.00590  0.41134  1.0000
  H   H50       1.0  0.42951  0.99833  0.47524  1.0000
