data_image0
_chemical_formula_structural       C8H4C8H4C8H2N4H2N2H2N2H2N4H2NC18H12NC18H12NC18H12NC18H12NC18H12NC18H12N6H2C8H4C8H2C8H2C8H2C8H4C8H2
_chemical_formula_sum              "C180 H108 N24"
_cell_length_a       52.1928
_cell_length_b       52.1927
_cell_length_c       14.8247
_cell_angle_alpha    90
_cell_angle_beta     90
_cell_angle_gamma    120

_space_group_name_H-M_alt    "P 1"
_space_group_IT_number       1

loop_
  _space_group_symop_operation_xyz
  'x, y, z'

loop_
  _atom_site_type_symbol
  _atom_site_label
  _atom_site_symmetry_multiplicity
  _atom_site_fract_x
  _atom_site_fract_y
  _atom_site_fract_z
  _atom_site_occupancy
  C   C1        1.0  0.97649  0.48881  0.31110  1.0000
  C   C2        1.0  0.99186  0.48585  0.23573  1.0000
  C   C3        1.0  0.02369  0.50194  0.23484  1.0000
  C   C4        1.0  0.03932  0.52045  0.30957  1.0000
  C   C5        1.0  0.03863  0.49765  0.16147  1.0000
  C   C6        1.0  0.02305  0.47884  0.08941  1.0000
  C   C7        1.0  0.99210  0.46304  0.09048  1.0000
  C   C8        1.0  0.97674  0.46614  0.16344  1.0000
  H   H1        1.0  0.06114  0.50749  0.15996  1.0000
  H   H2        1.0  0.03426  0.47595  0.03747  1.0000
  H   H3        1.0  0.98074  0.44862  0.03935  1.0000
  H   H4        1.0  0.95429  0.45296  0.16355  1.0000
  C   C9        1.0  0.52444  0.48868  0.29881  1.0000
  C   C10       1.0  0.50526  0.48421  0.22452  1.0000
  C   C11       1.0  0.48891  0.49965  0.22251  1.0000
  C   C12       1.0  0.49232  0.51923  0.29466  1.0000
  C   C13       1.0  0.46862  0.49366  0.15082  1.0000
  C   C14       1.0  0.46515  0.47401  0.08105  1.0000
  C   C15       1.0  0.48114  0.45905  0.08290  1.0000
  C   C16       1.0  0.50057  0.46373  0.15455  1.0000
  H   H5        1.0  0.45537  0.50284  0.14902  1.0000
  H   H6        1.0  0.45032  0.46994  0.03029  1.0000
  H   H7        1.0  0.47799  0.44409  0.03342  1.0000
  H   H8        1.0  0.51058  0.45122  0.15537  1.0000
  C   C17       1.0  0.52179  0.03492  0.29443  1.0000
  C   C18       1.0  0.51309  0.01843  0.21219  1.0000
  C   C19       1.0  0.50035  0.98683  0.21499  1.0000
  C   C20       1.0  0.49249  0.97193  0.30003  1.0000
  C   C21       1.0  0.49685  0.97166  0.13233  1.0000
  C   C22       1.0  0.50172  0.98609  0.04892  1.0000
  C   C23       1.0  0.51002  0.01605  0.04632  1.0000
  C   C24       1.0  0.51576  0.03203  0.12707  1.0000
  H   H9        1.0  0.49116  0.94991  0.13119  1.0000
  H   H10       1.0  0.52145  0.05374  0.12218  1.0000
  N   N1        1.0  0.26758  0.54940  0.26405  1.0000
  N   N2        1.0  0.29252  0.54928  0.26156  1.0000
  N   N3        1.0  0.45856  0.71510  0.30483  1.0000
  N   N4        1.0  0.45673  0.73910  0.30248  1.0000
  H   H11       1.0  0.48404  0.72118  0.01657  1.0000
  H   H12       1.0  0.47054  0.75935  0.01839  1.0000
  N   N5        1.0  0.29946  0.73786  0.35106  1.0000
  N   N6        1.0  0.27454  0.71283  0.34911  1.0000
  H   H13       1.0  0.27500  0.77931  0.01397  1.0000
  H   H14       1.0  0.22884  0.73271  0.01087  1.0000
  N   N7        1.0  0.74373  0.44971  0.34594  1.0000
  N   N8        1.0  0.71857  0.44933  0.34438  1.0000
  H   H15       1.0  0.78409  0.51371  0.01243  1.0000
  H   H16       1.0  0.73728  0.51286  0.00987  1.0000
  N   N9        1.0  0.55361  0.29090  0.26135  1.0000
  N   N10       1.0  0.55348  0.26583  0.25970  1.0000
  N   N11       1.0  0.71824  0.26683  0.30907  1.0000
  N   N12       1.0  0.74244  0.29249  0.30579  1.0000
  H   H17       1.0  0.72610  0.24767  0.01987  1.0000
  H   H18       1.0  0.76487  0.29909  0.02021  1.0000
  N   N13       1.0  0.16614  0.58473  0.34403  1.0000
  C   C25       1.0  0.18271  0.61522  0.36915  1.0000
  C   C26       1.0  0.13458  0.56953  0.33677  1.0000
  C   C27       1.0  0.18344  0.57081  0.32832  1.0000
  C   C28       1.0  0.20557  0.58195  0.26080  1.0000
  C   C29       1.0  0.22871  0.57540  0.26182  1.0000
  C   C30       1.0  0.23006  0.55682  0.32896  1.0000
  C   C31       1.0  0.20571  0.54255  0.38865  1.0000
  C   C32       1.0  0.18326  0.55009  0.39007  1.0000
  C   C33       1.0  0.19008  0.63758  0.30393  1.0000
  C   C34       1.0  0.21248  0.66699  0.32048  1.0000
  C   C35       1.0  0.22818  0.67514  0.40312  1.0000
  C   C36       1.0  0.22030  0.65280  0.46910  1.0000
  C   C37       1.0  0.19786  0.62340  0.45256  1.0000
  C   C38       1.0  0.12054  0.57314  0.26031  1.0000
  C   C39       1.0  0.08939  0.55784  0.25244  1.0000
  C   C40       1.0  0.07099  0.53761  0.31945  1.0000
  C   C41       1.0  0.08514  0.53499  0.39762  1.0000
  C   C42       1.0  0.11628  0.55065  0.40610  1.0000
  H   H19       1.0  0.21815  0.68221  0.26982  1.0000
  H   H20       1.0  0.18080  0.63215  0.24114  1.0000
  H   H21       1.0  0.19414  0.60746  0.49919  1.0000
  H   H22       1.0  0.23209  0.65737  0.52786  1.0000
  H   H23       1.0  0.20688  0.59758  0.21652  1.0000
  H   H24       1.0  0.24592  0.58643  0.21775  1.0000
  H   H25       1.0  0.13301  0.58675  0.20901  1.0000
  H   H26       1.0  0.08020  0.56118  0.19589  1.0000
  H   H27       1.0  0.07282  0.52095  0.44849  1.0000
  H   H28       1.0  0.12558  0.54805  0.46347  1.0000
  H   H29       1.0  0.16812  0.54210  0.44113  1.0000
  H   H30       1.0  0.20564  0.52867  0.43753  1.0000
  N   N14       1.0  0.43001  0.58375  0.31998  1.0000
  C   C43       1.0  0.39860  0.56967  0.30778  1.0000
  C   C44       1.0  0.44616  0.56834  0.31514  1.0000
  C   C45       1.0  0.44433  0.61431  0.34454  1.0000
  C   C46       1.0  0.43563  0.62298  0.42373  1.0000
  C   C47       1.0  0.44290  0.65258  0.43684  1.0000
  C   C48       1.0  0.46044  0.67503  0.37380  1.0000
  C   C49       1.0  0.47013  0.66633  0.29634  1.0000
  C   C50       1.0  0.46211  0.63653  0.28176  1.0000
  C   C51       1.0  0.37880  0.54886  0.37077  1.0000
  C   C52       1.0  0.34892  0.54165  0.37428  1.0000
  C   C53       1.0  0.33826  0.55627  0.31829  1.0000
  C   C54       1.0  0.35734  0.57494  0.24971  1.0000
  C   C55       1.0  0.38689  0.58122  0.24386  1.0000
  C   C56       1.0  0.44709  0.55150  0.38842  1.0000
  C   C57       1.0  0.46252  0.53575  0.38202  1.0000
  C   C58       1.0  0.47781  0.53640  0.30227  1.0000
  C   C59       1.0  0.47833  0.55486  0.23128  1.0000
  C   C60       1.0  0.46238  0.57007  0.23692  1.0000
  H   H31       1.0  0.33572  0.52770  0.42405  1.0000
  H   H32       1.0  0.38648  0.54060  0.41951  1.0000
  H   H33       1.0  0.40074  0.59698  0.19902  1.0000
  H   H34       1.0  0.35071  0.58619  0.20811  1.0000
  H   H35       1.0  0.42141  0.60725  0.46803  1.0000
  H   H36       1.0  0.43339  0.65708  0.49026  1.0000
  H   H37       1.0  0.43629  0.55042  0.44702  1.0000
  H   H38       1.0  0.46185  0.52310  0.43571  1.0000
  H   H39       1.0  0.48993  0.55690  0.17349  1.0000
  H   H40       1.0  0.46247  0.58230  0.18295  1.0000
  H   H41       1.0  0.46746  0.63084  0.22163  1.0000
  H   H42       1.0  0.48184  0.68146  0.24709  1.0000
  N   N15       1.0  0.42734  0.84537  0.35877  1.0000
  C   C61       1.0  0.44064  0.82718  0.34729  1.0000
  C   C62       1.0  0.44301  0.87687  0.34539  1.0000
  C   C63       1.0  0.39652  0.82951  0.38167  1.0000
  C   C64       1.0  0.38736  0.81467  0.46541  1.0000
  C   C65       1.0  0.35782  0.79206  0.47934  1.0000
  C   C66       1.0  0.33624  0.78382  0.41059  1.0000
  C   C67       1.0  0.34532  0.79942  0.32794  1.0000
  C   C68       1.0  0.37485  0.82181  0.31379  1.0000
  C   C69       1.0  0.46372  0.83007  0.40389  1.0000
  C   C70       1.0  0.47178  0.80802  0.40711  1.0000
  C   C71       1.0  0.45526  0.78087  0.36054  1.0000
  C   C72       1.0  0.43407  0.77927  0.29750  1.0000
  C   C73       1.0  0.42746  0.80226  0.28942  1.0000
  C   C74       1.0  0.46489  0.89635  0.40667  1.0000
  C   C75       1.0  0.48117  0.92720  0.39125  1.0000
  C   C76       1.0  0.47575  0.94030  0.31517  1.0000
  C   C77       1.0  0.45184  0.92087  0.25898  1.0000
  C   C78       1.0  0.43664  0.88993  0.27168  1.0000
  H   H43       1.0  0.48867  0.81125  0.44917  1.0000
  H   H44       1.0  0.47396  0.84747  0.44714  1.0000
  H   H45       1.0  0.41056  0.79909  0.24757  1.0000
  H   H46       1.0  0.42174  0.76043  0.26062  1.0000
  H   H47       1.0  0.40280  0.81841  0.51389  1.0000
  H   H48       1.0  0.35267  0.78027  0.53822  1.0000
  H   H49       1.0  0.46922  0.88825  0.46369  1.0000
  H   H50       1.0  0.49736  0.94009  0.43644  1.0000
  H   H51       1.0  0.44516  0.92903  0.20705  1.0000
  H   H52       1.0  0.42066  0.87701  0.22636  1.0000
  H   H53       1.0  0.38090  0.83021  0.25026  1.0000
  H   H54       1.0  0.33079  0.79345  0.27514  1.0000
  N   N16       1.0  0.84981  0.42784  0.35414  1.0000
  C   C79       1.0  0.83145  0.39635  0.34440  1.0000
  C   C80       1.0  0.88132  0.44346  0.34389  1.0000
  C   C81       1.0  0.83450  0.44320  0.37811  1.0000
  C   C82       1.0  0.81920  0.43709  0.46109  1.0000
  C   C83       1.0  0.79686  0.44439  0.47464  1.0000
  C   C84       1.0  0.78944  0.45855  0.40636  1.0000
  C   C85       1.0  0.80568  0.46567  0.32475  1.0000
  C   C86       1.0  0.82789  0.45823  0.31097  1.0000
  C   C87       1.0  0.83467  0.37637  0.40108  1.0000
  C   C88       1.0  0.81237  0.34635  0.40651  1.0000
  C   C89       1.0  0.78485  0.33564  0.36180  1.0000
  C   C90       1.0  0.78297  0.35506  0.29872  1.0000
  C   C91       1.0  0.80605  0.38452  0.28857  1.0000
  C   C92       1.0  0.90009  0.44438  0.41412  1.0000
  C   C93       1.0  0.93116  0.45941  0.40348  1.0000
  C   C94       1.0  0.94484  0.47442  0.32239  1.0000
  C   C95       1.0  0.92597  0.47499  0.25452  1.0000
  C   C96       1.0  0.89488  0.45940  0.26433  1.0000
  H   H55       1.0  0.81579  0.33282  0.44853  1.0000
  H   H56       1.0  0.85265  0.38379  0.44233  1.0000
  H   H57       1.0  0.80267  0.39821  0.24717  1.0000
  H   H58       1.0  0.76387  0.34855  0.26322  1.0000
  H   H59       1.0  0.82229  0.42474  0.50884  1.0000
  H   H60       1.0  0.78462  0.43738  0.53263  1.0000
  H   H61       1.0  0.89116  0.43393  0.47383  1.0000
  H   H62       1.0  0.94376  0.45873  0.45530  1.0000
  H   H63       1.0  0.93477  0.48650  0.19607  1.0000
  H   H64       1.0  0.88212  0.45962  0.21244  1.0000
  H   H65       1.0  0.83712  0.46129  0.24831  1.0000
  H   H66       1.0  0.80030  0.47490  0.27240  1.0000
  N   N17       1.0  0.58987  0.42786  0.34093  1.0000
  C   C97       1.0  0.62034  0.44191  0.36617  1.0000
  C   C98       1.0  0.57466  0.44411  0.33201  1.0000
  C   C99       1.0  0.57590  0.39670  0.32484  1.0000
  C   C100      1.0  0.58746  0.38565  0.25884  1.0000
  C   C101      1.0  0.58041  0.35584  0.25984  1.0000
  C   C102      1.0  0.56087  0.33586  0.32526  1.0000
  C   C103      1.0  0.54624  0.34606  0.38299  1.0000
  C   C104      1.0  0.55428  0.37619  0.38460  1.0000
  C   C105      1.0  0.64267  0.45752  0.30134  1.0000
  C   C106      1.0  0.67216  0.46480  0.31765  1.0000
  C   C107      1.0  0.68043  0.45707  0.39976  1.0000
  C   C108      1.0  0.65812  0.44209  0.46545  1.0000
  C   C109      1.0  0.62862  0.43480  0.44916  1.0000
  C   C110      1.0  0.57751  0.46054  0.25323  1.0000
  C   C111      1.0  0.56189  0.47598  0.24347  1.0000
  C   C112      1.0  0.54208  0.47484  0.31087  1.0000
  C   C113      1.0  0.54026  0.45935  0.39130  1.0000
  C   C114      1.0  0.55626  0.44430  0.40165  1.0000
  H   H67       1.0  0.68739  0.47476  0.26721  1.0000
  H   H68       1.0  0.63717  0.46144  0.23877  1.0000
  H   H69       1.0  0.61269  0.42218  0.49534  1.0000
  H   H70       1.0  0.66281  0.43473  0.52373  1.0000
  H   H71       1.0  0.60357  0.39995  0.21569  1.0000
  H   H72       1.0  0.59163  0.34951  0.21702  1.0000
  H   H73       1.0  0.59070  0.46098  0.20160  1.0000
  H   H74       1.0  0.56458  0.48759  0.18523  1.0000
  H   H75       1.0  0.52645  0.45812  0.44228  1.0000
  H   H76       1.0  0.55415  0.43313  0.46032  1.0000
  H   H77       1.0  0.54594  0.38339  0.43452  1.0000
  H   H78       1.0  0.53173  0.33225  0.43070  1.0000
  N   N18       1.0  0.58688  0.16237  0.32818  1.0000
  C   C115      1.0  0.57296  0.17977  0.31321  1.0000
  C   C116      1.0  0.57136  0.13067  0.32182  1.0000
  C   C117      1.0  0.61767  0.17916  0.35123  1.0000
  C   C118      1.0  0.62645  0.19640  0.43075  1.0000
  C   C119      1.0  0.65595  0.21920  0.44302  1.0000
  C   C120      1.0  0.67832  0.22479  0.37883  1.0000
  C   C121      1.0  0.66951  0.20671  0.30074  1.0000
  C   C122      1.0  0.63981  0.18456  0.28687  1.0000
  C   C123      1.0  0.55218  0.17939  0.37524  1.0000
  C   C124      1.0  0.54485  0.20197  0.37571  1.0000
  C   C125      1.0  0.55972  0.22690  0.31858  1.0000
  C   C126      1.0  0.57828  0.22585  0.25072  1.0000
  C   C127      1.0  0.58437  0.20241  0.24720  1.0000
  C   C128      1.0  0.54986  0.11246  0.38603  1.0000
  C   C129      1.0  0.53361  0.08136  0.37660  1.0000
  C   C130      1.0  0.53862  0.06678  0.30378  1.0000
  C   C131      1.0  0.56209  0.08505  0.24450  1.0000
  C   C132      1.0  0.57729  0.11618  0.25127  1.0000
  H   H79       1.0  0.53104  0.20171  0.42518  1.0000
  H   H80       1.0  0.54424  0.16431  0.42624  1.0000
  H   H81       1.0  0.60007  0.20390  0.20287  1.0000
  H   H82       1.0  0.58963  0.24345  0.20823  1.0000
  H   H83       1.0  0.61076  0.19439  0.47604  1.0000
  H   H84       1.0  0.66044  0.23295  0.49715  1.0000
  H   H85       1.0  0.54571  0.12169  0.44064  1.0000
  H   H86       1.0  0.51769  0.06938  0.42358  1.0000
  H   H87       1.0  0.56836  0.07586  0.19445  1.0000
  H   H88       1.0  0.59285  0.12820  0.20375  1.0000
  H   H89       1.0  0.63415  0.17418  0.22581  1.0000
  H   H90       1.0  0.68446  0.21061  0.25041  1.0000
  N   N19       1.0  0.02255  0.52096  0.37892  1.0000
  N   N20       1.0  0.99360  0.50641  0.37952  1.0000
  N   N21       1.0  0.51051  0.52118  0.36323  1.0000
  N   N22       1.0  0.52532  0.50706  0.36521  1.0000
  N   N23       1.0  0.50059  0.98971  0.37401  1.0000
  N   N24       1.0  0.51447  0.01861  0.37147  1.0000
  H   H91       1.0  0.49843  0.97457  0.65682  1.0000
  H   H92       1.0  0.51267  0.02643  0.65232  1.0000
  C   C133      1.0  0.31042  0.55477  0.33411  1.0000
  C   C134      1.0  0.30131  0.56177  0.41690  1.0000
  C   C135      1.0  0.27386  0.56192  0.41961  1.0000
  C   C136      1.0  0.25645  0.55503  0.33946  1.0000
  C   C137      1.0  0.26598  0.57080  0.50074  1.0000
  C   C138      1.0  0.28364  0.57808  0.57836  1.0000
  C   C139      1.0  0.31034  0.57791  0.57574  1.0000
  C   C140      1.0  0.31932  0.57048  0.49550  1.0000
  H   H93       1.0  0.24768  0.57297  0.50473  1.0000
  H   H94       1.0  0.27757  0.58454  0.63582  1.0000
  H   H95       1.0  0.32375  0.58425  0.63130  1.0000
  H   H96       1.0  0.33973  0.57240  0.49568  1.0000
  C   C141      1.0  0.45909  0.75573  0.37591  1.0000
  C   C142      1.0  0.46407  0.74568  0.46036  1.0000
  C   C143      1.0  0.46840  0.72059  0.46160  1.0000
  C   C144      1.0  0.46411  0.70414  0.38076  1.0000
  C   C145      1.0  0.47699  0.71290  0.54345  1.0000
  C   C146      1.0  0.47837  0.72740  0.62453  1.0000
  C   C147      1.0  0.47067  0.74952  0.62549  1.0000
  C   C148      1.0  0.46354  0.75845  0.54448  1.0000
  H   H97       1.0  0.48252  0.69669  0.54532  1.0000
  H   H98       1.0  0.45721  0.77397  0.54910  1.0000
  C   C149      1.0  0.25355  0.70391  0.41436  1.0000
  C   C150      1.0  0.25944  0.72362  0.48804  1.0000
  C   C151      1.0  0.28686  0.75122  0.49001  1.0000
  C   C152      1.0  0.30750  0.75810  0.41842  1.0000
  C   C153      1.0  0.29197  0.77136  0.56127  1.0000
  C   C154      1.0  0.27103  0.76444  0.63008  1.0000
  C   C155      1.0  0.24431  0.73747  0.62827  1.0000
  C   C156      1.0  0.23845  0.71738  0.55757  1.0000
  H   H99       1.0  0.31068  0.79167  0.56324  1.0000
  H   H100      1.0  0.21831  0.69844  0.55692  1.0000
  C   C157      1.0  0.70936  0.46085  0.41052  1.0000
  C   C158      1.0  0.72890  0.47443  0.48471  1.0000
  C   C159      1.0  0.75663  0.47489  0.48631  1.0000
  C   C160      1.0  0.76380  0.46168  0.41378  1.0000
  C   C161      1.0  0.77657  0.48957  0.55827  1.0000
  C   C162      1.0  0.76935  0.50303  0.62807  1.0000
  C   C163      1.0  0.74226  0.50255  0.62657  1.0000
  C   C164      1.0  0.72234  0.48860  0.55526  1.0000
  H   H101      1.0  0.79695  0.49132  0.56008  1.0000
  H   H102      1.0  0.70331  0.48963  0.55489  1.0000
  C   C165      1.0  0.55849  0.25341  0.33311  1.0000
  C   C166      1.0  0.56494  0.26947  0.41594  1.0000
  C   C167      1.0  0.56497  0.29700  0.41782  1.0000
  C   C168      1.0  0.55869  0.30758  0.33668  1.0000
  C   C169      1.0  0.57312  0.31362  0.49923  1.0000
  C   C170      1.0  0.57982  0.30319  0.57783  1.0000
  C   C171      1.0  0.57992  0.27646  0.57592  1.0000
  C   C172      1.0  0.57324  0.26020  0.49550  1.0000
  H   H103      1.0  0.57513  0.33404  0.50286  1.0000
  H   H104      1.0  0.58576  0.31563  0.63547  1.0000
  H   H105      1.0  0.58595  0.26939  0.63218  1.0000
  H   H106      1.0  0.57545  0.24189  0.49633  1.0000
  C   C173      1.0  0.75959  0.30676  0.37838  1.0000
  C   C174      1.0  0.74980  0.29182  0.46306  1.0000
  C   C175      1.0  0.72439  0.26256  0.46531  1.0000
  C   C176      1.0  0.70742  0.25042  0.38526  1.0000
  C   C177      1.0  0.71700  0.24640  0.54733  1.0000
  C   C178      1.0  0.73209  0.25948  0.62768  1.0000
  C   C179      1.0  0.75457  0.28916  0.62779  1.0000
  C   C180      1.0  0.76323  0.30510  0.54654  1.0000
  H   H107      1.0  0.70062  0.22474  0.54985  1.0000
  H   H108      1.0  0.77909  0.32685  0.55055  1.0000
