data_image0
_chemical_formula_structural       C8H8C3HCH3CHC3HCH3CHC3NC3NC5NC5NC20H18N4CN2CHCN2CH
_chemical_formula_sum              "C58 H38 N12"
_cell_length_a       25.7623
_cell_length_b       25.7602
_cell_length_c       14.7684
_cell_angle_alpha    90
_cell_angle_beta     90
_cell_angle_gamma    90.03

_space_group_name_H-M_alt    "P 1"
_space_group_IT_number       1

loop_
  _space_group_symop_operation_xyz
  'x, y, z'

loop_
  _atom_site_type_symbol
  _atom_site_label
  _atom_site_symmetry_multiplicity
  _atom_site_fract_x
  _atom_site_fract_y
  _atom_site_fract_z
  _atom_site_occupancy
  C   C1        1.0  0.22764  0.99888  0.28673  1.0000
  C   C2        1.0  0.28231  0.99879  0.28245  1.0000
  C   C3        1.0  0.99947  0.78914  0.28685  1.0000
  C   C4        1.0  0.99911  0.73447  0.28246  1.0000
  C   C5        1.0  0.73382  0.01911  0.29474  1.0000
  C   C6        1.0  0.78856  0.01869  0.29586  1.0000
  C   C7        1.0  0.01928  0.22804  0.29595  1.0000
  C   C8        1.0  0.01995  0.28279  0.29468  1.0000
  H   H1        1.0  0.02870  0.30095  0.23511  1.0000
  H   H2        1.0  0.02703  0.20827  0.23736  1.0000
  H   H3        1.0  0.80826  0.02697  0.23741  1.0000
  H   H4        1.0  0.71558  0.02819  0.23540  1.0000
  H   H5        1.0  0.99254  0.80997  0.22907  1.0000
  H   H6        1.0  0.99194  0.71703  0.22142  1.0000
  H   H7        1.0  0.29981  0.99210  0.22130  1.0000
  H   H8        1.0  0.20688  0.99220  0.22878  1.0000
  C   C9        1.0  0.00917  0.45276  0.33212  1.0000
  C   C10       1.0  0.00857  0.48904  0.26030  1.0000
  C   C11       1.0  0.00992  0.54327  0.27689  1.0000
  H   H9        1.0  0.00729  0.47574  0.19495  1.0000
  C   C12       1.0  0.00978  0.57928  0.19810  1.0000
  H   H10       1.0  0.00948  0.55897  0.13312  1.0000
  H   H11       1.0  0.04442  0.60363  0.19968  1.0000
  H   H12       1.0  0.97529  0.60379  0.20042  1.0000
  C   C13       1.0  0.00808  0.39943  0.31548  1.0000
  H   H13       1.0  0.00543  0.38793  0.25141  1.0000
  C   C14       1.0  0.56391  0.00810  0.33248  1.0000
  C   C15       1.0  0.52760  0.00777  0.26069  1.0000
  C   C16       1.0  0.47339  0.00912  0.27735  1.0000
  H   H14       1.0  0.54088  0.00666  0.19531  1.0000
  C   C17       1.0  0.43736  0.00924  0.19857  1.0000
  H   H15       1.0  0.45766  0.00908  0.13357  1.0000
  H   H16       1.0  0.41310  0.04390  0.20043  1.0000
  H   H17       1.0  0.41278  0.97477  0.20062  1.0000
  C   C18       1.0  0.61723  0.00702  0.31573  1.0000
  H   H18       1.0  0.62867  0.00467  0.25159  1.0000
  C   C19       1.0  0.10541  0.14243  0.37635  1.0000
  C   C20       1.0  0.14336  0.10457  0.37468  1.0000
  C   C21       1.0  0.11921  0.05598  0.37504  1.0000
  N   N1        1.0  0.06749  0.06648  0.37631  1.0000
  C   C22       1.0  0.05686  0.11818  0.37672  1.0000
  C   C23       1.0  0.00821  0.14472  0.37769  1.0000
  C   C24       1.0  0.95910  0.11928  0.37810  1.0000
  N   N2        1.0  0.94891  0.06765  0.37784  1.0000
  C   C25       1.0  0.89731  0.05732  0.37781  1.0000
  C   C26       1.0  0.87281  0.10569  0.37844  1.0000
  C   C27       1.0  0.91068  0.14367  0.37797  1.0000
  C   C28       1.0  0.87198  0.00813  0.37748  1.0000
  C   C29       1.0  0.89862  0.95955  0.37662  1.0000
  N   N3        1.0  0.95034  0.94906  0.37656  1.0000
  C   C30       1.0  0.96098  0.89738  0.37447  1.0000
  C   C31       1.0  0.91245  0.87310  0.37382  1.0000
  C   C32       1.0  0.87448  0.91096  0.37456  1.0000
  C   C33       1.0  0.00963  0.87086  0.37338  1.0000
  C   C34       1.0  0.05876  0.89626  0.37352  1.0000
  N   N4        1.0  0.06893  0.94788  0.37456  1.0000
  C   C35       1.0  0.12052  0.95821  0.37317  1.0000
  C   C36       1.0  0.14503  0.90986  0.37160  1.0000
  C   C37       1.0  0.10716  0.87187  0.37124  1.0000
  C   C38       1.0  0.14583  0.00740  0.37343  1.0000
  C   C39       1.0  0.20158  0.00785  0.36953  1.0000
  C   C40       1.0  0.31284  0.00779  0.36038  1.0000
  C   C41       1.0  0.28677  0.01702  0.44324  1.0000
  C   C42       1.0  0.23200  0.01693  0.44775  1.0000
  C   C43       1.0  0.00923  0.81511  0.36947  1.0000
  C   C44       1.0  0.00863  0.70385  0.36009  1.0000
  C   C45       1.0  0.01860  0.72983  0.44278  1.0000
  C   C46       1.0  0.01880  0.78460  0.44739  1.0000
  C   C47       1.0  0.81617  0.00767  0.37634  1.0000
  C   C48       1.0  0.78720  0.99702  0.45557  1.0000
  C   C49       1.0  0.73239  0.99729  0.45415  1.0000
  C   C50       1.0  0.70458  0.00803  0.37379  1.0000
  C   C51       1.0  0.00858  0.20053  0.37667  1.0000
  C   C52       1.0  0.99854  0.22962  0.45601  1.0000
  C   C53       1.0  0.00942  0.31213  0.37382  1.0000
  C   C54       1.0  0.99904  0.28443  0.45445  1.0000
  H   H19       1.0  0.99157  0.30416  0.51318  1.0000
  H   H20       1.0  0.99081  0.21098  0.51573  1.0000
  H   H21       1.0  0.11285  0.18141  0.37687  1.0000
  H   H22       1.0  0.18232  0.11207  0.37349  1.0000
  H   H23       1.0  0.04113  0.04005  0.37643  1.0000
  H   H24       1.0  0.97671  0.97548  0.37771  1.0000
  H   H25       1.0  0.90338  0.18266  0.37768  1.0000
  H   H26       1.0  0.83380  0.11289  0.37883  1.0000
  H   H27       1.0  0.80591  0.98917  0.51515  1.0000
  H   H28       1.0  0.71273  0.98949  0.51284  1.0000
  H   H29       1.0  0.83553  0.90346  0.37351  1.0000
  H   H30       1.0  0.90505  0.83412  0.37248  1.0000
  H   H31       1.0  0.18404  0.90269  0.37043  1.0000
  H   H32       1.0  0.11443  0.83289  0.36949  1.0000
  H   H33       1.0  0.02613  0.80217  0.50823  1.0000
  H   H34       1.0  0.02591  0.70912  0.50039  1.0000
  H   H35       1.0  0.21436  0.02357  0.50875  1.0000
  H   H36       1.0  0.30743  0.02386  0.50109  1.0000
  N   N5        1.0  0.00816  0.65225  0.34919  1.0000
  N   N6        1.0  0.65238  0.00839  0.37792  1.0000
  N   N7        1.0  0.00978  0.36433  0.37774  1.0000
  N   N8        1.0  0.36444  0.00739  0.34961  1.0000
  C   C55       1.0  0.01177  0.56057  0.36867  1.0000
  N   N9        1.0  0.01235  0.52279  0.43348  1.0000
  N   N10       1.0  0.01112  0.47276  0.41718  1.0000
  C   C56       1.0  0.01414  0.61197  0.39987  1.0000
  H   H37       1.0  0.02073  0.61774  0.46542  1.0000
  C   C57       1.0  0.45611  0.01073  0.36915  1.0000
  N   N11       1.0  0.49392  0.01107  0.43393  1.0000
  N   N12       1.0  0.54394  0.00983  0.41757  1.0000
  C   C58       1.0  0.40472  0.01300  0.40041  1.0000
  H   H38       1.0  0.39897  0.01913  0.46610  1.0000
