data_image0
_chemical_formula_structural       C10H5C6H3N2C10H5C6H3N2C3HNO2CHC3HNO2CHC3HNO2CHC8H7NC8H7NC3HNO2CHC3HNO2CHC3HNO2CH
_chemical_formula_sum              "C72 H42 N12 O12"
_cell_length_a       37.2881
_cell_length_b       37.2586
_cell_length_c       14.6302
_cell_angle_alpha    90
_cell_angle_beta     90
_cell_angle_gamma    120.023

_space_group_name_H-M_alt    "P 1"
_space_group_IT_number       1

loop_
  _space_group_symop_operation_xyz
  'x, y, z'

loop_
  _atom_site_type_symbol
  _atom_site_label
  _atom_site_symmetry_multiplicity
  _atom_site_fract_x
  _atom_site_fract_y
  _atom_site_fract_z
  _atom_site_occupancy
  C   C1        1.0  0.39468  0.63276  0.34569  1.0000
  C   C2        1.0  0.26238  0.63615  0.35632  1.0000
  C   C3        1.0  0.37940  0.59540  0.29513  1.0000
  C   C4        1.0  0.40000  0.57232  0.29498  1.0000
  C   C5        1.0  0.43729  0.58616  0.34362  1.0000
  C   C6        1.0  0.40674  0.83507  0.30782  1.0000
  C   C7        1.0  0.38443  0.79141  0.30701  1.0000
  C   C8        1.0  0.24026  0.65275  0.31080  1.0000
  C   C9        1.0  0.19664  0.63248  0.31212  1.0000
  C   C10       1.0  0.17325  0.59408  0.35682  1.0000
  H   H1        1.0  0.38766  0.54534  0.25831  1.0000
  H   H2        1.0  0.35862  0.77690  0.26663  1.0000
  H   H3        1.0  0.39596  0.85043  0.26896  1.0000
  H   H4        1.0  0.25573  0.67989  0.27499  1.0000
  H   H5        1.0  0.18198  0.64576  0.27909  1.0000
  C   C11       1.0  0.30708  0.65742  0.35584  1.0000
  C   C12       1.0  0.33085  0.70127  0.36014  1.0000
  C   C13       1.0  0.37470  0.72329  0.35686  1.0000
  C   C14       1.0  0.39494  0.69978  0.35085  1.0000
  C   C15       1.0  0.37305  0.65581  0.34874  1.0000
  C   C16       1.0  0.32914  0.63558  0.35072  1.0000
  H   H6        1.0  0.42652  0.71523  0.34510  1.0000
  H   H7        1.0  0.31268  0.60393  0.34852  1.0000
  H   H8        1.0  0.35302  0.58457  0.25693  1.0000
  N   N1        1.0  0.13213  0.57689  0.35995  1.0000
  N   N2        1.0  0.45462  0.56227  0.34509  1.0000
  C   C17       1.0  0.64168  0.39134  0.34828  1.0000
  C   C18       1.0  0.77410  0.38923  0.35812  1.0000
  C   C19       1.0  0.65487  0.42713  0.29334  1.0000
  C   C20       1.0  0.63345  0.44942  0.29347  1.0000
  C   C21       1.0  0.59803  0.43693  0.34846  1.0000
  C   C22       1.0  0.63089  0.18871  0.31691  1.0000
  C   C23       1.0  0.65373  0.23239  0.31582  1.0000
  C   C24       1.0  0.79681  0.37538  0.30564  1.0000
  C   C25       1.0  0.84049  0.39688  0.30598  1.0000
  C   C26       1.0  0.86332  0.43308  0.35880  1.0000
  H   H9        1.0  0.64404  0.47509  0.25272  1.0000
  H   H10       1.0  0.68071  0.24639  0.27921  1.0000
  H   H11       1.0  0.64198  0.17253  0.28187  1.0000
  H   H12       1.0  0.78169  0.34972  0.26494  1.0000
  H   H13       1.0  0.85562  0.38584  0.26680  1.0000
  C   C27       1.0  0.72955  0.36755  0.35686  1.0000
  C   C28       1.0  0.70619  0.32366  0.36053  1.0000
  C   C29       1.0  0.66227  0.30127  0.35757  1.0000
  C   C30       1.0  0.64193  0.32474  0.35148  1.0000
  C   C31       1.0  0.66358  0.36867  0.34995  1.0000
  C   C32       1.0  0.70742  0.38928  0.35205  1.0000
  H   H14       1.0  0.61036  0.30942  0.34556  1.0000
  H   H15       1.0  0.72367  0.42098  0.35038  1.0000
  H   H16       1.0  0.68002  0.43708  0.25136  1.0000
  N   N3        1.0  0.90472  0.45143  0.35609  1.0000
  N   N4        1.0  0.57989  0.46020  0.34628  1.0000
  C   C33       1.0  0.50493  0.54271  0.35199  1.0000
  C   C34       1.0  0.51576  0.52739  0.27432  1.0000
  C   C35       1.0  0.53035  0.49909  0.28659  1.0000
  H   H17       1.0  0.53746  0.48771  0.22993  1.0000
  N   N5        1.0  0.51154  0.54044  0.18600  1.0000
  O   O1        1.0  0.48645  0.51030  0.13791  1.0000
  O   O2        1.0  0.54573  0.55878  0.14508  1.0000
  C   C36       1.0  0.49307  0.57241  0.34520  1.0000
  H   H18       1.0  0.51519  0.60204  0.34310  1.0000
  C   C37       1.0  0.49263  0.96973  0.33687  1.0000
  C   C38       1.0  0.50774  0.99701  0.26071  1.0000
  C   C39       1.0  0.53576  0.03977  0.27500  1.0000
  H   H19       1.0  0.54685  0.05897  0.21931  1.0000
  N   N6        1.0  0.49525  0.98111  0.17106  1.0000
  O   O3        1.0  0.52559  0.98703  0.12268  1.0000
  O   O4        1.0  0.47671  0.99716  0.13183  1.0000
  C   C40       1.0  0.46335  0.92799  0.32527  1.0000
  H   H20       1.0  0.43987  0.92106  0.28319  1.0000
  C   C41       1.0  0.06219  0.52656  0.35694  1.0000
  C   C42       1.0  0.03515  0.51440  0.28059  1.0000
  C   C43       1.0  0.99239  0.49978  0.29471  1.0000
  H   H21       1.0  0.97332  0.49179  0.23889  1.0000
  N   N7        1.0  0.05148  0.51764  0.19156  1.0000
  O   O5        1.0  0.04580  0.54204  0.14249  1.0000
  O   O6        1.0  0.03538  0.48294  0.15265  1.0000
  C   C44       1.0  0.10379  0.53888  0.34786  1.0000
  H   H22       1.0  0.11131  0.51750  0.33211  1.0000
  C   C45       1.0  0.39765  0.76788  0.35837  1.0000
  C   C46       1.0  0.45278  0.62322  0.39459  1.0000
  C   C47       1.0  0.43187  0.64595  0.39554  1.0000
  C   C48       1.0  0.43436  0.79018  0.41059  1.0000
  C   C49       1.0  0.45670  0.83391  0.41150  1.0000
  C   C50       1.0  0.44336  0.85717  0.36019  1.0000
  C   C51       1.0  0.19475  0.57715  0.40265  1.0000
  C   C52       1.0  0.23841  0.59782  0.40239  1.0000
  H   H23       1.0  0.47888  0.63335  0.43350  1.0000
  H   H24       1.0  0.44364  0.67182  0.43586  1.0000
  H   H25       1.0  0.44495  0.77472  0.44992  1.0000
  H   H26       1.0  0.48302  0.84876  0.45027  1.0000
  H   H27       1.0  0.17871  0.55004  0.43837  1.0000
  H   H28       1.0  0.25255  0.58491  0.43869  1.0000
  H   H29       1.0  0.31584  0.71773  0.36830  1.0000
  N   N8        1.0  0.46661  0.89859  0.36350  1.0000
  C   C53       1.0  0.63919  0.25654  0.36027  1.0000
  C   C54       1.0  0.58481  0.40131  0.40376  1.0000
  C   C55       1.0  0.60618  0.37905  0.40353  1.0000
  C   C56       1.0  0.60048  0.23457  0.40593  1.0000
  C   C57       1.0  0.57727  0.19089  0.40595  1.0000
  C   C58       1.0  0.59239  0.16734  0.36252  1.0000
  C   C59       1.0  0.84085  0.44704  0.41156  1.0000
  C   C60       1.0  0.79720  0.42557  0.41108  1.0000
  H   H30       1.0  0.55973  0.39135  0.44578  1.0000
  H   H31       1.0  0.59593  0.35407  0.44626  1.0000
  H   H32       1.0  0.58866  0.25019  0.44046  1.0000
  H   H33       1.0  0.54926  0.17632  0.43869  1.0000
  H   H34       1.0  0.85594  0.47291  0.45141  1.0000
  H   H35       1.0  0.78236  0.43650  0.45148  1.0000
  H   H36       1.0  0.72168  0.30766  0.36830  1.0000
  N   N9        1.0  0.56849  0.12618  0.35984  1.0000
  C   C61       1.0  0.53477  0.48595  0.37453  1.0000
  C   C62       1.0  0.52397  0.50149  0.45211  1.0000
  C   C63       1.0  0.50948  0.52980  0.43985  1.0000
  H   H37       1.0  0.50240  0.54123  0.49652  1.0000
  N   N10       1.0  0.52851  0.48911  0.54104  1.0000
  O   O7        1.0  0.55381  0.51952  0.58821  1.0000
  O   O8        1.0  0.49448  0.47092  0.58263  1.0000
  C   C64       1.0  0.54700  0.45645  0.38427  1.0000
  H   H38       1.0  0.53014  0.43247  0.42496  1.0000
  C   C65       1.0  0.54897  0.05625  0.36354  1.0000
  C   C66       1.0  0.53412  0.02913  0.43977  1.0000
  C   C67       1.0  0.50602  0.98632  0.42547  1.0000
  H   H39       1.0  0.49493  0.96717  0.48119  1.0000
  N   N11       1.0  0.54715  0.04541  0.52886  1.0000
  O   O9        1.0  0.51703  0.03961  0.57787  1.0000
  O   O10       1.0  0.56575  0.02933  0.56772  1.0000
  C   C68       1.0  0.57817  0.09791  0.37278  1.0000
  H   H40       1.0  0.60704  0.10553  0.38895  1.0000
  C   C69       1.0  0.97573  0.49657  0.38324  1.0000
  C   C70       1.0  0.00293  0.50864  0.45950  1.0000
  C   C71       1.0  0.04565  0.52329  0.44539  1.0000
  H   H41       1.0  0.06478  0.53131  0.50117  1.0000
  N   N12       1.0  0.98696  0.50518  0.54907  1.0000
  O   O11       1.0  0.99276  0.48064  0.59739  1.0000
  O   O12       1.0  0.00304  0.53977  0.58845  1.0000
  C   C72       1.0  0.93399  0.48406  0.39467  1.0000
  H   H42       1.0  0.92695  0.50053  0.43675  1.0000
