data_image0
_chemical_formula_structural       C10H6C6H2C2H2C10H6C6H2C2H2C3H3CH3NC3H2CH2NC3H3CH3NC8H7CHC8H7CHC3NC2N2C3NC2NH2NC3NC2N2
_chemical_formula_sum              "C81 H54 N12"
_cell_length_a       37.4399
_cell_length_b       37.4098
_cell_length_c       14.5358
_cell_angle_alpha    90
_cell_angle_beta     90
_cell_angle_gamma    120.018

_space_group_name_H-M_alt    "P 1"
_space_group_IT_number       1

loop_
  _space_group_symop_operation_xyz
  'x, y, z'

loop_
  _atom_site_type_symbol
  _atom_site_label
  _atom_site_symmetry_multiplicity
  _atom_site_fract_x
  _atom_site_fract_y
  _atom_site_fract_z
  _atom_site_occupancy
  C   C1        1.0  0.26864  0.64324  0.36216  1.0000
  C   C2        1.0  0.39656  0.63349  0.35766  1.0000
  C   C3        1.0  0.18003  0.60253  0.34345  1.0000
  C   C4        1.0  0.20636  0.63889  0.29356  1.0000
  C   C5        1.0  0.24957  0.65886  0.30307  1.0000
  C   C6        1.0  0.39688  0.79759  0.32754  1.0000
  C   C7        1.0  0.42196  0.84101  0.33153  1.0000
  C   C8        1.0  0.43729  0.58559  0.33818  1.0000
  C   C9        1.0  0.40216  0.57694  0.28496  1.0000
  C   C10       1.0  0.38221  0.60020  0.29473  1.0000
  H   H1        1.0  0.19428  0.65108  0.24845  1.0000
  H   H2        1.0  0.26714  0.68439  0.26347  1.0000
  H   H3        1.0  0.37176  0.78537  0.28498  1.0000
  H   H4        1.0  0.41384  0.85862  0.29256  1.0000
  H   H5        1.0  0.39084  0.55364  0.23733  1.0000
  H   H6        1.0  0.35758  0.59322  0.25289  1.0000
  C   C11       1.0  0.37672  0.65793  0.36497  1.0000
  C   C12       1.0  0.40015  0.70161  0.36950  1.0000
  C   C13       1.0  0.38171  0.72676  0.37346  1.0000
  C   C14       1.0  0.33801  0.70649  0.37213  1.0000
  C   C15       1.0  0.31293  0.66289  0.36755  1.0000
  C   C16       1.0  0.33313  0.63941  0.36446  1.0000
  H   H7        1.0  0.43162  0.71560  0.36600  1.0000
  H   H8        1.0  0.31559  0.60794  0.36026  1.0000
  C   C17       1.0  0.45741  0.56311  0.32299  1.0000
  C   C18       1.0  0.13747  0.58238  0.32799  1.0000
  H   H9        1.0  0.45310  0.54905  0.26250  1.0000
  H   H10       1.0  0.12781  0.58695  0.26766  1.0000
  C   C19       1.0  0.77908  0.38829  0.35540  1.0000
  C   C20       1.0  0.65152  0.39888  0.35081  1.0000
  C   C21       1.0  0.86778  0.42813  0.33697  1.0000
  C   C22       1.0  0.84111  0.39151  0.28822  1.0000
  C   C23       1.0  0.79792  0.37203  0.29745  1.0000
  C   C24       1.0  0.65014  0.23405  0.32218  1.0000
  C   C25       1.0  0.62531  0.19064  0.32844  1.0000
  C   C26       1.0  0.61155  0.44760  0.33128  1.0000
  C   C27       1.0  0.64689  0.45615  0.27897  1.0000
  C   C28       1.0  0.66642  0.43250  0.28867  1.0000
  H   H11       1.0  0.85294  0.37868  0.24417  1.0000
  H   H12       1.0  0.78021  0.34628  0.25859  1.0000
  H   H13       1.0  0.67506  0.24599  0.27903  1.0000
  H   H14       1.0  0.63358  0.17275  0.29103  1.0000
  H   H15       1.0  0.65876  0.47975  0.23206  1.0000
  H   H16       1.0  0.69120  0.43950  0.24735  1.0000
  C   C29       1.0  0.67115  0.37422  0.35825  1.0000
  C   C30       1.0  0.64753  0.33054  0.36281  1.0000
  C   C31       1.0  0.66576  0.30522  0.36676  1.0000
  C   C32       1.0  0.70946  0.32528  0.36544  1.0000
  C   C33       1.0  0.73477  0.36886  0.36084  1.0000
  C   C34       1.0  0.71474  0.39251  0.35783  1.0000
  H   H17       1.0  0.61607  0.31667  0.35937  1.0000
  H   H18       1.0  0.73241  0.42396  0.35369  1.0000
  C   C35       1.0  0.59233  0.47104  0.31679  1.0000
  C   C36       1.0  0.91043  0.44729  0.32257  1.0000
  H   H19       1.0  0.59923  0.48761  0.25936  1.0000
  H   H20       1.0  0.92009  0.43976  0.26602  1.0000
  C   C37       1.0  0.54663  0.49438  0.37317  1.0000
  C   C38       1.0  0.54107  0.51280  0.29354  1.0000
  C   C39       1.0  0.51870  0.53388  0.29583  1.0000
  H   H21       1.0  0.48623  0.51228  0.01486  1.0000
  H   H22       1.0  0.51608  0.54701  0.23637  1.0000
  H   H23       1.0  0.55355  0.51127  0.23253  1.0000
  C   C40       1.0  0.52684  0.46844  0.03451  1.0000
  H   H24       1.0  0.54114  0.45004  0.01721  1.0000
  H   H25       1.0  0.49801  0.44880  0.07084  1.0000
  H   H26       1.0  0.54777  0.49357  0.07929  1.0000
  N   N1        1.0  0.56740  0.47360  0.37417  1.0000
  C   C41       1.0  0.54540  0.06033  0.35420  1.0000
  C   C42       1.0  0.52647  0.03684  0.27462  1.0000
  C   C43       1.0  0.50346  0.99332  0.27726  1.0000
  H   H27       1.0  0.49010  0.97757  0.21786  1.0000
  H   H28       1.0  0.52856  0.05155  0.21406  1.0000
  C   C44       1.0  0.57354  0.06573  0.01468  1.0000
  H   H29       1.0  0.59253  0.05526  0.04928  1.0000
  H   H30       1.0  0.54947  0.06283  0.06128  1.0000
  N   N2        1.0  0.56732  0.10168  0.34716  1.0000
  C   C45       1.0  0.97947  0.49348  0.37811  1.0000
  C   C46       1.0  0.00338  0.49916  0.29832  1.0000
  C   C47       1.0  0.04683  0.52136  0.30053  1.0000
  H   H31       1.0  0.05799  0.55300  0.01998  1.0000
  H   H32       1.0  0.06252  0.52408  0.24095  1.0000
  H   H33       1.0  0.98927  0.48688  0.23727  1.0000
  C   C48       1.0  0.97353  0.51256  0.03970  1.0000
  H   H34       1.0  0.94088  0.49867  0.02240  1.0000
  H   H35       1.0  0.98303  0.54127  0.07693  1.0000
  H   H36       1.0  0.97739  0.49117  0.08361  1.0000
  N   N3        1.0  0.93791  0.47279  0.37925  1.0000
  C   C49       1.0  0.40660  0.77115  0.37823  1.0000
  C   C50       1.0  0.24223  0.60685  0.41219  1.0000
  C   C51       1.0  0.19887  0.58699  0.40340  1.0000
  C   C52       1.0  0.45798  0.86008  0.38670  1.0000
  C   C53       1.0  0.46744  0.83368  0.43805  1.0000
  C   C54       1.0  0.44241  0.79040  0.43399  1.0000
  C   C55       1.0  0.43173  0.64210  0.41093  1.0000
  C   C56       1.0  0.45161  0.61863  0.40170  1.0000
  H   H37       1.0  0.18117  0.56044  0.43984  1.0000
  H   H38       1.0  0.45053  0.77298  0.47361  1.0000
  H   H39       1.0  0.49296  0.84577  0.47957  1.0000
  H   H40       1.0  0.44318  0.66561  0.45792  1.0000
  H   H41       1.0  0.47721  0.62647  0.44083  1.0000
  H   H42       1.0  0.32398  0.72391  0.37707  1.0000
  H   H43       1.0  0.25443  0.59441  0.45617  1.0000
  C   C57       1.0  0.48428  0.90296  0.39180  1.0000
  H   H44       1.0  0.51120  0.91333  0.42390  1.0000
  C   C58       1.0  0.64072  0.26085  0.37229  1.0000
  C   C59       1.0  0.80579  0.42493  0.40435  1.0000
  C   C60       1.0  0.84915  0.44435  0.39572  1.0000
  C   C61       1.0  0.58993  0.17197  0.38562  1.0000
  C   C62       1.0  0.58065  0.19875  0.43596  1.0000
  C   C63       1.0  0.60532  0.24200  0.42935  1.0000
  C   C64       1.0  0.61611  0.39032  0.40318  1.0000
  C   C65       1.0  0.59662  0.41416  0.39393  1.0000
  H   H45       1.0  0.86703  0.47098  0.43173  1.0000
  H   H46       1.0  0.59750  0.25970  0.46879  1.0000
  H   H47       1.0  0.55566  0.18697  0.47906  1.0000
  H   H48       1.0  0.60426  0.36661  0.44969  1.0000
  H   H49       1.0  0.57095  0.40644  0.43272  1.0000
  H   H50       1.0  0.72330  0.30771  0.37067  1.0000
  H   H51       1.0  0.79382  0.43783  0.44766  1.0000
  C   C66       1.0  0.56504  0.12913  0.39664  1.0000
  H   H52       1.0  0.54385  0.11904  0.44629  1.0000
  C   C67       1.0  0.50092  0.53780  0.37843  1.0000
  C   C68       1.0  0.50721  0.52051  0.45920  1.0000
  C   C69       1.0  0.52926  0.49856  0.45605  1.0000
  N   N4        1.0  0.53398  0.48241  0.53579  1.0000
  C   C70       1.0  0.51906  0.48604  0.61820  1.0000
  C   C71       1.0  0.49778  0.50823  0.62122  1.0000
  N   N5        1.0  0.49250  0.52428  0.54211  1.0000
  N   N6        1.0  0.48005  0.55836  0.38318  1.0000
  C   C72       1.0  0.49897  0.97143  0.35964  1.0000
  C   C73       1.0  0.51727  0.99469  0.44056  1.0000
  C   C74       1.0  0.54081  0.03864  0.43726  1.0000
  N   N7        1.0  0.55836  0.05922  0.51651  1.0000
  C   C75       1.0  0.55417  0.04053  0.59895  1.0000
  C   C76       1.0  0.52975  0.99717  0.60255  1.0000
  N   N8        1.0  0.51263  0.97612  0.52371  1.0000
  H   H53       1.0  0.52509  0.98143  0.66291  1.0000
  H   H54       1.0  0.59297  0.09828  0.66362  1.0000
  N   N9        1.0  0.47633  0.93004  0.35749  1.0000
  C   C77       1.0  0.06860  0.53885  0.38323  1.0000
  C   C78       1.0  0.04508  0.53252  0.46410  1.0000
  C   C79       1.0  0.00110  0.51065  0.46102  1.0000
  N   N10       1.0  0.98028  0.50584  0.54086  1.0000
  C   C80       1.0  0.99889  0.52054  0.62331  1.0000
  C   C81       1.0  0.04235  0.54164  0.62629  1.0000
  N   N11       1.0  0.06362  0.54700  0.54708  1.0000
  N   N12       1.0  0.11004  0.55963  0.38801  1.0000
