data_image0
_chemical_formula_structural       C13H9C13H9C13H9C13H9C2NC2NC2NC2NC2NC2N2CHNCHNCHC17H12C17H12C17H12C17H12NCHNCHNCHC2NC2NC2NC2NC2NC2N
_chemical_formula_sum              "C150 H90 N18"
_cell_length_a       56.9423
_cell_length_b       56.9255
_cell_length_c       14.987
_cell_angle_alpha    90
_cell_angle_beta     90
_cell_angle_gamma    120.005

_space_group_name_H-M_alt    "P 1"
_space_group_IT_number       1

loop_
  _space_group_symop_operation_xyz
  'x, y, z'

loop_
  _atom_site_type_symbol
  _atom_site_label
  _atom_site_symmetry_multiplicity
  _atom_site_fract_x
  _atom_site_fract_y
  _atom_site_fract_z
  _atom_site_occupancy
  C   C1        1.0  0.90985  0.83669  0.32520  1.0000
  C   C2        1.0  0.93535  0.89450  0.32681  1.0000
  C   C3        1.0  0.90683  0.87821  0.33166  1.0000
  C   C4        1.0  0.89430  0.84973  0.33186  1.0000
  C   C5        1.0  0.94730  0.92254  0.32446  1.0000
  C   C6        1.0  0.06567  0.02513  0.32519  1.0000
  C   C7        1.0  0.10998  0.02898  0.33251  1.0000
  C   C8        1.0  0.15149  0.07354  0.32608  1.0000
  C   C9        1.0  0.13845  0.04494  0.33276  1.0000
  C   C10       1.0  0.96312  0.04096  0.32482  1.0000
  C   C11       1.0  0.91845  0.03721  0.32085  1.0000
  C   C12       1.0  0.91467  0.07832  0.32541  1.0000
  C   C13       1.0  0.90253  0.04976  0.32041  1.0000
  H   H1        1.0  0.87358  0.83857  0.33501  1.0000
  H   H2        1.0  0.89490  0.88695  0.33542  1.0000
  H   H3        1.0  0.90898  0.01651  0.31614  1.0000
  H   H4        1.0  0.10125  0.00831  0.33618  1.0000
  H   H5        1.0  0.14961  0.03537  0.33578  1.0000
  H   H6        1.0  0.88189  0.03774  0.31764  1.0000
  H   H7        1.0  0.05786  0.01035  0.27994  1.0000
  H   H8        1.0  0.94035  0.93037  0.27924  1.0000
  H   H9        1.0  0.97795  0.04797  0.27977  1.0000
  C   C14       1.0  0.52457  0.36501  0.31817  1.0000
  C   C15       1.0  0.48144  0.30994  0.31941  1.0000
  C   C16       1.0  0.50593  0.31741  0.27396  1.0000
  C   C17       1.0  0.52711  0.34451  0.27328  1.0000
  C   C18       1.0  0.46167  0.28271  0.32268  1.0000
  C   C19       1.0  0.35251  0.18062  0.34110  1.0000
  C   C20       1.0  0.30872  0.17661  0.31245  1.0000
  C   C21       1.0  0.26627  0.13378  0.33984  1.0000
  C   C22       1.0  0.28022  0.16117  0.31108  1.0000
  C   C23       1.0  0.45691  0.17193  0.33852  1.0000
  C   C24       1.0  0.49672  0.17826  0.26111  1.0000
  C   C25       1.0  0.52235  0.15671  0.31425  1.0000
  C   C26       1.0  0.51893  0.17400  0.25415  1.0000
  H   H10       1.0  0.54486  0.34894  0.24204  1.0000
  H   H11       1.0  0.50890  0.30307  0.24290  1.0000
  H   H12       1.0  0.49555  0.19165  0.21819  1.0000
  H   H13       1.0  0.31797  0.19638  0.29158  1.0000
  H   H14       1.0  0.26973  0.17039  0.28981  1.0000
  H   H15       1.0  0.53327  0.18488  0.20693  1.0000
  H   H16       1.0  0.36110  0.19192  0.28712  1.0000
  H   H17       1.0  0.45723  0.27226  0.26581  1.0000
  H   H18       1.0  0.44482  0.16869  0.28633  1.0000
  C   C27       1.0  0.62313  0.15997  0.31804  1.0000
  C   C28       1.0  0.67821  0.17196  0.31937  1.0000
  C   C29       1.0  0.67069  0.18890  0.27361  1.0000
  C   C30       1.0  0.64360  0.18297  0.27293  1.0000
  C   C31       1.0  0.70545  0.17949  0.32273  1.0000
  C   C32       1.0  0.80750  0.17218  0.34098  1.0000
  C   C33       1.0  0.81157  0.13245  0.31177  1.0000
  C   C34       1.0  0.85435  0.13278  0.33948  1.0000
  C   C35       1.0  0.82701  0.11939  0.31034  1.0000
  C   C36       1.0  0.81654  0.28534  0.33893  1.0000
  C   C37       1.0  0.81018  0.31879  0.26127  1.0000
  C   C38       1.0  0.83159  0.36597  0.31447  1.0000
  C   C39       1.0  0.81437  0.34524  0.25429  1.0000
  H   H19       1.0  0.63915  0.19625  0.24154  1.0000
  H   H20       1.0  0.68501  0.20621  0.24246  1.0000
  H   H21       1.0  0.79681  0.30420  0.21836  1.0000
  H   H22       1.0  0.79183  0.12195  0.29060  1.0000
  H   H23       1.0  0.81783  0.09971  0.28870  1.0000
  H   H24       1.0  0.80350  0.34867  0.20699  1.0000
  H   H25       1.0  0.79627  0.16956  0.28690  1.0000
  H   H26       1.0  0.71593  0.18554  0.26593  1.0000
  H   H27       1.0  0.81977  0.27649  0.28675  1.0000
  C   C40       1.0  0.82811  0.46340  0.31782  1.0000
  C   C41       1.0  0.81588  0.50634  0.31905  1.0000
  C   C42       1.0  0.79902  0.48184  0.27338  1.0000
  C   C43       1.0  0.80507  0.46075  0.27271  1.0000
  C   C44       1.0  0.80822  0.52595  0.32243  1.0000
  C   C45       1.0  0.81591  0.63562  0.34122  1.0000
  C   C46       1.0  0.85566  0.67941  0.31221  1.0000
  C   C47       1.0  0.85531  0.72188  0.33950  1.0000
  C   C48       1.0  0.86872  0.70792  0.31068  1.0000
  C   C49       1.0  0.70276  0.53132  0.33854  1.0000
  C   C50       1.0  0.66930  0.49144  0.26129  1.0000
  C   C51       1.0  0.62211  0.46582  0.31428  1.0000
  C   C52       1.0  0.64285  0.46921  0.25437  1.0000
  H   H28       1.0  0.79183  0.44299  0.24141  1.0000
  H   H29       1.0  0.78168  0.47876  0.24229  1.0000
  H   H30       1.0  0.68389  0.49258  0.21856  1.0000
  H   H31       1.0  0.86618  0.67016  0.29129  1.0000
  H   H32       1.0  0.88842  0.71841  0.28926  1.0000
  H   H33       1.0  0.63941  0.45482  0.20735  1.0000
  H   H34       1.0  0.81854  0.62700  0.28717  1.0000
  H   H35       1.0  0.80192  0.53015  0.26570  1.0000
  H   H36       1.0  0.71163  0.54337  0.28630  1.0000
  C   C53       1.0  0.18033  0.08941  0.32612  1.0000
  C   C54       1.0  0.23734  0.11836  0.33737  1.0000
  N   N1        1.0  0.22360  0.12417  0.27501  1.0000
  C   C55       1.0  0.19620  0.11102  0.26651  1.0000
  C   C56       1.0  0.18655  0.11829  0.20009  1.0000
  N   N2        1.0  0.17808  0.12470  0.14126  1.0000
  C   C57       1.0  0.89878  0.09128  0.32549  1.0000
  C   C58       1.0  0.86977  0.11928  0.33693  1.0000
  N   N3        1.0  0.86409  0.09986  0.27417  1.0000
  C   C59       1.0  0.87727  0.08564  0.26557  1.0000
  C   C60       1.0  0.87013  0.06886  0.19878  1.0000
  N   N4        1.0  0.86385  0.05411  0.13963  1.0000
  C   C61       1.0  0.89688  0.80784  0.32534  1.0000
  C   C62       1.0  0.86882  0.75082  0.33688  1.0000
  N   N5        1.0  0.88834  0.76455  0.27441  1.0000
  C   C63       1.0  0.90259  0.79195  0.26577  1.0000
  C   C64       1.0  0.91948  0.80157  0.19927  1.0000
  N   N6        1.0  0.93433  0.81002  0.14038  1.0000
  N   N7        1.0  0.58600  0.15910  0.24214  1.0000
  C   C65       1.0  0.56188  0.15825  0.23481  1.0000
  H   H37       1.0  0.55600  0.16121  0.17347  1.0000
  N   N8        1.0  0.82913  0.42718  0.24206  1.0000
  C   C66       1.0  0.83003  0.40393  0.23485  1.0000
  H   H38       1.0  0.82709  0.39508  0.17353  1.0000
  N   N9        1.0  0.56089  0.40211  0.24224  1.0000
  C   C67       1.0  0.58415  0.42624  0.23487  1.0000
  H   H39       1.0  0.59304  0.43207  0.17359  1.0000
  C   C68       1.0  0.93842  0.85309  0.32075  1.0000
  C   C69       1.0  0.95100  0.88157  0.32111  1.0000
  C   C70       1.0  0.96699  0.93927  0.38085  1.0000
  C   C71       1.0  0.97913  0.96737  0.37831  1.0000
  C   C72       1.0  0.96356  0.98046  0.37896  1.0000
  C   C73       1.0  0.97607  0.00906  0.37842  1.0000
  C   C74       1.0  0.00472  0.02464  0.37926  1.0000
  C   C75       1.0  0.02081  0.01213  0.37863  1.0000
  C   C76       1.0  0.00772  0.98346  0.37917  1.0000
  C   C77       1.0  0.04890  0.02809  0.38139  1.0000
  C   C78       1.0  0.09370  0.04122  0.32770  1.0000
  C   C79       1.0  0.10663  0.06981  0.32205  1.0000
  C   C80       1.0  0.13510  0.08571  0.32167  1.0000
  C   C81       1.0  0.96011  0.02120  0.38099  1.0000
  C   C82       1.0  0.94701  0.05288  0.32717  1.0000
  C   C83       1.0  0.95922  0.08140  0.33254  1.0000
  C   C84       1.0  0.94325  0.09389  0.33270  1.0000
  H   H40       1.0  0.95042  0.84445  0.31842  1.0000
  H   H41       1.0  0.97170  0.89277  0.31680  1.0000
  H   H42       1.0  0.01919  0.97418  0.38066  1.0000
  H   H43       1.0  0.94280  0.96898  0.38028  1.0000
  H   H44       1.0  0.01401  0.04540  0.38079  1.0000
  H   H45       1.0  0.14373  0.10636  0.31939  1.0000
  H   H46       1.0  0.09542  0.07931  0.31776  1.0000
  H   H47       1.0  0.95278  0.11461  0.33621  1.0000
  H   H48       1.0  0.97987  0.09334  0.33672  1.0000
  H   H49       1.0  0.05678  0.04293  0.42642  1.0000
  H   H50       1.0  0.97392  0.93135  0.42586  1.0000
  H   H51       1.0  0.94520  0.01419  0.42580  1.0000
  C   C85       1.0  0.49974  0.35758  0.36160  1.0000
  C   C86       1.0  0.47845  0.33042  0.36227  1.0000
  C   C87       1.0  0.45230  0.26911  0.39985  1.0000
  C   C88       1.0  0.43861  0.24107  0.40253  1.0000
  C   C89       1.0  0.45372  0.22757  0.40541  1.0000
  C   C90       1.0  0.44066  0.19897  0.40758  1.0000
  C   C91       1.0  0.41202  0.18383  0.40847  1.0000
  C   C92       1.0  0.39655  0.19700  0.40593  1.0000
  C   C93       1.0  0.41002  0.22569  0.40328  1.0000
  C   C94       1.0  0.36852  0.18171  0.40884  1.0000
  C   C95       1.0  0.32435  0.16518  0.34250  1.0000
  C   C96       1.0  0.31059  0.13768  0.36948  1.0000
  C   C97       1.0  0.28209  0.12234  0.36864  1.0000
  C   C98       1.0  0.45637  0.18666  0.40776  1.0000
  C   C99       1.0  0.47720  0.16546  0.32899  1.0000
  C   C100      1.0  0.48009  0.14785  0.38859  1.0000
  C   C101      1.0  0.50239  0.14364  0.38135  1.0000
  H   H52       1.0  0.49691  0.37191  0.39312  1.0000
  H   H53       1.0  0.46087  0.32566  0.39522  1.0000
  H   H54       1.0  0.39897  0.23542  0.40219  1.0000
  H   H55       1.0  0.47453  0.23872  0.40455  1.0000
  H   H56       1.0  0.40241  0.16305  0.41057  1.0000
  H   H57       1.0  0.27308  0.10239  0.38696  1.0000
  H   H58       1.0  0.32123  0.12844  0.38907  1.0000
  H   H59       1.0  0.50406  0.13112  0.42670  1.0000
  H   H60       1.0  0.46638  0.13852  0.43906  1.0000
  H   H61       1.0  0.36024  0.17060  0.46331  1.0000
  H   H62       1.0  0.45863  0.27886  0.45773  1.0000
  H   H63       1.0  0.47026  0.19213  0.45572  1.0000
  C   C102      1.0  0.63060  0.14262  0.36174  1.0000
  C   C103      1.0  0.65776  0.14852  0.36248  1.0000
  C   C104      1.0  0.71903  0.18352  0.39983  1.0000
  C   C105      1.0  0.74706  0.19785  0.40256  1.0000
  C   C106      1.0  0.76058  0.22646  0.40541  1.0000
  C   C107      1.0  0.78918  0.24197  0.40753  1.0000
  C   C108      1.0  0.80429  0.22845  0.40846  1.0000
  C   C109      1.0  0.79109  0.19979  0.40599  1.0000
  C   C110      1.0  0.76241  0.18460  0.40333  1.0000
  C   C111      1.0  0.80635  0.18702  0.40888  1.0000
  C   C112      1.0  0.82295  0.15946  0.34227  1.0000
  C   C113      1.0  0.85040  0.17316  0.36968  1.0000
  C   C114      1.0  0.86574  0.16000  0.36871  1.0000
  C   C115      1.0  0.80149  0.27001  0.40763  1.0000
  C   C116      1.0  0.82293  0.31210  0.32937  1.0000
  C   C117      1.0  0.84047  0.33260  0.38908  1.0000
  C   C118      1.0  0.84463  0.35909  0.38173  1.0000
  H   H64       1.0  0.61628  0.12548  0.39344  1.0000
  H   H65       1.0  0.66254  0.13574  0.39562  1.0000
  H   H66       1.0  0.75267  0.16382  0.40226  1.0000
  H   H67       1.0  0.74945  0.23614  0.40450  1.0000
  H   H68       1.0  0.82506  0.23960  0.41055  1.0000
  H   H69       1.0  0.88566  0.17091  0.38740  1.0000
  H   H70       1.0  0.85961  0.19301  0.38961  1.0000
  H   H71       1.0  0.85710  0.37330  0.42716  1.0000
  H   H72       1.0  0.84978  0.32824  0.43964  1.0000
  H   H73       1.0  0.81740  0.18978  0.46344  1.0000
  H   H74       1.0  0.70928  0.17999  0.45774  1.0000
  H   H75       1.0  0.79602  0.27848  0.45545  1.0000
  C   C119      1.0  0.84538  0.48824  0.36145  1.0000
  C   C120      1.0  0.83938  0.50944  0.36210  1.0000
  C   C121      1.0  0.80439  0.53570  0.39943  1.0000
  C   C122      1.0  0.79012  0.54946  0.40242  1.0000
  C   C123      1.0  0.76151  0.53440  0.40533  1.0000
  C   C124      1.0  0.74604  0.54753  0.40770  1.0000
  C   C125      1.0  0.75959  0.57617  0.40872  1.0000
  C   C126      1.0  0.78825  0.59160  0.40617  1.0000
  C   C127      1.0  0.80340  0.57807  0.40336  1.0000
  C   C128      1.0  0.80105  0.61964  0.40910  1.0000
  C   C129      1.0  0.82863  0.66379  0.34249  1.0000
  C   C130      1.0  0.81491  0.67755  0.36952  1.0000
  C   C131      1.0  0.82808  0.70607  0.36854  1.0000
  C   C132      1.0  0.71802  0.53184  0.40780  1.0000
  C   C133      1.0  0.67599  0.51101  0.32899  1.0000
  C   C134      1.0  0.65548  0.50815  0.38847  1.0000
  C   C135      1.0  0.62898  0.48584  0.38119  1.0000
  H   H76       1.0  0.86254  0.49115  0.39317  1.0000
  H   H77       1.0  0.85210  0.52703  0.39524  1.0000
  H   H78       1.0  0.82417  0.58908  0.40220  1.0000
  H   H79       1.0  0.75181  0.51359  0.40433  1.0000
  H   H80       1.0  0.74847  0.58582  0.41090  1.0000
  H   H81       1.0  0.81715  0.71508  0.38688  1.0000
  H   H82       1.0  0.79505  0.66692  0.38926  1.0000
  H   H83       1.0  0.61477  0.48419  0.42642  1.0000
  H   H84       1.0  0.65984  0.52190  0.43876  1.0000
  H   H85       1.0  0.79825  0.62794  0.46357  1.0000
  H   H86       1.0  0.80835  0.52986  0.45736  1.0000
  H   H87       1.0  0.70955  0.51800  0.45590  1.0000
  N   N10       1.0  0.19401  0.08346  0.38826  1.0000
  C   C136      1.0  0.22140  0.09677  0.39623  1.0000
  H   H88       1.0  0.22984  0.09125  0.44622  1.0000
  N   N11       1.0  0.90460  0.11078  0.38804  1.0000
  C   C137      1.0  0.89126  0.12482  0.39612  1.0000
  H   H89       1.0  0.89668  0.13869  0.44640  1.0000
  N   N12       1.0  0.87728  0.79418  0.38761  1.0000
  C   C138      1.0  0.86321  0.76679  0.39574  1.0000
  H   H90       1.0  0.84926  0.75837  0.44576  1.0000
  C   C139      1.0  0.59616  0.15546  0.31981  1.0000
  C   C140      1.0  0.54617  0.15433  0.31223  1.0000
  N   N13       1.0  0.55622  0.15037  0.38971  1.0000
  C   C141      1.0  0.57988  0.15014  0.39723  1.0000
  C   C142      1.0  0.58712  0.14772  0.47745  1.0000
  N   N14       1.0  0.59342  0.14553  0.54836  1.0000
  C   C143      1.0  0.83273  0.44100  0.31966  1.0000
  C   C144      1.0  0.83392  0.39215  0.31236  1.0000
  N   N15       1.0  0.83784  0.40618  0.38978  1.0000
  C   C145      1.0  0.83805  0.43007  0.39718  1.0000
  C   C146      1.0  0.84036  0.43971  0.47738  1.0000
  N   N16       1.0  0.84246  0.44818  0.54828  1.0000
  C   C147      1.0  0.54705  0.39199  0.31987  1.0000
  C   C148      1.0  0.59592  0.44198  0.31227  1.0000
  N   N17       1.0  0.58186  0.43198  0.38969  1.0000
  C   C149      1.0  0.55795  0.40833  0.39721  1.0000
  C   C150      1.0  0.54827  0.40112  0.47742  1.0000
  N   N18       1.0  0.53976  0.39483  0.54832  1.0000
