data_image0
_chemical_formula_structural       NC5HC5HCH2C2HC2H2NC2H3NCNC5HC4H2CN2HCNC2H2C8HC7HCH4C3H3C8HC7HCH4C4H4NCN3CN3CN3CN3C5H2C2H2CHC7H4NC7H4NC5H2NC7H4N
_chemical_formula_sum              "N24 C108 H54"
_cell_length_a       30.7706
_cell_length_b       30.7706
_cell_length_c       14.6792
_cell_angle_alpha    90.0002
_cell_angle_beta     89.9998
_cell_angle_gamma    120

_space_group_name_H-M_alt    "P 1"
_space_group_IT_number       1

loop_
  _space_group_symop_operation_xyz
  'x, y, z'

loop_
  _atom_site_type_symbol
  _atom_site_label
  _atom_site_symmetry_multiplicity
  _atom_site_fract_x
  _atom_site_fract_y
  _atom_site_fract_z
  _atom_site_occupancy
  N   N1        1.0  0.16378  0.77525  0.39808  1.0000
  C   C1        1.0  0.04388  0.60613  0.39073  1.0000
  C   C2        1.0  0.02522  0.68707  0.39254  1.0000
  C   C3        1.0  0.07621  0.69882  0.39301  1.0000
  C   C4        1.0  0.08476  0.65705  0.39220  1.0000
  C   C5        1.0  0.13365  0.66393  0.39291  1.0000
  H   H1        1.0  0.01807  0.71622  0.39278  1.0000
  C   C6        1.0  0.05318  0.56432  0.39074  1.0000
  C   C7        1.0  0.02085  0.47162  0.39303  1.0000
  C   C8        1.0  0.07184  0.48338  0.39256  1.0000
  C   C9        1.0  0.11383  0.53256  0.39001  1.0000
  C   C10       1.0  0.10360  0.57320  0.38986  1.0000
  H   H2        1.0  0.07900  0.45423  0.39280  1.0000
  C   C11       1.0  0.14271  0.62380  0.39177  1.0000
  H   H3        1.0  0.17951  0.63338  0.39414  1.0000
  H   H4        1.0  0.16463  0.69855  0.39442  1.0000
  C   C12       1.0  0.11272  0.75140  0.39530  1.0000
  C   C13       1.0  0.16307  0.53852  0.38706  1.0000
  H   H5        1.0  0.09895  0.77525  0.38936  1.0000
  C   C14       1.0  0.17442  0.36882  0.48100  1.0000
  C   C15       1.0  0.17339  0.41126  0.44911  1.0000
  H   H6        1.0  0.14181  0.33731  0.49924  1.0000
  H   H7        1.0  0.13929  0.40936  0.44505  1.0000
  N   N2        1.0  0.17377  0.50120  0.40091  1.0000
  C   C16       1.0  0.16077  0.86839  0.46920  1.0000
  C   C17       1.0  0.16206  0.91326  0.49277  1.0000
  H   H8        1.0  0.12910  0.83601  0.48594  1.0000
  H   H9        1.0  0.13106  0.91230  0.52030  1.0000
  H   H10       1.0  0.19354  0.57301  0.37666  1.0000
  N   N3        1.0  0.26257  0.54162  0.38421  1.0000
  C   C18       1.0  0.20304  0.82333  0.40671  1.0000
  N   N4        1.0  0.24844  0.82843  0.38587  1.0000
  C   C19       1.0  0.21760  0.50011  0.40199  1.0000
  C   C20       1.0  0.21838  0.45583  0.42621  1.0000
  C   C21       1.0  0.26551  0.45688  0.43198  1.0000
  C   C22       1.0  0.26536  0.41428  0.46920  1.0000
  C   C23       1.0  0.22050  0.37071  0.49277  1.0000
  H   H11       1.0  0.22146  0.34067  0.52030  1.0000
  C   C24       1.0  0.24930  0.91537  0.42620  1.0000
  C   C25       1.0  0.20322  0.86824  0.43197  1.0000
  C   C26       1.0  0.20625  0.95933  0.48100  1.0000
  C   C27       1.0  0.24972  0.96037  0.44911  1.0000
  H   H12       1.0  0.20735  0.99194  0.49924  1.0000
  H   H13       1.0  0.28192  0.99446  0.44504  1.0000
  C   C28       1.0  0.31042  0.50162  0.40671  1.0000
  N   N5        1.0  0.30532  0.54192  0.38589  1.0000
  N   N6        1.0  0.29090  0.87118  0.38418  1.0000
  H   H14       1.0  0.29774  0.41500  0.48596  1.0000
  C   C29       1.0  0.29435  0.91615  0.40197  1.0000
  N   N7        1.0  0.33928  0.95998  0.40089  1.0000
  C   C30       1.0  0.33405  0.19876  0.49287  1.0000
  C   C31       1.0  0.33216  0.24294  0.48110  1.0000
  H   H15       1.0  0.30401  0.16776  0.52043  1.0000
  H   H16       1.0  0.30065  0.24404  0.49936  1.0000
  C   C32       1.0  0.52762  0.55966  0.39070  1.0000
  C   C33       1.0  0.53651  0.51812  0.38983  1.0000
  C   C34       1.0  0.49586  0.46726  0.38998  1.0000
  C   C35       1.0  0.44668  0.46006  0.39250  1.0000
  C   C36       1.0  0.43493  0.49930  0.39300  1.0000
  C   C37       1.0  0.47670  0.54961  0.39218  1.0000
  C   C38       1.0  0.58710  0.52961  0.39179  1.0000
  C   C39       1.0  0.46982  0.59163  0.39292  1.0000
  H   H17       1.0  0.41753  0.42376  0.39275  1.0000
  C   C40       1.0  0.56943  0.61077  0.39070  1.0000
  C   C41       1.0  0.62035  0.62082  0.39222  1.0000
  C   C42       1.0  0.66212  0.67113  0.39303  1.0000
  C   C43       1.0  0.65037  0.71037  0.39254  1.0000
  C   C44       1.0  0.60120  0.70318  0.38998  1.0000
  C   C45       1.0  0.56055  0.65230  0.38983  1.0000
  C   C46       1.0  0.62723  0.57881  0.39298  1.0000
  H   H18       1.0  0.67952  0.74668  0.39280  1.0000
  C   C47       1.0  0.50995  0.64082  0.39173  1.0000
  H   H19       1.0  0.66185  0.58244  0.39459  1.0000
  H   H20       1.0  0.59669  0.50240  0.39427  1.0000
  H   H21       1.0  0.50037  0.66804  0.39420  1.0000
  H   H22       1.0  0.43520  0.58799  0.39448  1.0000
  C   C48       1.0  0.59523  0.74645  0.38703  1.0000
  C   C49       1.0  0.71470  0.68720  0.39536  1.0000
  C   C50       1.0  0.50183  0.42398  0.38699  1.0000
  H   H23       1.0  0.56074  0.74244  0.37660  1.0000
  H   H24       1.0  0.73856  0.72482  0.38940  1.0000
  H   H25       1.0  0.53632  0.42799  0.37661  1.0000
  C   C51       1.0  0.57409  0.08987  0.39072  1.0000
  C   C52       1.0  0.61562  0.14029  0.38983  1.0000
  C   C53       1.0  0.66649  0.15051  0.38998  1.0000
  C   C54       1.0  0.67368  0.10853  0.39256  1.0000
  C   C55       1.0  0.63444  0.05753  0.39306  1.0000
  C   C56       1.0  0.58413  0.04899  0.39224  1.0000
  C   C57       1.0  0.60414  0.17940  0.39173  1.0000
  C   C58       1.0  0.54212  0.00011  0.39303  1.0000
  H   H26       1.0  0.70999  0.11568  0.39282  1.0000
  C   C59       1.0  0.52298  0.08057  0.39071  1.0000
  C   C60       1.0  0.51293  0.12145  0.39219  1.0000
  C   C61       1.0  0.46262  0.11290  0.39302  1.0000
  C   C62       1.0  0.42338  0.06191  0.39253  1.0000
  C   C63       1.0  0.43057  0.01993  0.38999  1.0000
  C   C64       1.0  0.48144  0.03015  0.38985  1.0000
  C   C65       1.0  0.55494  0.17033  0.39291  1.0000
  H   H27       1.0  0.38707  0.05476  0.39279  1.0000
  C   C66       1.0  0.49292  0.99104  0.39182  1.0000
  H   H28       1.0  0.55131  0.20132  0.39445  1.0000
  H   H29       1.0  0.63135  0.21620  0.39416  1.0000
  H   H30       1.0  0.46571  0.95424  0.39435  1.0000
  H   H31       1.0  0.54575  0.96912  0.39467  1.0000
  C   C67       1.0  0.65052  0.02103  0.39540  1.0000
  C   C68       1.0  0.38729  0.97068  0.38702  1.0000
  C   C69       1.0  0.44654  0.14941  0.39533  1.0000
  C   C70       1.0  0.70977  0.19976  0.38702  1.0000
  H   H32       1.0  0.68813  0.03479  0.38941  1.0000
  H   H33       1.0  0.39131  0.94021  0.37662  1.0000
  H   H34       1.0  0.40892  0.13564  0.38938  1.0000
  H   H35       1.0  0.70576  0.23023  0.37659  1.0000
  N   N8        1.0  0.35850  0.51043  0.39807  1.0000
  C   C71       1.0  0.63213  0.93070  0.40672  1.0000
  N   N9        1.0  0.59183  0.88531  0.38585  1.0000
  N   N10       1.0  0.59213  0.84285  0.38416  1.0000
  N   N11       1.0  0.62331  0.96997  0.39811  1.0000
  C   C72       1.0  0.78664  0.66882  0.40673  1.0000
  N   N12       1.0  0.79174  0.62852  0.38588  1.0000
  N   N13       1.0  0.83449  0.62882  0.38419  1.0000
  N   N14       1.0  0.73856  0.66000  0.39810  1.0000
  C   C73       1.0  0.46494  0.23973  0.40671  1.0000
  N   N15       1.0  0.50523  0.28513  0.38584  1.0000
  N   N16       1.0  0.50493  0.32758  0.38415  1.0000
  N   N17       1.0  0.47375  0.20047  0.39808  1.0000
  C   C74       1.0  0.89402  0.34711  0.40671  1.0000
  N   N18       1.0  0.84862  0.34201  0.38585  1.0000
  N   N19       1.0  0.80617  0.29925  0.38416  1.0000
  N   N20       1.0  0.93328  0.39519  0.39810  1.0000
  C   C75       1.0  0.99346  0.59724  0.38987  1.0000
  C   C76       1.0  0.98324  0.63789  0.39001  1.0000
  C   C77       1.0  0.95435  0.54664  0.39185  1.0000
  C   C78       1.0  0.01230  0.51339  0.39223  1.0000
  C   C79       1.0  0.96342  0.50652  0.39298  1.0000
  H   H36       1.0  0.93243  0.47189  0.39454  1.0000
  H   H37       1.0  0.91755  0.53706  0.39424  1.0000
  C   C80       1.0  0.98434  0.41905  0.39536  1.0000
  C   C81       1.0  0.93399  0.63192  0.38706  1.0000
  H   H38       1.0  0.99811  0.39520  0.38939  1.0000
  H   H39       1.0  0.90352  0.59743  0.37664  1.0000
  C   C82       1.0  0.38235  0.48322  0.39528  1.0000
  H   H40       1.0  0.35850  0.44560  0.38936  1.0000
  C   C83       1.0  0.63364  0.83939  0.40197  1.0000
  C   C84       1.0  0.67791  0.88444  0.42624  1.0000
  C   C85       1.0  0.67686  0.93053  0.43201  1.0000
  C   C86       1.0  0.71945  0.97297  0.46927  1.0000
  C   C87       1.0  0.76301  0.97167  0.49286  1.0000
  C   C88       1.0  0.76490  0.92749  0.48110  1.0000
  C   C89       1.0  0.72248  0.88402  0.44917  1.0000
  H   H41       1.0  0.71874  0.00463  0.48602  1.0000
  H   H42       1.0  0.79306  0.00267  0.52042  1.0000
  H   H43       1.0  0.79642  0.92639  0.49936  1.0000
  H   H44       1.0  0.72438  0.85183  0.44509  1.0000
  N   N21       1.0  0.63254  0.79447  0.40090  1.0000
  C   C90       1.0  0.87946  0.67033  0.40199  1.0000
  C   C91       1.0  0.87868  0.71460  0.42624  1.0000
  C   C92       1.0  0.83155  0.71355  0.43202  1.0000
  C   C93       1.0  0.83170  0.75615  0.46927  1.0000
  C   C94       1.0  0.87655  0.79971  0.49285  1.0000
  C   C95       1.0  0.92263  0.80160  0.48108  1.0000
  C   C96       1.0  0.92367  0.75918  0.44916  1.0000
  H   H45       1.0  0.79931  0.75543  0.48602  1.0000
  H   H46       1.0  0.87559  0.82975  0.52040  1.0000
  H   H47       1.0  0.95524  0.83311  0.49933  1.0000
  H   H48       1.0  0.95777  0.76108  0.44509  1.0000
  N   N22       1.0  0.92329  0.66924  0.40092  1.0000
  C   C97       1.0  0.46342  0.33104  0.40197  1.0000
  C   C98       1.0  0.41916  0.28599  0.42624  1.0000
  C   C99       1.0  0.42021  0.23991  0.43201  1.0000
  C   C100      1.0  0.37761  0.19746  0.46927  1.0000
  C   C101      1.0  0.37458  0.28641  0.44917  1.0000
  H   H49       1.0  0.37833  0.16580  0.48602  1.0000
  H   H50       1.0  0.37268  0.31860  0.44510  1.0000
  N   N23       1.0  0.46451  0.37596  0.40088  1.0000
  C   C102      1.0  0.80271  0.25428  0.40197  1.0000
  C   C103      1.0  0.84777  0.25507  0.42623  1.0000
  C   C104      1.0  0.89385  0.30220  0.43201  1.0000
  C   C105      1.0  0.93629  0.30205  0.46926  1.0000
  C   C106      1.0  0.93500  0.25719  0.49285  1.0000
  C   C107      1.0  0.89081  0.21112  0.48108  1.0000
  C   C108      1.0  0.84734  0.21008  0.44916  1.0000
  H   H51       1.0  0.96796  0.33443  0.48600  1.0000
  H   H52       1.0  0.96600  0.25816  0.52040  1.0000
  H   H53       1.0  0.88971  0.17851  0.49934  1.0000
  H   H54       1.0  0.81515  0.17598  0.44509  1.0000
  N   N24       1.0  0.75779  0.21046  0.40090  1.0000
