data_image0
_chemical_formula_structural       C10H6C6H2C2H2C10H6C6H2C2H2C10H6C5H2C2H2C10H6C5H2C2H2C8H8C8H8C8H8C8H8C8H7CHC8H7CHC8H5CH2CHC8H5CH2CHC3NC3NC5NC5NC20H18N4C3NC3NC5NC5NC20H18N4C3NC3NC5NC5NC20H18N4C3NC3NC5NC5NC20H18N4
_chemical_formula_sum              "C284 H176 N32"
_cell_length_a       80.2348
_cell_length_b       32.2894
_cell_length_c       14.9878
_cell_angle_alpha    90
_cell_angle_beta     90.0486
_cell_angle_gamma    89.9766

_space_group_name_H-M_alt    "P 1"
_space_group_IT_number       1

loop_
  _space_group_symop_operation_xyz
  'x, y, z'

loop_
  _atom_site_type_symbol
  _atom_site_label
  _atom_site_symmetry_multiplicity
  _atom_site_fract_x
  _atom_site_fract_y
  _atom_site_fract_z
  _atom_site_occupancy
  C   C1        1.0  0.22064  0.99105  0.33601  1.0000
  C   C2        1.0  0.17034  0.07883  0.31855  1.0000
  C   C3        1.0  0.25614  0.98413  0.32112  1.0000
  C   C4        1.0  0.24544  0.95804  0.27141  1.0000
  C   C5        1.0  0.22802  0.96135  0.27893  1.0000
  C   C6        1.0  0.16870  0.89225  0.29433  1.0000
  C   C7        1.0  0.15971  0.85508  0.30201  1.0000
  C   C8        1.0  0.15608  0.15909  0.29274  1.0000
  C   C9        1.0  0.16889  0.14447  0.23621  1.0000
  C   C10       1.0  0.17595  0.10508  0.24919  1.0000
  H   H1        1.0  0.25021  0.93654  0.22815  1.0000
  H   H2        1.0  0.22077  0.94257  0.23990  1.0000
  H   H3        1.0  0.17825  0.89361  0.24915  1.0000
  H   H4        1.0  0.16327  0.83063  0.26293  1.0000
  H   H5        1.0  0.17337  0.16256  0.18546  1.0000
  H   H6        1.0  0.18515  0.09557  0.20656  1.0000
  C   C11       1.0  0.17772  0.03908  0.33148  1.0000
  C   C12       1.0  0.16775  0.00310  0.33888  1.0000
  C   C13       1.0  0.17496  0.96323  0.34544  1.0000
  C   C14       1.0  0.19255  0.96006  0.34666  1.0000
  C   C15       1.0  0.20294  0.99527  0.34013  1.0000
  C   C16       1.0  0.19526  0.03454  0.33272  1.0000
  H   H7        1.0  0.15505  0.00576  0.33479  1.0000
  H   H8        1.0  0.20261  0.06031  0.32621  1.0000
  C   C17       1.0  0.14963  0.19836  0.27897  1.0000
  C   C18       1.0  0.27328  0.98127  0.30888  1.0000
  H   H9        1.0  0.14881  0.20875  0.21671  1.0000
  H   H10       1.0  0.27750  0.96749  0.25392  1.0000
  C   C19       1.0  0.81099  0.00971  0.33611  1.0000
  C   C20       1.0  0.86132  0.92200  0.31868  1.0000
  C   C21       1.0  0.77549  0.01662  0.32073  1.0000
  C   C22       1.0  0.78620  0.04274  0.27123  1.0000
  C   C23       1.0  0.80362  0.03943  0.27897  1.0000
  C   C24       1.0  0.86287  0.10858  0.29447  1.0000
  C   C25       1.0  0.87184  0.14578  0.30207  1.0000
  C   C26       1.0  0.87568  0.84190  0.29227  1.0000
  C   C27       1.0  0.86280  0.85646  0.23598  1.0000
  C   C28       1.0  0.85569  0.89577  0.24928  1.0000
  H   H11       1.0  0.78144  0.06423  0.22787  1.0000
  H   H12       1.0  0.81087  0.05819  0.24001  1.0000
  H   H13       1.0  0.85329  0.10719  0.24939  1.0000
  H   H14       1.0  0.86825  0.17020  0.26298  1.0000
  H   H15       1.0  0.85832  0.83839  0.18518  1.0000
  H   H16       1.0  0.84646  0.90526  0.20677  1.0000
  C   C29       1.0  0.85393  0.96173  0.33175  1.0000
  C   C30       1.0  0.86389  0.99774  0.33920  1.0000
  C   C31       1.0  0.85666  0.03759  0.34573  1.0000
  C   C32       1.0  0.83907  0.04072  0.34697  1.0000
  C   C33       1.0  0.82869  0.00549  0.34041  1.0000
  C   C34       1.0  0.83638  0.96623  0.33302  1.0000
  H   H17       1.0  0.87658  0.99511  0.33496  1.0000
  H   H18       1.0  0.82904  0.94046  0.32641  1.0000
  C   C35       1.0  0.88222  0.80274  0.27816  1.0000
  C   C36       1.0  0.75835  0.01949  0.30820  1.0000
  H   H19       1.0  0.88305  0.79248  0.21581  1.0000
  H   H20       1.0  0.75416  0.03335  0.25325  1.0000
  C   C37       1.0  0.72061  0.49126  0.33687  1.0000
  C   C38       1.0  0.67032  0.57911  0.31945  1.0000
  C   C39       1.0  0.75610  0.48431  0.32125  1.0000
  C   C40       1.0  0.74535  0.45819  0.27186  1.0000
  C   C41       1.0  0.72794  0.46154  0.27968  1.0000
  C   C42       1.0  0.66867  0.39254  0.29538  1.0000
  C   C43       1.0  0.65969  0.35535  0.30303  1.0000
  C   C44       1.0  0.65605  0.65932  0.29318  1.0000
  C   C45       1.0  0.66887  0.64466  0.23678  1.0000
  C   C46       1.0  0.67593  0.60529  0.24998  1.0000
  H   H21       1.0  0.75009  0.43665  0.22856  1.0000
  H   H22       1.0  0.72066  0.44273  0.24089  1.0000
  H   H23       1.0  0.67823  0.39390  0.25030  1.0000
  H   H24       1.0  0.66326  0.33091  0.26401  1.0000
  H   H25       1.0  0.67335  0.66270  0.18595  1.0000
  H   H26       1.0  0.68514  0.59574  0.20742  1.0000
  C   C47       1.0  0.67769  0.53936  0.33254  1.0000
  C   C48       1.0  0.66772  0.50338  0.33996  1.0000
  C   C49       1.0  0.69251  0.46033  0.34788  1.0000
  C   C50       1.0  0.70291  0.49553  0.34125  1.0000
  C   C51       1.0  0.69524  0.53480  0.33379  1.0000
  H   H27       1.0  0.65502  0.50605  0.33589  1.0000
  H   H28       1.0  0.70259  0.56055  0.32719  1.0000
  C   C52       1.0  0.64959  0.69857  0.27919  1.0000
  C   C53       1.0  0.77323  0.48141  0.30863  1.0000
  H   H29       1.0  0.64876  0.70890  0.21688  1.0000
  H   H30       1.0  0.77739  0.46741  0.25381  1.0000
  C   C54       1.0  0.31096  0.50934  0.33678  1.0000
  C   C55       1.0  0.36129  0.42161  0.31967  1.0000
  C   C56       1.0  0.27546  0.51618  0.32151  1.0000
  C   C57       1.0  0.28616  0.54231  0.27195  1.0000
  C   C58       1.0  0.30357  0.53903  0.27963  1.0000
  C   C59       1.0  0.36288  0.60822  0.29561  1.0000
  C   C60       1.0  0.37187  0.64539  0.30336  1.0000
  C   C61       1.0  0.37559  0.34142  0.29379  1.0000
  C   C62       1.0  0.36275  0.35600  0.23726  1.0000
  C   C63       1.0  0.35567  0.39536  0.25027  1.0000
  H   H31       1.0  0.28138  0.56380  0.22863  1.0000
  H   H32       1.0  0.31082  0.55782  0.24069  1.0000
  H   H33       1.0  0.35332  0.60688  0.25042  1.0000
  H   H34       1.0  0.36832  0.66983  0.26423  1.0000
  H   H35       1.0  0.35828  0.33790  0.18646  1.0000
  H   H36       1.0  0.34646  0.40484  0.20763  1.0000
  C   C64       1.0  0.35390  0.46136  0.33257  1.0000
  C   C65       1.0  0.36386  0.49735  0.34012  1.0000
  C   C66       1.0  0.33904  0.54036  0.34766  1.0000
  C   C67       1.0  0.32867  0.50513  0.34104  1.0000
  C   C68       1.0  0.33635  0.46587  0.33365  1.0000
  H   H37       1.0  0.37656  0.49471  0.33603  1.0000
  H   H38       1.0  0.32901  0.44010  0.32709  1.0000
  C   C69       1.0  0.38209  0.30221  0.27993  1.0000
  C   C70       1.0  0.25832  0.51901  0.30909  1.0000
  H   H39       1.0  0.38293  0.29190  0.21762  1.0000
  H   H40       1.0  0.25410  0.53280  0.25410  1.0000
  C   C71       1.0  0.39423  0.82706  0.26858  1.0000
  C   C72       1.0  0.39203  0.78388  0.26469  1.0000
  C   C73       1.0  0.32743  0.99808  0.28837  1.0000
  C   C74       1.0  0.30991  0.99768  0.28551  1.0000
  C   C75       1.0  0.39468  0.21424  0.27454  1.0000
  C   C76       1.0  0.39766  0.17148  0.28279  1.0000
  C   C77       1.0  0.46675  0.00024  0.27117  1.0000
  C   C78       1.0  0.48426  0.00005  0.26604  1.0000
  H   H41       1.0  0.48981  0.99862  0.20462  1.0000
  H   H42       1.0  0.45992  0.99891  0.21349  1.0000
  H   H43       1.0  0.40034  0.15464  0.22671  1.0000
  H   H44       1.0  0.39544  0.22724  0.21257  1.0000
  H   H45       1.0  0.33396  0.00012  0.22989  1.0000
  H   H46       1.0  0.30413  0.99990  0.22490  1.0000
  H   H47       1.0  0.38834  0.77072  0.20573  1.0000
  H   H48       1.0  0.39207  0.84435  0.21250  1.0000
  C   C79       1.0  0.63700  0.17377  0.26742  1.0000
  C   C80       1.0  0.63922  0.21695  0.26363  1.0000
  C   C81       1.0  0.70424  0.00257  0.28605  1.0000
  C   C82       1.0  0.72176  0.00292  0.28373  1.0000
  C   C83       1.0  0.63684  0.78644  0.27366  1.0000
  C   C84       1.0  0.63383  0.82919  0.28180  1.0000
  C   C85       1.0  0.56317  0.00205  0.29537  1.0000
  C   C86       1.0  0.54565  0.00237  0.30038  1.0000
  H   H49       1.0  0.53890  0.00490  0.24271  1.0000
  H   H50       1.0  0.56879  0.00436  0.23428  1.0000
  H   H51       1.0  0.63111  0.84600  0.22571  1.0000
  H   H52       1.0  0.63601  0.77336  0.21177  1.0000
  H   H53       1.0  0.69775  0.00047  0.22739  1.0000
  H   H54       1.0  0.72759  0.00063  0.22331  1.0000
  H   H55       1.0  0.64272  0.23018  0.20447  1.0000
  H   H56       1.0  0.63897  0.15655  0.21104  1.0000
  C   C87       1.0  0.89449  0.32739  0.26626  1.0000
  C   C88       1.0  0.89225  0.28422  0.26249  1.0000
  C   C89       1.0  0.82730  0.49855  0.28547  1.0000
  C   C90       1.0  0.80978  0.49817  0.28343  1.0000
  C   C91       1.0  0.89481  0.71474  0.27259  1.0000
  C   C92       1.0  0.89779  0.67198  0.28073  1.0000
  C   C93       1.0  0.96841  0.49913  0.29406  1.0000
  C   C94       1.0  0.98593  0.49874  0.29904  1.0000
  H   H57       1.0  0.99265  0.49628  0.24133  1.0000
  H   H58       1.0  0.96276  0.49692  0.23297  1.0000
  H   H59       1.0  0.90054  0.65518  0.22469  1.0000
  H   H60       1.0  0.89568  0.72784  0.21074  1.0000
  H   H61       1.0  0.83375  0.50060  0.22670  1.0000
  H   H62       1.0  0.80390  0.50038  0.22309  1.0000
  H   H63       1.0  0.88869  0.27099  0.20340  1.0000
  H   H64       1.0  0.89248  0.34461  0.20990  1.0000
  C   C95       1.0  0.13743  0.67332  0.26740  1.0000
  C   C96       1.0  0.13966  0.71649  0.26353  1.0000
  C   C97       1.0  0.20417  0.50224  0.28800  1.0000
  C   C98       1.0  0.22169  0.50261  0.28532  1.0000
  C   C99       1.0  0.13683  0.28614  0.27356  1.0000
  C   C100      1.0  0.13382  0.32889  0.28175  1.0000
  C   C101      1.0  0.06482  0.50022  0.26972  1.0000
  C   C102      1.0  0.04731  0.50048  0.26461  1.0000
  H   H65       1.0  0.04174  0.50185  0.20318  1.0000
  H   H66       1.0  0.07163  0.50142  0.21203  1.0000
  H   H67       1.0  0.13112  0.34570  0.22564  1.0000
  H   H68       1.0  0.13601  0.27309  0.21165  1.0000
  H   H69       1.0  0.19764  0.50023  0.22946  1.0000
  H   H70       1.0  0.22748  0.50042  0.22476  1.0000
  H   H71       1.0  0.14334  0.72965  0.20459  1.0000
  H   H72       1.0  0.13960  0.65600  0.21138  1.0000
  C   C103      1.0  0.16492  0.92679  0.34877  1.0000
  C   C104      1.0  0.23133  0.01707  0.38602  1.0000
  C   C105      1.0  0.24878  0.01363  0.37891  1.0000
  C   C106      1.0  0.14659  0.85093  0.36468  1.0000
  C   C107      1.0  0.14247  0.88601  0.41698  1.0000
  C   C108      1.0  0.15143  0.92334  0.40895  1.0000
  C   C109      1.0  0.15729  0.09320  0.37408  1.0000
  C   C110      1.0  0.15033  0.13286  0.36179  1.0000
  H   H73       1.0  0.25605  0.03347  0.41531  1.0000
  H   H74       1.0  0.14848  0.94738  0.45055  1.0000
  H   H75       1.0  0.13322  0.88435  0.46388  1.0000
  H   H76       1.0  0.15300  0.07524  0.42543  1.0000
  H   H77       1.0  0.14101  0.14238  0.40366  1.0000
  H   H78       1.0  0.19794  0.93147  0.35357  1.0000
  H   H79       1.0  0.22650  0.03882  0.42841  1.0000
  C   C111      1.0  0.13866  0.81316  0.38008  1.0000
  H   H80       1.0  0.13060  0.81082  0.43022  1.0000
  C   C112      1.0  0.86668  0.07406  0.34896  1.0000
  C   C113      1.0  0.80029  0.98368  0.38597  1.0000
  C   C114      1.0  0.78284  0.98713  0.37863  1.0000
  C   C115      1.0  0.88499  0.14998  0.36465  1.0000
  C   C116      1.0  0.88915  0.11493  0.41699  1.0000
  C   C117      1.0  0.88022  0.07756  0.40901  1.0000
  C   C118      1.0  0.87442  0.90767  0.37400  1.0000
  C   C119      1.0  0.88144  0.86810  0.36139  1.0000
  H   H81       1.0  0.77557  0.96728  0.41492  1.0000
  H   H82       1.0  0.88320  0.05354  0.45063  1.0000
  H   H83       1.0  0.89844  0.11661  0.46374  1.0000
  H   H84       1.0  0.87874  0.92564  0.42531  1.0000
  H   H85       1.0  0.89082  0.85862  0.40304  1.0000
  H   H86       1.0  0.83368  0.06930  0.35389  1.0000
  H   H87       1.0  0.80512  0.96193  0.42840  1.0000
  C   C120      1.0  0.89292  0.18777  0.37989  1.0000
  H   H88       1.0  0.90094  0.19021  0.43032  1.0000
  C   C121      1.0  0.66489  0.42707  0.34986  1.0000
  C   C122      1.0  0.73134  0.51730  0.38661  1.0000
  C   C123      1.0  0.74878  0.51383  0.37916  1.0000
  C   C124      1.0  0.64657  0.35118  0.36566  1.0000
  C   C125      1.0  0.64244  0.38625  0.41798  1.0000
  C   C126      1.0  0.65137  0.42361  0.40993  1.0000
  C   C127      1.0  0.65727  0.59353  0.37488  1.0000
  C   C128      1.0  0.65030  0.63317  0.36234  1.0000
  H   H89       1.0  0.75607  0.53368  0.41538  1.0000
  H   H90       1.0  0.64844  0.44762  0.45166  1.0000
  H   H91       1.0  0.63319  0.38457  0.46489  1.0000
  H   H92       1.0  0.65296  0.57561  0.42625  1.0000
  H   H93       1.0  0.64096  0.64272  0.40410  1.0000
  C   C129      1.0  0.67493  0.46351  0.34662  1.0000
  H   H94       1.0  0.69790  0.43173  0.35480  1.0000
  H   H95       1.0  0.72654  0.53906  0.42907  1.0000
  C   C130      1.0  0.63865  0.31339  0.38107  1.0000
  H   H96       1.0  0.63069  0.31097  0.43163  1.0000
  C   C131      1.0  0.36667  0.57366  0.35002  1.0000
  C   C132      1.0  0.30027  0.48328  0.38665  1.0000
  C   C133      1.0  0.28282  0.48669  0.37936  1.0000
  C   C134      1.0  0.38503  0.64950  0.36595  1.0000
  C   C135      1.0  0.38915  0.61441  0.41822  1.0000
  C   C136      1.0  0.38019  0.57709  0.41019  1.0000
  C   C137      1.0  0.37435  0.40728  0.37521  1.0000
  C   C138      1.0  0.38134  0.36765  0.36289  1.0000
  H   H97       1.0  0.27556  0.46682  0.41566  1.0000
  H   H98       1.0  0.38315  0.55303  0.45174  1.0000
  H   H99       1.0  0.39843  0.61603  0.46507  1.0000
  H   H100      1.0  0.37865  0.42525  0.42657  1.0000
  H   H101      1.0  0.39068  0.35816  0.40473  1.0000
  C   C139      1.0  0.35663  0.53721  0.34659  1.0000
  H   H102      1.0  0.33365  0.56894  0.35456  1.0000
  H   H103      1.0  0.30511  0.46153  0.42907  1.0000
  C   C140      1.0  0.39298  0.68724  0.38130  1.0000
  H   H104      1.0  0.40105  0.68958  0.43150  1.0000
  C   C141      1.0  0.44092  0.92413  0.35056  1.0000
  C   C142      1.0  0.42897  0.89338  0.34922  1.0000
  C   C143      1.0  0.41332  0.91211  0.35574  1.0000
  N   N1        1.0  0.41635  0.95336  0.36042  1.0000
  C   C144      1.0  0.43284  0.96238  0.35720  1.0000
  C   C145      1.0  0.44096  0.00154  0.35995  1.0000
  C   C146      1.0  0.43271  0.04039  0.36513  1.0000
  N   N2        1.0  0.41613  0.04759  0.36723  1.0000
  C   C147      1.0  0.41263  0.08851  0.37045  1.0000
  C   C148      1.0  0.42797  0.10892  0.37070  1.0000
  C   C149      1.0  0.44036  0.07925  0.36727  1.0000
  C   C150      1.0  0.39670  0.10760  0.37149  1.0000
  C   C151      1.0  0.38125  0.08590  0.37145  1.0000
  N   N3        1.0  0.37825  0.04462  0.37545  1.0000
  C   C152      1.0  0.36175  0.03561  0.37233  1.0000
  C   C153      1.0  0.35361  0.07380  0.36753  1.0000
  C   C154      1.0  0.36554  0.10454  0.36635  1.0000
  C   C155      1.0  0.35362  0.99650  0.37336  1.0000
  C   C156      1.0  0.36189  0.95769  0.37152  1.0000
  N   N4        1.0  0.37846  0.95059  0.36640  1.0000
  C   C157      1.0  0.38196  0.90968  0.36345  1.0000
  C   C158      1.0  0.36662  0.88926  0.36736  1.0000
  C   C159      1.0  0.35425  0.91885  0.37209  1.0000
  C   C160      1.0  0.39786  0.89058  0.35696  1.0000
  C   C161      1.0  0.39815  0.84656  0.35037  1.0000
  C   C162      1.0  0.39401  0.75926  0.34175  1.0000
  C   C163      1.0  0.39830  0.77873  0.42315  1.0000
  C   C164      1.0  0.40036  0.82197  0.42743  1.0000
  C   C165      1.0  0.33588  0.99604  0.37095  1.0000
  C   C166      1.0  0.30046  0.99478  0.36502  1.0000
  C   C167      1.0  0.30897  0.99343  0.44745  1.0000
  C   C168      1.0  0.32651  0.99383  0.45056  1.0000
  C   C169      1.0  0.39605  0.15166  0.36634  1.0000
  C   C170      1.0  0.39184  0.17564  0.44189  1.0000
  C   C171      1.0  0.38880  0.21840  0.43335  1.0000
  C   C172      1.0  0.38982  0.23812  0.34944  1.0000
  C   C173      1.0  0.45869  0.00198  0.35487  1.0000
  C   C174      1.0  0.46845  0.00366  0.43327  1.0000
  C   C175      1.0  0.49407  0.00156  0.34415  1.0000
  C   C176      1.0  0.48597  0.00349  0.42793  1.0000
  H   H105      1.0  0.49276  0.00470  0.48565  1.0000
  H   H106      1.0  0.46288  0.00488  0.49463  1.0000
  H   H107      1.0  0.45346  0.91884  0.34689  1.0000
  H   H108      1.0  0.43151  0.86244  0.34454  1.0000
  H   H109      1.0  0.40777  0.97394  0.36572  1.0000
  H   H110      1.0  0.38684  0.02409  0.38173  1.0000
  H   H111      1.0  0.45284  0.08550  0.36593  1.0000
  H   H112      1.0  0.43001  0.14015  0.37247  1.0000
  H   H113      1.0  0.39023  0.16180  0.50272  1.0000
  H   H114      1.0  0.38506  0.23470  0.48841  1.0000
  H   H115      1.0  0.36289  0.13542  0.36158  1.0000
  H   H116      1.0  0.34107  0.07905  0.36374  1.0000
  H   H117      1.0  0.36453  0.85804  0.36673  1.0000
  H   H118      1.0  0.34177  0.91257  0.37499  1.0000
  H   H119      1.0  0.33238  0.99253  0.51114  1.0000
  H   H120      1.0  0.30243  0.99178  0.50597  1.0000
  H   H121      1.0  0.40264  0.83556  0.48794  1.0000
  H   H122      1.0  0.39902  0.76196  0.48089  1.0000
  N   N5        1.0  0.28387  0.99481  0.36644  1.0000
  N   N6        1.0  0.38501  0.27758  0.34556  1.0000
  N   N7        1.0  0.51049  0.00111  0.33431  1.0000
  N   N8        1.0  0.38936  0.71991  0.33622  1.0000
  C   C177      1.0  0.59060  0.07667  0.36056  1.0000
  C   C178      1.0  0.60253  0.10737  0.35560  1.0000
  C   C179      1.0  0.61822  0.08860  0.35754  1.0000
  N   N9        1.0  0.61521  0.04733  0.36207  1.0000
  C   C180      1.0  0.59871  0.03837  0.36418  1.0000
  C   C181      1.0  0.59061  0.99923  0.36938  1.0000
  C   C182      1.0  0.59889  0.96035  0.37147  1.0000
  N   N10       1.0  0.61547  0.95313  0.36983  1.0000
  C   C183      1.0  0.61899  0.91220  0.37167  1.0000
  C   C184      1.0  0.60366  0.89179  0.37448  1.0000
  C   C185      1.0  0.59127  0.92147  0.37451  1.0000
  C   C186      1.0  0.63492  0.89314  0.37022  1.0000
  C   C187      1.0  0.65037  0.91485  0.36919  1.0000
  N   N11       1.0  0.65337  0.95613  0.37305  1.0000
  C   C188      1.0  0.66986  0.96514  0.36955  1.0000
  C   C189      1.0  0.67800  0.92695  0.36445  1.0000
  C   C190      1.0  0.66607  0.89622  0.36344  1.0000
  C   C191      1.0  0.67799  0.00426  0.37037  1.0000
  C   C192      1.0  0.66970  0.04306  0.36822  1.0000
  N   N12       1.0  0.65312  0.05014  0.36407  1.0000
  C   C193      1.0  0.64961  0.09103  0.36056  1.0000
  C   C194      1.0  0.66496  0.11147  0.36289  1.0000
  C   C195      1.0  0.67734  0.08190  0.36753  1.0000
  C   C196      1.0  0.63368  0.11012  0.35573  1.0000
  C   C197      1.0  0.63336  0.15415  0.34940  1.0000
  C   C198      1.0  0.63754  0.24146  0.34104  1.0000
  C   C199      1.0  0.63350  0.22188  0.42266  1.0000
  C   C200      1.0  0.63143  0.17864  0.42683  1.0000
  C   C201      1.0  0.69573  0.00473  0.36835  1.0000
  C   C202      1.0  0.73115  0.00589  0.36351  1.0000
  C   C203      1.0  0.72259  0.00737  0.44567  1.0000
  C   C204      1.0  0.70504  0.00702  0.44824  1.0000
  C   C205      1.0  0.63556  0.84909  0.36521  1.0000
  C   C206      1.0  0.63984  0.82519  0.44079  1.0000
  C   C207      1.0  0.64291  0.78245  0.43233  1.0000
  C   C208      1.0  0.64180  0.76265  0.34853  1.0000
  C   C209      1.0  0.57287  0.99889  0.37377  1.0000
  C   C210      1.0  0.56475  0.99594  0.45712  1.0000
  C   C211      1.0  0.53748  0.99945  0.38385  1.0000
  C   C212      1.0  0.54723  0.99619  0.46192  1.0000
  H   H123      1.0  0.54164  0.99411  0.52314  1.0000
  H   H124      1.0  0.57153  0.99374  0.51484  1.0000
  H   H125      1.0  0.57804  0.08202  0.36113  1.0000
  H   H126      1.0  0.59996  0.13835  0.35275  1.0000
  H   H127      1.0  0.62383  0.02671  0.36416  1.0000
  H   H128      1.0  0.64479  0.97665  0.37973  1.0000
  H   H129      1.0  0.57878  0.91523  0.37575  1.0000
  H   H130      1.0  0.60164  0.86055  0.37639  1.0000
  H   H131      1.0  0.64154  0.83910  0.50151  1.0000
  H   H132      1.0  0.64670  0.76619  0.48741  1.0000
  H   H133      1.0  0.66871  0.86533  0.35871  1.0000
  H   H134      1.0  0.69054  0.92171  0.36033  1.0000
  H   H135      1.0  0.66704  0.14268  0.36177  1.0000
  H   H136      1.0  0.68982  0.08820  0.36957  1.0000
  H   H137      1.0  0.69912  0.00841  0.50864  1.0000
  H   H138      1.0  0.72908  0.00909  0.50438  1.0000
  H   H139      1.0  0.62939  0.16497  0.48747  1.0000
  H   H140      1.0  0.63303  0.23856  0.48058  1.0000
  N   N13       1.0  0.74774  0.00585  0.36542  1.0000
  N   N14       1.0  0.64662  0.72319  0.34475  1.0000
  N   N15       1.0  0.52106  0.99985  0.39350  1.0000
  N   N16       1.0  0.64219  0.28081  0.33551  1.0000
  C   C213      1.0  0.94099  0.42445  0.35907  1.0000
  C   C214      1.0  0.92905  0.39375  0.35425  1.0000
  C   C215      1.0  0.91337  0.41254  0.35632  1.0000
  N   N17       1.0  0.91638  0.45381  0.36101  1.0000
  C   C216      1.0  0.93288  0.46275  0.36294  1.0000
  C   C217      1.0  0.94099  0.50188  0.36817  1.0000
  C   C218      1.0  0.93273  0.54077  0.37033  1.0000
  N   N18       1.0  0.91614  0.54801  0.36871  1.0000
  C   C219      1.0  0.91264  0.58894  0.37065  1.0000
  C   C220      1.0  0.92797  0.60934  0.37354  1.0000
  C   C221      1.0  0.94036  0.57963  0.37354  1.0000
  C   C222      1.0  0.89671  0.60803  0.36922  1.0000
  C   C223      1.0  0.88126  0.58633  0.36801  1.0000
  N   N19       1.0  0.87825  0.54506  0.37194  1.0000
  C   C224      1.0  0.86175  0.53607  0.36843  1.0000
  C   C225      1.0  0.85362  0.57426  0.36314  1.0000
  C   C226      1.0  0.86556  0.60498  0.36201  1.0000
  C   C227      1.0  0.85362  0.49696  0.36939  1.0000
  C   C228      1.0  0.86190  0.45815  0.36738  1.0000
  N   N20       1.0  0.87848  0.45105  0.36301  1.0000
  C   C229      1.0  0.88198  0.41015  0.35953  1.0000
  C   C230      1.0  0.86662  0.38973  0.36204  1.0000
  C   C231      1.0  0.85425  0.41931  0.36685  1.0000
  C   C232      1.0  0.89790  0.39104  0.35455  1.0000
  C   C233      1.0  0.89821  0.34701  0.34816  1.0000
  C   C234      1.0  0.89398  0.25973  0.33990  1.0000
  C   C235      1.0  0.89813  0.27927  0.42144  1.0000
  C   C236      1.0  0.90017  0.32251  0.42558  1.0000
  C   C237      1.0  0.83588  0.49650  0.36766  1.0000
  C   C238      1.0  0.80046  0.49526  0.36337  1.0000
  C   C239      1.0  0.80910  0.49390  0.44541  1.0000
  C   C240      1.0  0.82664  0.49428  0.44770  1.0000
  C   C241      1.0  0.89608  0.65208  0.36413  1.0000
  C   C242      1.0  0.89182  0.67599  0.43970  1.0000
  C   C243      1.0  0.88877  0.71875  0.43122  1.0000
  C   C244      1.0  0.88991  0.73856  0.34747  1.0000
  C   C245      1.0  0.95873  0.50219  0.37251  1.0000
  C   C246      1.0  0.96689  0.50499  0.45586  1.0000
  C   C247      1.0  0.99413  0.50149  0.38250  1.0000
  C   C248      1.0  0.98441  0.50467  0.46063  1.0000
  H   H141      1.0  0.99003  0.50664  0.52185  1.0000
  H   H142      1.0  0.96014  0.50711  0.51361  1.0000
  H   H143      1.0  0.95354  0.41909  0.35940  1.0000
  H   H144      1.0  0.93162  0.36278  0.35100  1.0000
  H   H145      1.0  0.90777  0.47443  0.36320  1.0000
  H   H146      1.0  0.88682  0.52453  0.37909  1.0000
  H   H147      1.0  0.95284  0.58586  0.37477  1.0000
  H   H148      1.0  0.93000  0.64057  0.37554  1.0000
  H   H149      1.0  0.89009  0.66208  0.50037  1.0000
  H   H150      1.0  0.88498  0.73499  0.48628  1.0000
  H   H151      1.0  0.86293  0.63586  0.35724  1.0000
  H   H152      1.0  0.84109  0.57951  0.35884  1.0000
  H   H153      1.0  0.86454  0.35852  0.36099  1.0000
  H   H154      1.0  0.84177  0.41304  0.36893  1.0000
  H   H155      1.0  0.83261  0.49297  0.50801  1.0000
  H   H156      1.0  0.80265  0.49223  0.50422  1.0000
  H   H157      1.0  0.90231  0.33617  0.48616  1.0000
  H   H158      1.0  0.89863  0.26260  0.47938  1.0000
  N   N21       1.0  0.78387  0.49527  0.36552  1.0000
  N   N22       1.0  0.88510  0.77803  0.34369  1.0000
  N   N23       1.0  0.01055  0.50102  0.39213  1.0000
  N   N24       1.0  0.88934  0.22036  0.33444  1.0000
  C   C249      1.0  0.09071  0.57638  0.34886  1.0000
  C   C250      1.0  0.10267  0.60710  0.34762  1.0000
  C   C251      1.0  0.11831  0.58833  0.35442  1.0000
  N   N25       1.0  0.11526  0.54709  0.35917  1.0000
  C   C252      1.0  0.09877  0.53811  0.35574  1.0000
  C   C253      1.0  0.09063  0.49897  0.35849  1.0000
  C   C254      1.0  0.09887  0.46011  0.36377  1.0000
  N   N26       1.0  0.11545  0.45287  0.36588  1.0000
  C   C255      1.0  0.11893  0.41194  0.36922  1.0000
  C   C256      1.0  0.10358  0.39157  0.36960  1.0000
  C   C257      1.0  0.09121  0.42127  0.36605  1.0000
  C   C258      1.0  0.13486  0.39281  0.37029  1.0000
  C   C259      1.0  0.15031  0.41448  0.37032  1.0000
  N   N27       1.0  0.15333  0.45575  0.37450  1.0000
  C   C260      1.0  0.16983  0.46472  0.37147  1.0000
  C   C261      1.0  0.17796  0.42652  0.36649  1.0000
  C   C262      1.0  0.16602  0.39581  0.36516  1.0000
  C   C263      1.0  0.17798  0.50381  0.37275  1.0000
  C   C264      1.0  0.16972  0.54265  0.37098  1.0000
  N   N28       1.0  0.15315  0.54978  0.36556  1.0000
  C   C265      1.0  0.14967  0.59069  0.36258  1.0000
  C   C266      1.0  0.16502  0.61108  0.36671  1.0000
  C   C267      1.0  0.17738  0.58147  0.37164  1.0000
  C   C268      1.0  0.13377  0.60983  0.35584  1.0000
  C   C269      1.0  0.13351  0.65384  0.34916  1.0000
  C   C270      1.0  0.13770  0.74111  0.34057  1.0000
  C   C271      1.0  0.13335  0.72169  0.42190  1.0000
  C   C272      1.0  0.13128  0.67844  0.42619  1.0000
  C   C273      1.0  0.19572  0.50424  0.37050  1.0000
  C   C274      1.0  0.23114  0.50544  0.36492  1.0000
  C   C275      1.0  0.22263  0.50678  0.44727  1.0000
  C   C276      1.0  0.20509  0.50639  0.45021  1.0000
  C   C277      1.0  0.13549  0.34875  0.36522  1.0000
  C   C278      1.0  0.13972  0.32481  0.44084  1.0000
  C   C279      1.0  0.14279  0.28207  0.43234  1.0000
  C   C280      1.0  0.14174  0.26231  0.34847  1.0000
  C   C281      1.0  0.07291  0.49858  0.35343  1.0000
  C   C282      1.0  0.06317  0.49707  0.43185  1.0000
  C   C283      1.0  0.03752  0.49915  0.34274  1.0000
  C   C284      1.0  0.04565  0.49732  0.42653  1.0000
  H   H159      1.0  0.03888  0.49625  0.48427  1.0000
  H   H160      1.0  0.06876  0.49594  0.49321  1.0000
  H   H161      1.0  0.07817  0.58169  0.34499  1.0000
  H   H162      1.0  0.10014  0.63804  0.34280  1.0000
  H   H163      1.0  0.12384  0.52650  0.36469  1.0000
  H   H164      1.0  0.14475  0.47629  0.38094  1.0000
  H   H165      1.0  0.07872  0.41505  0.36481  1.0000
  H   H166      1.0  0.10153  0.36035  0.37146  1.0000
  H   H167      1.0  0.14141  0.33870  0.50158  1.0000
  H   H168      1.0  0.14659  0.26581  0.48740  1.0000
  H   H169      1.0  0.16865  0.36493  0.36027  1.0000
  H   H170      1.0  0.19050  0.42125  0.36273  1.0000
  H   H171      1.0  0.16712  0.64230  0.36604  1.0000
  H   H172      1.0  0.18985  0.58772  0.37461  1.0000
  H   H173      1.0  0.19921  0.50768  0.51074  1.0000
  H   H174      1.0  0.22917  0.50840  0.50586  1.0000
  H   H175      1.0  0.12898  0.66487  0.48666  1.0000
  H   H176      1.0  0.13262  0.73847  0.47960  1.0000
  N   N29       1.0  0.24773  0.50545  0.36652  1.0000
  N   N30       1.0  0.14660  0.22288  0.34462  1.0000
  N   N31       1.0  0.02110  0.49968  0.33292  1.0000
  N   N32       1.0  0.14231  0.78049  0.33508  1.0000
