data_image0
_chemical_formula_structural       NCHCNHCNHCHCNCNCNC18H12CNCNCNC18H12C2NCHC2NCHCNC
_chemical_formula_sum              "N12 C54 H30"
_cell_length_a       29.3246
_cell_length_b       29.3246
_cell_length_c       14.9443
_cell_angle_alpha    90
_cell_angle_beta     90
_cell_angle_gamma    120

_space_group_name_H-M_alt    "P 1"
_space_group_IT_number       1

loop_
  _space_group_symop_operation_xyz
  'x, y, z'

loop_
  _atom_site_type_symbol
  _atom_site_label
  _atom_site_symmetry_multiplicity
  _atom_site_fract_x
  _atom_site_fract_y
  _atom_site_fract_z
  _atom_site_occupancy
  N   N1        1.0  0.03046  0.51570  0.25957  1.0000
  C   C1        1.0  0.02856  0.51475  0.41868  1.0000
  H   H1        1.0  0.04691  0.52392  0.47956  1.0000
  C   C2        1.0  0.51568  0.48899  0.25560  1.0000
  N   N2        1.0  0.48897  0.51570  0.25957  1.0000
  H   H2        1.0  0.52486  0.47981  0.19472  1.0000
  C   C3        1.0  0.51568  0.02763  0.25560  1.0000
  N   N3        1.0  0.48897  0.97421  0.25957  1.0000
  H   H3        1.0  0.52486  0.04598  0.19472  1.0000
  C   C4        1.0  0.97704  0.48899  0.25560  1.0000
  H   H4        1.0  0.95868  0.47981  0.19472  1.0000
  C   C5        1.0  0.36333  0.72292  0.33694  1.0000
  N   N4        1.0  0.38884  0.69488  0.33694  1.0000
  C   C6        1.0  0.36332  0.64134  0.33694  1.0000
  N   N5        1.0  0.30978  0.61583  0.33694  1.0000
  C   C7        1.0  0.28174  0.64134  0.33694  1.0000
  N   N6        1.0  0.30978  0.69488  0.33694  1.0000
  C   C8        1.0  0.39145  0.61321  0.33683  1.0000
  C   C9        1.0  0.44730  0.64007  0.33678  1.0000
  C   C10       1.0  0.47510  0.61244  0.33691  1.0000
  C   C11       1.0  0.44773  0.55693  0.33715  1.0000
  C   C12       1.0  0.39222  0.52957  0.33691  1.0000
  C   C13       1.0  0.36459  0.55736  0.33677  1.0000
  C   C14       1.0  0.39145  0.77917  0.33683  1.0000
  C   C15       1.0  0.44730  0.80816  0.33677  1.0000
  C   C16       1.0  0.47510  0.86359  0.33690  1.0000
  C   C17       1.0  0.44773  0.89174  0.33715  1.0000
  C   C18       1.0  0.39222  0.86359  0.33691  1.0000
  C   C19       1.0  0.36459  0.80816  0.33678  1.0000
  C   C20       1.0  0.22550  0.61321  0.33683  1.0000
  C   C21       1.0  0.19650  0.64007  0.33678  1.0000
  C   C22       1.0  0.14108  0.61244  0.33690  1.0000
  C   C23       1.0  0.11292  0.55693  0.33715  1.0000
  C   C24       1.0  0.14108  0.52957  0.33690  1.0000
  C   C25       1.0  0.19650  0.55736  0.33677  1.0000
  H   H5        1.0  0.51541  0.88318  0.33711  1.0000
  H   H6        1.0  0.46868  0.78929  0.33681  1.0000
  H   H7        1.0  0.37150  0.88318  0.33711  1.0000
  H   H8        1.0  0.32434  0.78929  0.33681  1.0000
  H   H9        1.0  0.21538  0.68033  0.33681  1.0000
  H   H10       1.0  0.12148  0.63316  0.33711  1.0000
  H   H11       1.0  0.21538  0.53598  0.33681  1.0000
  H   H12       1.0  0.12148  0.48925  0.33711  1.0000
  H   H13       1.0  0.32434  0.53598  0.33681  1.0000
  H   H14       1.0  0.37150  0.48925  0.33711  1.0000
  H   H15       1.0  0.51541  0.63316  0.33711  1.0000
  H   H16       1.0  0.46868  0.68033  0.33681  1.0000
  C   C26       1.0  0.64227  0.28081  0.33715  1.0000
  N   N7        1.0  0.61676  0.30885  0.33716  1.0000
  C   C27       1.0  0.64227  0.36239  0.33715  1.0000
  N   N8        1.0  0.69582  0.38790  0.33716  1.0000
  C   C28       1.0  0.72385  0.36239  0.33716  1.0000
  N   N9        1.0  0.69582  0.30885  0.33716  1.0000
  C   C29       1.0  0.61415  0.39051  0.33731  1.0000
  C   C30       1.0  0.55829  0.36366  0.33739  1.0000
  C   C31       1.0  0.53050  0.39129  0.33732  1.0000
  C   C32       1.0  0.55786  0.44680  0.33712  1.0000
  C   C33       1.0  0.61338  0.47416  0.33732  1.0000
  C   C34       1.0  0.64101  0.44637  0.33739  1.0000
  C   C35       1.0  0.61415  0.22457  0.33731  1.0000
  C   C36       1.0  0.55830  0.19557  0.33738  1.0000
  C   C37       1.0  0.53050  0.14015  0.33732  1.0000
  C   C38       1.0  0.55786  0.11200  0.33711  1.0000
  C   C39       1.0  0.61337  0.14015  0.33732  1.0000
  C   C40       1.0  0.64101  0.19557  0.33739  1.0000
  C   C41       1.0  0.78010  0.39051  0.33731  1.0000
  C   C42       1.0  0.80909  0.36366  0.33739  1.0000
  C   C43       1.0  0.86451  0.39129  0.33732  1.0000
  C   C44       1.0  0.89267  0.44680  0.33712  1.0000
  C   C45       1.0  0.86452  0.47416  0.33733  1.0000
  C   C46       1.0  0.80909  0.44637  0.33739  1.0000
  H   H17       1.0  0.49018  0.12055  0.33713  1.0000
  H   H18       1.0  0.53692  0.21445  0.33733  1.0000
  H   H19       1.0  0.63410  0.12055  0.33713  1.0000
  H   H20       1.0  0.68126  0.21445  0.33733  1.0000
  H   H21       1.0  0.79022  0.32340  0.33733  1.0000
  H   H22       1.0  0.88411  0.37056  0.33713  1.0000
  H   H23       1.0  0.79022  0.46775  0.33733  1.0000
  H   H24       1.0  0.88411  0.51448  0.33713  1.0000
  H   H25       1.0  0.68126  0.46775  0.33733  1.0000
  H   H26       1.0  0.63410  0.51448  0.33713  1.0000
  H   H27       1.0  0.49018  0.37057  0.33713  1.0000
  H   H28       1.0  0.53692  0.32340  0.33733  1.0000
  C   C47       1.0  0.47545  0.52921  0.33810  1.0000
  C   C48       1.0  0.48992  0.51475  0.41869  1.0000
  N   N10       1.0  0.51663  0.48803  0.41472  1.0000
  C   C49       1.0  0.53015  0.47451  0.33618  1.0000
  H   H29       1.0  0.48074  0.52392  0.47956  1.0000
  C   C50       1.0  0.47545  0.94717  0.33810  1.0000
  C   C51       1.0  0.48992  0.97611  0.41869  1.0000
  N   N11       1.0  0.51663  0.02953  0.41472  1.0000
  C   C52       1.0  0.53015  0.05656  0.33618  1.0000
  H   H30       1.0  0.48074  0.95775  0.47956  1.0000
  C   C53       1.0  0.05749  0.52921  0.33810  1.0000
  N   N12       1.0  0.97513  0.48803  0.41471  1.0000
  C   C54       1.0  0.94810  0.47451  0.33618  1.0000
