data_image0
_chemical_formula_structural       C8H4C8H4N2H2N2H2C8H4C8H4N2H2N2H2C8H4C8H4C8H4C8H4N2H2N2H2C8H4C8H4N2H2N2H2C8H4C8H4N2H2N2H2C8H4C8H4CNCNCNCNCNCNCNCNCNCNCNCNCNCNCNCNCNCNCNCNCNCNCNCNCNCNCNCNCNCNCNCNCNCNCNCNCNCNCNCNCNCNCNCNCNCNCNCN5C8H2C8H2N4C8H2C8H2N8C8H2C8H2N4C8H2C8H2N4C8H2C8H2N4
_chemical_formula_sum              "C240 H96 N96"
_cell_length_a       43.4858
_cell_length_b       34.0995
_cell_length_c       14.7498
_cell_angle_alpha    90
_cell_angle_beta     90
_cell_angle_gamma    90

_space_group_name_H-M_alt    "P 1"
_space_group_IT_number       1

loop_
  _space_group_symop_operation_xyz
  'x, y, z'

loop_
  _atom_site_type_symbol
  _atom_site_label
  _atom_site_symmetry_multiplicity
  _atom_site_fract_x
  _atom_site_fract_y
  _atom_site_fract_z
  _atom_site_occupancy
  C   C1        1.0  0.00831  0.96681  0.33893  1.0000
  C   C2        1.0  0.00854  0.98740  0.25491  1.0000
  C   C3        1.0  0.00854  0.02957  0.25493  1.0000
  C   C4        1.0  0.00859  0.05014  0.33898  1.0000
  C   C5        1.0  0.00870  0.04968  0.17078  1.0000
  C   C6        1.0  0.00873  0.02906  0.08837  1.0000
  C   C7        1.0  0.00863  0.98795  0.08835  1.0000
  C   C8        1.0  0.00852  0.96731  0.17073  1.0000
  H   H1        1.0  0.00886  0.07968  0.16818  1.0000
  H   H2        1.0  0.00884  0.04404  0.02821  1.0000
  H   H3        1.0  0.00862  0.97299  0.02816  1.0000
  H   H4        1.0  0.00835  0.93731  0.16808  1.0000
  C   C9        1.0  0.50831  0.46682  0.33892  1.0000
  C   C10       1.0  0.50849  0.48741  0.25489  1.0000
  C   C11       1.0  0.50848  0.52958  0.25491  1.0000
  C   C12       1.0  0.50857  0.55015  0.33897  1.0000
  C   C13       1.0  0.50861  0.54970  0.17076  1.0000
  C   C14       1.0  0.50862  0.52907  0.08836  1.0000
  C   C15       1.0  0.50851  0.48796  0.08833  1.0000
  C   C16       1.0  0.50844  0.46732  0.17071  1.0000
  H   H5        1.0  0.50877  0.57969  0.16816  1.0000
  H   H6        1.0  0.50870  0.54405  0.02819  1.0000
  H   H7        1.0  0.50848  0.47300  0.02815  1.0000
  H   H8        1.0  0.50828  0.43732  0.16808  1.0000
  N   N1        1.0  0.07236  0.19738  0.29733  1.0000
  N   N2        1.0  0.09681  0.21988  0.29753  1.0000
  H   H9        1.0  0.08415  0.14796  0.00037  1.0000
  H   H10       1.0  0.12913  0.18985  0.00116  1.0000
  N   N3        1.0  0.94454  0.81956  0.29736  1.0000
  N   N4        1.0  0.92010  0.79701  0.29758  1.0000
  H   H11       1.0  0.93268  0.86909  0.00031  1.0000
  H   H12       1.0  0.88773  0.82713  0.00115  1.0000
  C   C17       1.0  0.90040  0.22381  0.33274  1.0000
  C   C18       1.0  0.90612  0.19886  0.25705  1.0000
  C   C19       1.0  0.93288  0.17404  0.25720  1.0000
  C   C20       1.0  0.95327  0.17496  0.33278  1.0000
  C   C21       1.0  0.93933  0.15106  0.17935  1.0000
  C   C22       1.0  0.92022  0.15244  0.10273  1.0000
  C   C23       1.0  0.89423  0.17673  0.10237  1.0000
  C   C24       1.0  0.88722  0.19964  0.17869  1.0000
  H   H13       1.0  0.95854  0.13380  0.17602  1.0000
  H   H14       1.0  0.92550  0.13614  0.04655  1.0000
  H   H15       1.0  0.88056  0.17810  0.04592  1.0000
  H   H16       1.0  0.86851  0.21773  0.17472  1.0000
  C   C25       1.0  0.11648  0.79314  0.33259  1.0000
  C   C26       1.0  0.11079  0.81815  0.25697  1.0000
  C   C27       1.0  0.08403  0.84297  0.25712  1.0000
  C   C28       1.0  0.06359  0.84196  0.33258  1.0000
  C   C29       1.0  0.07761  0.86600  0.17932  1.0000
  C   C30       1.0  0.09676  0.86467  0.10278  1.0000
  C   C31       1.0  0.12276  0.84040  0.10244  1.0000
  C   C32       1.0  0.12974  0.81746  0.17873  1.0000
  H   H17       1.0  0.05838  0.88322  0.17594  1.0000
  H   H18       1.0  0.09149  0.88098  0.04660  1.0000
  H   H19       1.0  0.13644  0.83904  0.04601  1.0000
  H   H20       1.0  0.14843  0.79934  0.17471  1.0000
  N   N5        1.0  0.57231  0.69746  0.29743  1.0000
  N   N6        1.0  0.59676  0.71997  0.29765  1.0000
  H   H21       1.0  0.58423  0.64780  0.00025  1.0000
  H   H22       1.0  0.62921  0.68971  0.00108  1.0000
  N   N7        1.0  0.44456  0.31958  0.29733  1.0000
  N   N8        1.0  0.42011  0.29706  0.29754  1.0000
  H   H23       1.0  0.43275  0.36903  0.00036  1.0000
  H   H24       1.0  0.38778  0.32710  0.00119  1.0000
  C   C33       1.0  0.40037  0.72379  0.33272  1.0000
  C   C34       1.0  0.40610  0.69884  0.25703  1.0000
  C   C35       1.0  0.43286  0.67403  0.25718  1.0000
  C   C36       1.0  0.45326  0.67496  0.33274  1.0000
  C   C37       1.0  0.43931  0.65105  0.17932  1.0000
  C   C38       1.0  0.42020  0.65242  0.10271  1.0000
  C   C39       1.0  0.39420  0.67669  0.10237  1.0000
  C   C40       1.0  0.38719  0.69960  0.17869  1.0000
  H   H25       1.0  0.45853  0.63380  0.17598  1.0000
  H   H26       1.0  0.42548  0.63612  0.04654  1.0000
  H   H27       1.0  0.38053  0.67806  0.04593  1.0000
  H   H28       1.0  0.36848  0.71769  0.17473  1.0000
  C   C41       1.0  0.61652  0.29318  0.33263  1.0000
  C   C42       1.0  0.61082  0.31817  0.25699  1.0000
  C   C43       1.0  0.58406  0.34299  0.25714  1.0000
  C   C44       1.0  0.56364  0.34202  0.33265  1.0000
  C   C45       1.0  0.57764  0.36601  0.17933  1.0000
  C   C46       1.0  0.59677  0.36466  0.10276  1.0000
  C   C47       1.0  0.62276  0.34037  0.10241  1.0000
  C   C48       1.0  0.62976  0.31745  0.17872  1.0000
  H   H29       1.0  0.55841  0.38324  0.17596  1.0000
  H   H30       1.0  0.59149  0.38096  0.04657  1.0000
  H   H31       1.0  0.63643  0.33900  0.04597  1.0000
  H   H32       1.0  0.64845  0.29932  0.17470  1.0000
  C   C49       1.0  0.36823  0.15974  0.32811  1.0000
  C   C50       1.0  0.37987  0.14396  0.24591  1.0000
  C   C51       1.0  0.38794  0.10329  0.24324  1.0000
  C   C52       1.0  0.38391  0.08014  0.32266  1.0000
  C   C53       1.0  0.39918  0.08718  0.16102  1.0000
  C   C54       1.0  0.40230  0.11043  0.08300  1.0000
  C   C55       1.0  0.39438  0.15027  0.08573  1.0000
  C   C56       1.0  0.38331  0.16694  0.16644  1.0000
  H   H33       1.0  0.40449  0.05801  0.15607  1.0000
  H   H34       1.0  0.41011  0.09824  0.02390  1.0000
  H   H35       1.0  0.39649  0.16713  0.02864  1.0000
  H   H36       1.0  0.37740  0.19599  0.16579  1.0000
  C   C57       1.0  0.64870  0.85722  0.32815  1.0000
  C   C58       1.0  0.63721  0.87304  0.24583  1.0000
  C   C59       1.0  0.62917  0.91371  0.24312  1.0000
  C   C60       1.0  0.63313  0.93688  0.32252  1.0000
  C   C61       1.0  0.61804  0.92987  0.16081  1.0000
  C   C62       1.0  0.61497  0.90662  0.08275  1.0000
  C   C63       1.0  0.62286  0.86677  0.08550  1.0000
  C   C64       1.0  0.63384  0.85008  0.16630  1.0000
  H   H37       1.0  0.61271  0.95903  0.15589  1.0000
  H   H38       1.0  0.60720  0.91882  0.02361  1.0000
  H   H39       1.0  0.62079  0.84992  0.02840  1.0000
  H   H40       1.0  0.63971  0.82102  0.16569  1.0000
  N   N9        1.0  0.64229  0.09856  0.29864  1.0000
  N   N10       1.0  0.64992  0.13565  0.29790  1.0000
  H   H41       1.0  0.61360  0.09269  0.01210  1.0000
  H   H42       1.0  0.62770  0.16145  0.01079  1.0000
  N   N11       1.0  0.37452  0.91842  0.29874  1.0000
  N   N12       1.0  0.36688  0.88133  0.29800  1.0000
  H   H43       1.0  0.40359  0.92420  0.01193  1.0000
  H   H44       1.0  0.38946  0.85544  0.01065  1.0000
  C   C65       1.0  0.86820  0.65972  0.32796  1.0000
  C   C66       1.0  0.87986  0.64397  0.24575  1.0000
  C   C67       1.0  0.88793  0.60331  0.24301  1.0000
  C   C68       1.0  0.88389  0.58013  0.32236  1.0000
  C   C69       1.0  0.89920  0.58722  0.16078  1.0000
  C   C70       1.0  0.90233  0.61051  0.08282  1.0000
  C   C71       1.0  0.89442  0.65035  0.08562  1.0000
  C   C72       1.0  0.88332  0.66698  0.16634  1.0000
  H   H45       1.0  0.90450  0.55806  0.15579  1.0000
  H   H46       1.0  0.91016  0.59834  0.02370  1.0000
  H   H47       1.0  0.89653  0.66723  0.02856  1.0000
  H   H48       1.0  0.87741  0.69603  0.16574  1.0000
  C   C73       1.0  0.14869  0.35718  0.32821  1.0000
  C   C74       1.0  0.13709  0.37298  0.24599  1.0000
  C   C75       1.0  0.12902  0.41365  0.24335  1.0000
  C   C76       1.0  0.13301  0.43678  0.32280  1.0000
  C   C77       1.0  0.11782  0.42979  0.16109  1.0000
  C   C78       1.0  0.11471  0.40654  0.08306  1.0000
  C   C79       1.0  0.12263  0.36670  0.08576  1.0000
  C   C80       1.0  0.13367  0.35002  0.16649  1.0000
  H   H49       1.0  0.11247  0.45894  0.15619  1.0000
  H   H50       1.0  0.10688  0.41873  0.02397  1.0000
  H   H51       1.0  0.12052  0.34984  0.02867  1.0000
  H   H52       1.0  0.13957  0.32097  0.16583  1.0000
  N   N13       1.0  0.14219  0.59857  0.29853  1.0000
  N   N14       1.0  0.14979  0.63567  0.29777  1.0000
  H   H53       1.0  0.11396  0.59248  0.01223  1.0000
  H   H54       1.0  0.12803  0.66126  0.01096  1.0000
  N   N15       1.0  0.87452  0.41845  0.29873  1.0000
  N   N16       1.0  0.86689  0.38136  0.29802  1.0000
  H   H55       1.0  0.90363  0.42424  0.01193  1.0000
  H   H56       1.0  0.88952  0.35548  0.01067  1.0000
  C   C81       1.0  0.54035  0.00909  0.33064  1.0000
  C   C82       1.0  0.52490  0.00864  0.24584  1.0000
  C   C83       1.0  0.49207  0.00820  0.24584  1.0000
  C   C84       1.0  0.47662  0.00780  0.33064  1.0000
  C   C85       1.0  0.47620  0.00777  0.16185  1.0000
  C   C86       1.0  0.49236  0.00804  0.07940  1.0000
  C   C87       1.0  0.52461  0.00872  0.07939  1.0000
  C   C88       1.0  0.54077  0.00903  0.16185  1.0000
  H   H57       1.0  0.45268  0.00709  0.15953  1.0000
  H   H58       1.0  0.48061  0.00774  0.01924  1.0000
  H   H59       1.0  0.53636  0.00900  0.01924  1.0000
  H   H60       1.0  0.56429  0.00971  0.15953  1.0000
  C   C89       1.0  0.04032  0.50917  0.33054  1.0000
  C   C90       1.0  0.02490  0.50881  0.24572  1.0000
  C   C91       1.0  0.99206  0.50833  0.24567  1.0000
  C   C92       1.0  0.97660  0.50779  0.33045  1.0000
  C   C93       1.0  0.97620  0.50798  0.16166  1.0000
  C   C94       1.0  0.99238  0.50836  0.07923  1.0000
  C   C95       1.0  0.02463  0.50907  0.07928  1.0000
  C   C96       1.0  0.04077  0.50930  0.16175  1.0000
  H   H61       1.0  0.95269  0.50727  0.15930  1.0000
  H   H62       1.0  0.98064  0.50811  0.01906  1.0000
  H   H63       1.0  0.03638  0.50943  0.01914  1.0000
  H   H64       1.0  0.06429  0.51001  0.15947  1.0000
  N   N17       1.0  0.27348  0.25693  0.30156  1.0000
  N   N18       1.0  0.24345  0.25998  0.30156  1.0000
  H   H65       1.0  0.28625  0.25569  0.02226  1.0000
  H   H66       1.0  0.23070  0.26136  0.02227  1.0000
  N   N19       1.0  0.74344  0.75999  0.30158  1.0000
  N   N20       1.0  0.77346  0.75692  0.30158  1.0000
  H   H67       1.0  0.73068  0.76135  0.02229  1.0000
  H   H68       1.0  0.78623  0.75566  0.02228  1.0000
  C   C97       1.0  0.79078  0.26147  0.32616  1.0000
  C   C98       1.0  0.77491  0.26015  0.24192  1.0000
  C   C99       1.0  0.74201  0.25677  0.24193  1.0000
  C   C100      1.0  0.72613  0.25551  0.32619  1.0000
  C   C101      1.0  0.72626  0.25477  0.15792  1.0000
  C   C102      1.0  0.74239  0.25654  0.07552  1.0000
  C   C103      1.0  0.77452  0.26027  0.07551  1.0000
  C   C104      1.0  0.79065  0.26209  0.15789  1.0000
  H   H69       1.0  0.70282  0.25231  0.15551  1.0000
  H   H70       1.0  0.73070  0.25521  0.01536  1.0000
  H   H71       1.0  0.78621  0.26156  0.01534  1.0000
  H   H72       1.0  0.81409  0.26455  0.15547  1.0000
  C   C105      1.0  0.22610  0.75550  0.32621  1.0000
  C   C106      1.0  0.24197  0.75679  0.24194  1.0000
  C   C107      1.0  0.27487  0.76017  0.24192  1.0000
  C   C108      1.0  0.29076  0.76144  0.32616  1.0000
  C   C109      1.0  0.29061  0.76214  0.15789  1.0000
  C   C110      1.0  0.27447  0.76037  0.07551  1.0000
  C   C111      1.0  0.24235  0.75665  0.07553  1.0000
  C   C112      1.0  0.22622  0.75484  0.15793  1.0000
  H   H73       1.0  0.31406  0.76462  0.15547  1.0000
  H   H74       1.0  0.28616  0.76170  0.01534  1.0000
  H   H75       1.0  0.23065  0.75535  0.01537  1.0000
  H   H76       1.0  0.20278  0.75238  0.15553  1.0000
  C   C113      1.0  0.98117  0.15298  0.34146  1.0000
  N   N21       1.0  0.98179  0.11290  0.33839  1.0000
  C   C114      1.0  0.00845  0.09203  0.34771  1.0000
  N   N22       1.0  0.03522  0.11263  0.35769  1.0000
  C   C115      1.0  0.03573  0.15273  0.35986  1.0000
  N   N23       1.0  0.00846  0.17214  0.35189  1.0000
  C   C116      1.0  0.03570  0.86396  0.34129  1.0000
  N   N24       1.0  0.03509  0.90404  0.33823  1.0000
  C   C117      1.0  0.00843  0.92492  0.34762  1.0000
  N   N25       1.0  0.98166  0.90433  0.35769  1.0000
  C   C118      1.0  0.98114  0.86424  0.35985  1.0000
  N   N26       1.0  0.00840  0.84481  0.35180  1.0000
  C   C119      1.0  0.48116  0.65299  0.34142  1.0000
  N   N27       1.0  0.48179  0.61291  0.33835  1.0000
  C   C120      1.0  0.50845  0.59204  0.34769  1.0000
  N   N28       1.0  0.53521  0.61264  0.35771  1.0000
  C   C121      1.0  0.53572  0.65274  0.35989  1.0000
  N   N29       1.0  0.50845  0.67215  0.35188  1.0000
  C   C122      1.0  0.53573  0.36399  0.34133  1.0000
  N   N30       1.0  0.53511  0.40407  0.33824  1.0000
  C   C123      1.0  0.50844  0.42494  0.34760  1.0000
  N   N31       1.0  0.48168  0.40433  0.35768  1.0000
  C   C124      1.0  0.48118  0.36423  0.35986  1.0000
  N   N32       1.0  0.50845  0.34483  0.35183  1.0000
  C   C125      1.0  0.39785  0.97453  0.36161  1.0000
  N   N33       1.0  0.38219  0.00898  0.35082  1.0000
  C   C126      1.0  0.39782  0.04306  0.33483  1.0000
  N   N34       1.0  0.42896  0.04207  0.32943  1.0000
  C   C127      1.0  0.44466  0.00820  0.34062  1.0000
  N   N35       1.0  0.42902  0.97457  0.35604  1.0000
  C   C128      1.0  0.61909  0.04244  0.36159  1.0000
  N   N36       1.0  0.63477  0.00801  0.35080  1.0000
  C   C129      1.0  0.61918  0.97391  0.33484  1.0000
  N   N37       1.0  0.58803  0.97486  0.32941  1.0000
  C   C130      1.0  0.57231  0.00872  0.34062  1.0000
  N   N38       1.0  0.58793  0.04236  0.35605  1.0000
  C   C131      1.0  0.89783  0.47453  0.36147  1.0000
  N   N39       1.0  0.88217  0.50898  0.35066  1.0000
  C   C132      1.0  0.89779  0.54305  0.33455  1.0000
  N   N40       1.0  0.92894  0.54206  0.32913  1.0000
  C   C133      1.0  0.94464  0.50819  0.34040  1.0000
  N   N41       1.0  0.92900  0.47457  0.35592  1.0000
  C   C134      1.0  0.11910  0.54241  0.36144  1.0000
  N   N42       1.0  0.13475  0.50794  0.35087  1.0000
  C   C135      1.0  0.11911  0.47387  0.33494  1.0000
  N   N43       1.0  0.08797  0.47487  0.32948  1.0000
  C   C136      1.0  0.07228  0.50876  0.34056  1.0000
  N   N44       1.0  0.08794  0.54240  0.35588  1.0000
  C   C137      1.0  0.14120  0.25079  0.36090  1.0000
  N   N45       1.0  0.17156  0.24121  0.37285  1.0000
  C   C138      1.0  0.19425  0.26897  0.36782  1.0000
  N   N46       1.0  0.18608  0.30687  0.35333  1.0000
  C   C139      1.0  0.15627  0.31736  0.34170  1.0000
  N   N47       1.0  0.13416  0.28912  0.34499  1.0000
  C   C140      1.0  0.87572  0.76610  0.36093  1.0000
  N   N48       1.0  0.84537  0.77568  0.37292  1.0000
  C   C141      1.0  0.82266  0.74794  0.36783  1.0000
  N   N49       1.0  0.83083  0.71004  0.35323  1.0000
  C   C142      1.0  0.86063  0.69954  0.34156  1.0000
  N   N50       1.0  0.88274  0.72777  0.34491  1.0000
  C   C143      1.0  0.87581  0.25161  0.34058  1.0000
  N   N51       1.0  0.84539  0.24197  0.33028  1.0000
  C   C144      1.0  0.82264  0.26961  0.33629  1.0000
  N   N52       1.0  0.83081  0.30754  0.35034  1.0000
  C   C145      1.0  0.86065  0.31812  0.36076  1.0000
  N   N53       1.0  0.88281  0.28999  0.35626  1.0000
  C   C146      1.0  0.14107  0.76535  0.34045  1.0000
  N   N54       1.0  0.17150  0.77500  0.33026  1.0000
  C   C147      1.0  0.19424  0.74737  0.33636  1.0000
  N   N55       1.0  0.18607  0.70943  0.35038  1.0000
  C   C148      1.0  0.15623  0.69885  0.36069  1.0000
  N   N56       1.0  0.13407  0.72697  0.35611  1.0000
  C   C149      1.0  0.64118  0.75084  0.36097  1.0000
  N   N57       1.0  0.67153  0.74125  0.37291  1.0000
  C   C150      1.0  0.69423  0.76899  0.36784  1.0000
  N   N58       1.0  0.68607  0.80689  0.35332  1.0000
  C   C151      1.0  0.65626  0.81740  0.34169  1.0000
  N   N59       1.0  0.63415  0.78917  0.34502  1.0000
  C   C152      1.0  0.37574  0.26613  0.36093  1.0000
  N   N60       1.0  0.34539  0.27571  0.37290  1.0000
  C   C153      1.0  0.32269  0.24796  0.36782  1.0000
  N   N61       1.0  0.33086  0.21007  0.35327  1.0000
  C   C154      1.0  0.36066  0.19956  0.34163  1.0000
  N   N62       1.0  0.38277  0.22779  0.34497  1.0000
  C   C155      1.0  0.37578  0.75158  0.34057  1.0000
  N   N63       1.0  0.34536  0.74194  0.33028  1.0000
  C   C156      1.0  0.32262  0.76958  0.33629  1.0000
  N   N64       1.0  0.33078  0.80751  0.35033  1.0000
  C   C157      1.0  0.36062  0.81810  0.36073  1.0000
  N   N65       1.0  0.38278  0.78996  0.35624  1.0000
  C   C158      1.0  0.64110  0.26538  0.34048  1.0000
  N   N66       1.0  0.67153  0.27502  0.33026  1.0000
  C   C159      1.0  0.69427  0.24738  0.33633  1.0000
  N   N67       1.0  0.68610  0.20945  0.35034  1.0000
  C   C160      1.0  0.65625  0.19887  0.36068  1.0000
  N   N68       1.0  0.63410  0.22700  0.35614  1.0000
  N   N69       1.0  0.00844  0.02775  0.41538  1.0000
  N   N70       1.0  0.00827  0.98918  0.41536  1.0000
  N   N71       1.0  0.50847  0.52777  0.41537  1.0000
  N   N72       1.0  0.50831  0.48920  0.41535  1.0000
  C   C161      1.0  0.11662  0.22307  0.36855  1.0000
  C   C162      1.0  0.10888  0.20160  0.44823  1.0000
  C   C163      1.0  0.08207  0.17689  0.44800  1.0000
  C   C164      1.0  0.06368  0.17451  0.36836  1.0000
  C   C165      1.0  0.07365  0.15719  0.52891  1.0000
  C   C166      1.0  0.09082  0.16189  0.60878  1.0000
  C   C167      1.0  0.11686  0.18613  0.60923  1.0000
  C   C168      1.0  0.12586  0.20567  0.52976  1.0000
  H   H77       1.0  0.05442  0.13992  0.53159  1.0000
  H   H78       1.0  0.14461  0.22373  0.53334  1.0000
  C   C169      1.0  0.90031  0.79380  0.36863  1.0000
  C   C170      1.0  0.90802  0.81531  0.44827  1.0000
  C   C171      1.0  0.93481  0.84005  0.44802  1.0000
  C   C172      1.0  0.95319  0.84248  0.36834  1.0000
  C   C173      1.0  0.94322  0.85978  0.52890  1.0000
  C   C174      1.0  0.92604  0.85509  0.60876  1.0000
  C   C175      1.0  0.90002  0.83082  0.60924  1.0000
  C   C176      1.0  0.89103  0.81124  0.52980  1.0000
  H   H79       1.0  0.96241  0.87713  0.53153  1.0000
  H   H80       1.0  0.87230  0.79316  0.53339  1.0000
  N   N73       1.0  0.94639  0.20099  0.39961  1.0000
  N   N74       1.0  0.92200  0.22356  0.39947  1.0000
  N   N75       1.0  0.07045  0.81590  0.39935  1.0000
  N   N76       1.0  0.09485  0.79334  0.39923  1.0000
  C   C177      1.0  0.61660  0.72312  0.36862  1.0000
  C   C178      1.0  0.60889  0.70159  0.44823  1.0000
  C   C179      1.0  0.58209  0.67687  0.44799  1.0000
  C   C180      1.0  0.56367  0.67451  0.36838  1.0000
  C   C181      1.0  0.57369  0.65711  0.52886  1.0000
  C   C182      1.0  0.59089  0.66176  0.60869  1.0000
  C   C183      1.0  0.61691  0.68602  0.60916  1.0000
  C   C184      1.0  0.62589  0.70561  0.52974  1.0000
  H   H81       1.0  0.55447  0.63982  0.53153  1.0000
  H   H82       1.0  0.64463  0.72368  0.53333  1.0000
  C   C185      1.0  0.40034  0.29382  0.36863  1.0000
  C   C186      1.0  0.40806  0.31531  0.44829  1.0000
  C   C187      1.0  0.43486  0.34003  0.44805  1.0000
  C   C188      1.0  0.45324  0.34244  0.36839  1.0000
  C   C189      1.0  0.44328  0.35974  0.52895  1.0000
  C   C190      1.0  0.42610  0.35506  0.60881  1.0000
  C   C191      1.0  0.40008  0.33080  0.60928  1.0000
  C   C192      1.0  0.39108  0.31124  0.52982  1.0000
  H   H83       1.0  0.46248  0.37707  0.53159  1.0000
  H   H84       1.0  0.37234  0.29317  0.53340  1.0000
  N   N77       1.0  0.44638  0.70099  0.39956  1.0000
  N   N78       1.0  0.42198  0.72355  0.39944  1.0000
  N   N79       1.0  0.57049  0.31596  0.39942  1.0000
  N   N80       1.0  0.59489  0.29339  0.39929  1.0000
  N   N81       1.0  0.37243  0.09802  0.39754  1.0000
  N   N82       1.0  0.36476  0.13510  0.39972  1.0000
  N   N83       1.0  0.64441  0.91892  0.39761  1.0000
  N   N84       1.0  0.65204  0.88183  0.39988  1.0000
  C   C193      1.0  0.64870  0.15895  0.37244  1.0000
  C   C194      1.0  0.63927  0.14176  0.45560  1.0000
  C   C195      1.0  0.63109  0.10110  0.45644  1.0000
  C   C196      1.0  0.63318  0.07929  0.37453  1.0000
  C   C197      1.0  0.62147  0.08372  0.53902  1.0000
  C   C198      1.0  0.62029  0.10572  0.61945  1.0000
  C   C199      1.0  0.62849  0.14550  0.61870  1.0000
  C   C200      1.0  0.63781  0.16344  0.53749  1.0000
  H   H85       1.0  0.61577  0.05462  0.54211  1.0000
  H   H86       1.0  0.64373  0.19248  0.53929  1.0000
  C   C201      1.0  0.36818  0.85801  0.37250  1.0000
  C   C202      1.0  0.37771  0.87518  0.45558  1.0000
  C   C203      1.0  0.38590  0.91583  0.45637  1.0000
  C   C204      1.0  0.38376  0.93769  0.37451  1.0000
  C   C205      1.0  0.39560  0.93319  0.53892  1.0000
  C   C206      1.0  0.39684  0.91118  0.61931  1.0000
  C   C207      1.0  0.38863  0.87140  0.61859  1.0000
  C   C208      1.0  0.37924  0.85349  0.53742  1.0000
  H   H87       1.0  0.40131  0.96228  0.54200  1.0000
  H   H88       1.0  0.37329  0.82445  0.53926  1.0000
  N   N85       1.0  0.87239  0.59796  0.39730  1.0000
  N   N86       1.0  0.86472  0.63505  0.39952  1.0000
  N   N87       1.0  0.14446  0.41889  0.39772  1.0000
  N   N88       1.0  0.15213  0.38181  0.39988  1.0000
  C   C209      1.0  0.14869  0.65892  0.37241  1.0000
  C   C210      1.0  0.13938  0.64168  0.45563  1.0000
  C   C211      1.0  0.13123  0.60101  0.45643  1.0000
  C   C212      1.0  0.13323  0.57922  0.37449  1.0000
  C   C213      1.0  0.12170  0.58359  0.53906  1.0000
  C   C214      1.0  0.12059  0.60555  0.61955  1.0000
  C   C215      1.0  0.12878  0.64534  0.61883  1.0000
  C   C216      1.0  0.13800  0.66332  0.53758  1.0000
  H   H89       1.0  0.11602  0.55448  0.54212  1.0000
  H   H90       1.0  0.14390  0.69237  0.53940  1.0000
  C   C217      1.0  0.86820  0.35804  0.37252  1.0000
  C   C218      1.0  0.87772  0.37521  0.45561  1.0000
  C   C219      1.0  0.88590  0.41587  0.45642  1.0000
  C   C220      1.0  0.88373  0.43770  0.37455  1.0000
  C   C221      1.0  0.89561  0.43323  0.53893  1.0000
  C   C222      1.0  0.89687  0.41122  0.61932  1.0000
  C   C223      1.0  0.88867  0.37144  0.61861  1.0000
  C   C224      1.0  0.87928  0.35352  0.53745  1.0000
  H   H91       1.0  0.90131  0.46234  0.54199  1.0000
  H   H92       1.0  0.87335  0.32448  0.53929  1.0000
  N   N89       1.0  0.49350  0.00817  0.40787  1.0000
  N   N90       1.0  0.52348  0.00877  0.40787  1.0000
  N   N91       1.0  0.99346  0.50808  0.40770  1.0000
  N   N92       1.0  0.02344  0.50871  0.40775  1.0000
  C   C225      1.0  0.22611  0.26095  0.37816  1.0000
  C   C226      1.0  0.24201  0.25997  0.46238  1.0000
  C   C227      1.0  0.27493  0.25700  0.46237  1.0000
  C   C228      1.0  0.29083  0.25599  0.37814  1.0000
  C   C229      1.0  0.29069  0.25524  0.54637  1.0000
  C   C230      1.0  0.27455  0.25684  0.62876  1.0000
  C   C231      1.0  0.24240  0.26018  0.62876  1.0000
  C   C232      1.0  0.22625  0.26176  0.54638  1.0000
  H   H93       1.0  0.31416  0.25309  0.54875  1.0000
  H   H94       1.0  0.20278  0.26391  0.54877  1.0000
  C   C233      1.0  0.79081  0.75596  0.37817  1.0000
  C   C234      1.0  0.77491  0.75698  0.46240  1.0000
  C   C235      1.0  0.74199  0.75997  0.46240  1.0000
  C   C236      1.0  0.72609  0.76097  0.37818  1.0000
  C   C237      1.0  0.72623  0.76176  0.54640  1.0000
  C   C238      1.0  0.74238  0.76018  0.62878  1.0000
  C   C239      1.0  0.77453  0.75682  0.62878  1.0000
  C   C240      1.0  0.79067  0.75520  0.54639  1.0000
  H   H95       1.0  0.70277  0.76393  0.54879  1.0000
  H   H96       1.0  0.81414  0.75305  0.54878  1.0000
  N   N93       1.0  0.74346  0.25679  0.40278  1.0000
  N   N94       1.0  0.77346  0.26026  0.40277  1.0000
  N   N95       1.0  0.27344  0.76019  0.40278  1.0000
  N   N96       1.0  0.24344  0.75672  0.40280  1.0000
