data_image0
_chemical_formula_structural       NCHCN5CNCNCNC18H12CNCNCNC18H12C4H2C4H2C2H
_chemical_formula_sum              "N12 C54 H30"
_cell_length_a       29.3223
_cell_length_b       29.3224
_cell_length_c       14.9409
_cell_angle_alpha    90
_cell_angle_beta     90
_cell_angle_gamma    120

_space_group_name_H-M_alt    "P 1"
_space_group_IT_number       1

loop_
  _space_group_symop_operation_xyz
  'x, y, z'

loop_
  _atom_site_type_symbol
  _atom_site_label
  _atom_site_symmetry_multiplicity
  _atom_site_fract_x
  _atom_site_fract_y
  _atom_site_fract_z
  _atom_site_occupancy
  N   N1        1.0  0.02877  0.51489  0.26577  1.0000
  C   C1        1.0  0.03065  0.51582  0.42485  1.0000
  H   H1        1.0  0.05074  0.52585  0.48423  1.0000
  C   C2        1.0  0.05766  0.52932  0.34238  1.0000
  N   N2        1.0  0.49006  0.51489  0.26578  1.0000
  N   N3        1.0  0.51587  0.48908  0.26577  1.0000
  N   N4        1.0  0.49006  0.97617  0.26577  1.0000
  N   N5        1.0  0.51587  0.02778  0.26577  1.0000
  N   N6        1.0  0.97716  0.48908  0.26578  1.0000
  C   C3        1.0  0.36351  0.72305  0.33423  1.0000
  N   N7        1.0  0.38901  0.69500  0.33429  1.0000
  C   C4        1.0  0.36350  0.64144  0.33423  1.0000
  N   N8        1.0  0.30995  0.61594  0.33429  1.0000
  C   C5        1.0  0.28189  0.64144  0.33423  1.0000
  N   N9        1.0  0.30995  0.69500  0.33429  1.0000
  C   C6        1.0  0.39164  0.61331  0.33481  1.0000
  C   C7        1.0  0.44750  0.64016  0.33542  1.0000
  C   C8        1.0  0.47529  0.61253  0.33708  1.0000
  C   C9        1.0  0.44793  0.55701  0.33803  1.0000
  C   C10       1.0  0.39242  0.52965  0.33708  1.0000
  C   C11       1.0  0.36479  0.55745  0.33541  1.0000
  C   C12       1.0  0.39164  0.77931  0.33480  1.0000
  C   C13       1.0  0.44750  0.80833  0.33541  1.0000
  C   C14       1.0  0.47529  0.86375  0.33706  1.0000
  C   C15       1.0  0.44793  0.89190  0.33802  1.0000
  C   C16       1.0  0.39241  0.86375  0.33707  1.0000
  C   C17       1.0  0.36479  0.80833  0.33541  1.0000
  C   C18       1.0  0.22563  0.61331  0.33480  1.0000
  C   C19       1.0  0.19662  0.64016  0.33541  1.0000
  C   C20       1.0  0.14119  0.61253  0.33705  1.0000
  C   C21       1.0  0.11304  0.55701  0.33800  1.0000
  C   C22       1.0  0.14119  0.52965  0.33706  1.0000
  C   C23       1.0  0.19662  0.55745  0.33541  1.0000
  H   H2        1.0  0.51561  0.88333  0.33824  1.0000
  H   H3        1.0  0.46888  0.78945  0.33522  1.0000
  H   H4        1.0  0.37168  0.88333  0.33823  1.0000
  H   H5        1.0  0.32453  0.78945  0.33521  1.0000
  H   H6        1.0  0.21550  0.68042  0.33521  1.0000
  H   H7        1.0  0.12161  0.63326  0.33822  1.0000
  H   H8        1.0  0.21549  0.53607  0.33522  1.0000
  H   H9        1.0  0.12161  0.48934  0.33824  1.0000
  H   H10       1.0  0.32453  0.53607  0.33522  1.0000
  H   H11       1.0  0.37168  0.48934  0.33824  1.0000
  H   H12       1.0  0.51561  0.63326  0.33823  1.0000
  H   H13       1.0  0.46888  0.68042  0.33521  1.0000
  C   C24       1.0  0.64243  0.28090  0.33423  1.0000
  N   N10       1.0  0.61693  0.30896  0.33429  1.0000
  C   C25       1.0  0.64243  0.36251  0.33423  1.0000
  N   N11       1.0  0.69599  0.38802  0.33429  1.0000
  C   C26       1.0  0.72404  0.36251  0.33424  1.0000
  N   N12       1.0  0.69599  0.30896  0.33429  1.0000
  C   C27       1.0  0.61430  0.39065  0.33480  1.0000
  C   C28       1.0  0.55844  0.36380  0.33540  1.0000
  C   C29       1.0  0.53064  0.39143  0.33707  1.0000
  C   C30       1.0  0.55800  0.44694  0.33800  1.0000
  C   C31       1.0  0.61352  0.47430  0.33705  1.0000
  C   C32       1.0  0.64115  0.44650  0.33540  1.0000
  C   C33       1.0  0.61430  0.22464  0.33481  1.0000
  C   C34       1.0  0.55844  0.19563  0.33542  1.0000
  C   C35       1.0  0.53064  0.14020  0.33707  1.0000
  C   C36       1.0  0.55800  0.11205  0.33801  1.0000
  C   C37       1.0  0.61352  0.14020  0.33707  1.0000
  C   C38       1.0  0.64115  0.19563  0.33541  1.0000
  C   C39       1.0  0.78031  0.39065  0.33480  1.0000
  C   C40       1.0  0.80932  0.36380  0.33542  1.0000
  C   C41       1.0  0.86474  0.39143  0.33708  1.0000
  C   C42       1.0  0.89289  0.44694  0.33803  1.0000
  C   C43       1.0  0.86474  0.47430  0.33705  1.0000
  C   C44       1.0  0.80931  0.44651  0.33541  1.0000
  H   H14       1.0  0.49033  0.12062  0.33823  1.0000
  H   H15       1.0  0.53706  0.21451  0.33521  1.0000
  H   H16       1.0  0.63425  0.12062  0.33823  1.0000
  H   H17       1.0  0.68141  0.21451  0.33522  1.0000
  H   H18       1.0  0.79044  0.32354  0.33522  1.0000
  H   H19       1.0  0.88433  0.37069  0.33825  1.0000
  H   H20       1.0  0.79044  0.46789  0.33521  1.0000
  H   H21       1.0  0.88432  0.51462  0.33824  1.0000
  H   H22       1.0  0.68141  0.46789  0.33521  1.0000
  H   H23       1.0  0.63425  0.51462  0.33822  1.0000
  H   H24       1.0  0.49033  0.37069  0.33823  1.0000
  H   H25       1.0  0.53705  0.32354  0.33522  1.0000
  C   C45       1.0  0.53031  0.47463  0.34238  1.0000
  C   C46       1.0  0.51681  0.48813  0.42485  1.0000
  C   C47       1.0  0.48912  0.51582  0.42485  1.0000
  C   C48       1.0  0.47562  0.52932  0.34239  1.0000
  H   H26       1.0  0.47908  0.52585  0.48425  1.0000
  H   H27       1.0  0.52685  0.47809  0.48423  1.0000
  C   C49       1.0  0.53031  0.05667  0.34238  1.0000
  C   C50       1.0  0.51681  0.02966  0.42485  1.0000
  C   C51       1.0  0.48912  0.97429  0.42485  1.0000
  C   C52       1.0  0.47562  0.94729  0.34238  1.0000
  H   H28       1.0  0.47908  0.95421  0.48424  1.0000
  H   H29       1.0  0.52685  0.04974  0.48423  1.0000
  C   C53       1.0  0.94827  0.47463  0.34239  1.0000
  C   C54       1.0  0.97529  0.48813  0.42485  1.0000
  H   H30       1.0  0.95521  0.47809  0.48424  1.0000
