data_image0
_chemical_formula_structural       C4H2CNC3NC5NC2NC35H23C21H18C16H16NC2OCH3NCOCH3NC2OCH3NC2OCH3NCOCH3NC2OCH3C18H17C3NC3NC2NC5NC34H24C3NC3NC5NC5NC36H26CNCOCH3C2NCOCH3CNCOCH3CNCOCH3C2NCOCH3CNCOCH3
_chemical_formula_sum              "C240 H162 N24 O12"
_cell_length_a       58.5789
_cell_length_b       58.5789
_cell_length_c       14.9683
_cell_angle_alpha    89.7732
_cell_angle_beta     90.2268
_cell_angle_gamma    120

_space_group_name_H-M_alt    "P 1"
_space_group_IT_number       1

loop_
  _space_group_symop_operation_xyz
  'x, y, z'

loop_
  _atom_site_type_symbol
  _atom_site_label
  _atom_site_symmetry_multiplicity
  _atom_site_fract_x
  _atom_site_fract_y
  _atom_site_fract_z
  _atom_site_occupancy
  C   C1        1.0  0.02271  0.63319  0.33444  1.0000
  C   C2        1.0  0.01407  0.60622  0.33306  1.0000
  C   C3        1.0  0.01409  0.50780  0.33614  1.0000
  C   C4        1.0  0.02271  0.48945  0.33627  1.0000
  H   H1        1.0  0.01133  0.64190  0.33438  1.0000
  H   H2        1.0  0.01133  0.46936  0.33757  1.0000
  C   C5        1.0  0.04993  0.64679  0.33696  1.0000
  N   N1        1.0  0.03632  0.60453  0.33384  1.0000
  C   C6        1.0  0.05857  0.62846  0.33598  1.0000
  C   C7        1.0  0.08542  0.63485  0.33693  1.0000
  C   C8        1.0  0.09408  0.61611  0.33464  1.0000
  N   N2        1.0  0.07917  0.58954  0.33367  1.0000
  C   C9        1.0  0.09405  0.57786  0.33115  1.0000
  C   C10       1.0  0.12025  0.59829  0.33031  1.0000
  C   C11       1.0  0.12027  0.62184  0.33242  1.0000
  C   C12       1.0  0.08538  0.55047  0.33029  1.0000
  C   C13       1.0  0.05855  0.53002  0.33252  1.0000
  N   N3        1.0  0.03632  0.53174  0.33399  1.0000
  C   C14       1.0  0.04992  0.50305  0.33360  1.0000
  C   C15       1.0  0.98726  0.50142  0.33777  1.0000
  N   N4        1.0  0.99347  0.54671  0.33434  1.0000
  C   C16       1.0  0.97856  0.55837  0.33274  1.0000
  C   C17       1.0  0.95236  0.53791  0.33386  1.0000
  C   C18       1.0  0.95237  0.51436  0.33605  1.0000
  C   C19       1.0  0.98722  0.58577  0.33134  1.0000
  C   C20       1.0  0.96736  0.59305  0.32912  1.0000
  C   C21       1.0  0.95485  0.59268  0.24787  1.0000
  C   C22       1.0  0.93362  0.59753  0.24680  1.0000
  C   C23       1.0  0.92429  0.60293  0.32665  1.0000
  C   C24       1.0  0.90181  0.60645  0.32635  1.0000
  C   C25       1.0  0.85647  0.59239  0.27818  1.0000
  C   C26       1.0  0.87898  0.58962  0.27600  1.0000
  C   C27       1.0  0.96748  0.47428  0.34013  1.0000
  C   C28       1.0  0.95786  0.45986  0.26012  1.0000
  C   C29       1.0  0.93734  0.43345  0.26219  1.0000
  C   C30       1.0  0.92578  0.42067  0.34398  1.0000
  C   C31       1.0  0.90413  0.39417  0.34526  1.0000
  C   C32       1.0  0.90362  0.37458  0.28869  1.0000
  C   C33       1.0  0.88167  0.34892  0.28630  1.0000
  C   C34       1.0  0.85958  0.34193  0.34126  1.0000
  C   C35       1.0  0.10516  0.54310  0.32850  1.0000
  C   C36       1.0  0.14687  0.53120  0.32583  1.0000
  C   C37       1.0  0.13682  0.53575  0.24559  1.0000
  C   C38       1.0  0.11627  0.54161  0.24674  1.0000
  C   C39       1.0  0.16853  0.52636  0.32512  1.0000
  C   C40       1.0  0.19062  0.54109  0.26907  1.0000
  C   C41       1.0  0.21245  0.53719  0.27101  1.0000
  C   C42       1.0  0.21311  0.51870  0.33026  1.0000
  C   C43       1.0  0.10530  0.66198  0.33999  1.0000
  C   C44       1.0  0.11371  0.67718  0.26094  1.0000
  C   C45       1.0  0.13488  0.70329  0.26292  1.0000
  C   C46       1.0  0.14842  0.71490  0.34359  1.0000
  C   C47       1.0  0.17096  0.74085  0.34430  1.0000
  C   C48       1.0  0.21692  0.79217  0.33985  1.0000
  C   C49       1.0  0.19385  0.78694  0.29285  1.0000
  C   C50       1.0  0.17123  0.76172  0.29527  1.0000
  H   H3        1.0  0.19320  0.80153  0.25720  1.0000
  H   H4        1.0  0.15483  0.75879  0.26103  1.0000
  H   H5        1.0  0.14103  0.71336  0.20381  1.0000
  H   H6        1.0  0.10496  0.66910  0.20105  1.0000
  H   H7        1.0  0.06131  0.66688  0.33851  1.0000
  H   H8        1.0  0.03632  0.58812  0.33249  1.0000
  H   H9        1.0  0.03632  0.54815  0.33327  1.0000
  H   H10       1.0  0.13687  0.64001  0.33188  1.0000
  H   H11       1.0  0.13683  0.59668  0.32860  1.0000
  H   H12       1.0  0.10970  0.54513  0.18764  1.0000
  H   H13       1.0  0.14434  0.53478  0.18508  1.0000
  H   H14       1.0  0.06129  0.49433  0.33296  1.0000
  H   H15       1.0  0.93579  0.49617  0.33715  1.0000
  H   H16       1.0  0.96534  0.46866  0.19976  1.0000
  H   H17       1.0  0.93032  0.42393  0.20265  1.0000
  H   H18       1.0  0.88200  0.33537  0.24430  1.0000
  H   H19       1.0  0.91930  0.37880  0.24831  1.0000
  H   H20       1.0  0.87819  0.57457  0.23915  1.0000
  H   H21       1.0  0.84017  0.57942  0.24249  1.0000
  H   H22       1.0  0.92495  0.59697  0.18676  1.0000
  H   H23       1.0  0.96072  0.58829  0.18923  1.0000
  H   H24       1.0  0.19145  0.55552  0.22815  1.0000
  H   H25       1.0  0.22834  0.54877  0.23134  1.0000
  C   C51       1.0  0.52398  0.61208  0.33391  1.0000
  C   C52       1.0  0.50348  0.61775  0.33389  1.0000
  C   C53       1.0  0.47997  0.59415  0.33534  1.0000
  C   C54       1.0  0.50990  0.45855  0.24979  1.0000
  C   C55       1.0  0.50509  0.43249  0.24881  1.0000
  C   C56       1.0  0.51031  0.36050  0.28075  1.0000
  C   C57       1.0  0.51305  0.38577  0.27856  1.0000
  C   C58       1.0  0.64234  0.59474  0.26195  1.0000
  C   C59       1.0  0.66862  0.60019  0.26334  1.0000
  C   C60       1.0  0.72753  0.62448  0.29202  1.0000
  C   C61       1.0  0.75301  0.62774  0.28938  1.0000
  C   C62       1.0  0.75934  0.61112  0.33947  1.0000
  C   C63       1.0  0.56592  0.69716  0.24851  1.0000
  C   C64       1.0  0.56000  0.67072  0.24963  1.0000
  C   C65       1.0  0.56093  0.74576  0.27214  1.0000
  C   C66       1.0  0.56497  0.77154  0.27402  1.0000
  C   C67       1.0  0.42488  0.53246  0.26056  1.0000
  C   C68       1.0  0.39855  0.52686  0.26254  1.0000
  C   C69       1.0  0.30871  0.51764  0.33983  1.0000
  C   C70       1.0  0.31425  0.49979  0.29466  1.0000
  C   C71       1.0  0.33968  0.50288  0.29664  1.0000
  H   H26       1.0  0.29973  0.48417  0.26040  1.0000
  H   H27       1.0  0.34283  0.48949  0.26325  1.0000
  H   H28       1.0  0.38850  0.52312  0.20338  1.0000
  H   H29       1.0  0.43318  0.53242  0.20057  1.0000
  H   H30       1.0  0.46176  0.59250  0.33524  1.0000
  H   H31       1.0  0.55638  0.66074  0.19054  1.0000
  H   H32       1.0  0.56683  0.70576  0.18802  1.0000
  H   H33       1.0  0.60749  0.66308  0.33393  1.0000
  H   H34       1.0  0.63360  0.59401  0.20187  1.0000
  H   H35       1.0  0.67816  0.60305  0.20369  1.0000
  H   H36       1.0  0.76699  0.64262  0.25112  1.0000
  H   H37       1.0  0.72385  0.63703  0.25507  1.0000
  H   H38       1.0  0.52816  0.40015  0.24199  1.0000
  H   H39       1.0  0.52339  0.35731  0.24551  1.0000
  H   H40       1.0  0.50578  0.42454  0.18885  1.0000
  H   H41       1.0  0.51442  0.46897  0.19120  1.0000
  H   H42       1.0  0.54643  0.73228  0.23135  1.0000
  H   H43       1.0  0.55344  0.77600  0.23440  1.0000
  C   C72       1.0  0.64465  0.14781  0.25311  1.0000
  C   C73       1.0  0.67089  0.16870  0.25124  1.0000
  C   C74       1.0  0.74326  0.24540  0.28463  1.0000
  C   C75       1.0  0.71787  0.22307  0.28301  1.0000
  C   C76       1.0  0.50870  0.14447  0.26478  1.0000
  C   C77       1.0  0.50320  0.16527  0.26612  1.0000
  C   C78       1.0  0.47874  0.19967  0.29490  1.0000
  C   C79       1.0  0.47535  0.22181  0.29227  1.0000
  C   C80       1.0  0.40653  0.96467  0.25006  1.0000
  C   C81       1.0  0.43279  0.98556  0.25147  1.0000
  C   C82       1.0  0.35900  0.91027  0.27774  1.0000
  C   C83       1.0  0.33345  0.88814  0.27961  1.0000
  C   C84       1.0  0.57041  0.98897  0.26376  1.0000
  C   C85       1.0  0.57603  0.96825  0.26562  1.0000
  C   C86       1.0  0.60297  0.91085  0.29744  1.0000
  C   C87       1.0  0.59994  0.93323  0.29950  1.0000
  H   H44       1.0  0.61857  0.91199  0.26314  1.0000
  H   H45       1.0  0.61334  0.94982  0.26612  1.0000
  H   H46       1.0  0.57969  0.96203  0.20640  1.0000
  H   H47       1.0  0.57044  0.99745  0.20380  1.0000
  H   H48       1.0  0.44300  0.99178  0.19271  1.0000
  H   H49       1.0  0.39825  0.95654  0.18972  1.0000
  H   H50       1.0  0.50938  0.13653  0.20474  1.0000
  H   H51       1.0  0.50029  0.17201  0.20645  1.0000
  H   H52       1.0  0.46040  0.22090  0.25414  1.0000
  H   H53       1.0  0.46623  0.18348  0.25805  1.0000
  H   H54       1.0  0.70325  0.22436  0.24980  1.0000
  H   H55       1.0  0.74618  0.26207  0.25225  1.0000
  H   H56       1.0  0.67871  0.17749  0.19118  1.0000
  H   H57       1.0  0.63400  0.14222  0.19497  1.0000
  H   H58       1.0  0.37306  0.90922  0.24050  1.0000
  H   H59       1.0  0.32980  0.87187  0.24339  1.0000
  N   N5        1.0  0.24564  0.51154  0.26012  1.0000
  C   C88       1.0  0.26841  0.51072  0.25668  1.0000
  C   C89       1.0  0.28345  0.51558  0.33597  1.0000
  O   O1        1.0  0.27600  0.50584  0.17603  1.0000
  C   C90       1.0  0.28977  0.52890  0.12084  1.0000
  H   H60       1.0  0.29517  0.52311  0.05890  1.0000
  H   H61       1.0  0.30785  0.54389  0.15312  1.0000
  H   H62       1.0  0.27730  0.53730  0.10410  1.0000
  N   N6        1.0  0.59095  0.83045  0.26284  1.0000
  C   C91       1.0  0.59188  0.85410  0.25940  1.0000
  O   O2        1.0  0.59681  0.86674  0.17876  1.0000
  C   C92       1.0  0.57376  0.85766  0.12357  1.0000
  H   H63       1.0  0.57959  0.86897  0.06162  1.0000
  H   H64       1.0  0.55883  0.86077  0.15584  1.0000
  H   H65       1.0  0.56527  0.83681  0.10683  1.0000
  N   N7        1.0  0.27662  0.85201  0.26016  1.0000
  C   C93       1.0  0.25294  0.82936  0.25517  1.0000
  C   C94       1.0  0.24007  0.81723  0.33590  1.0000
  O   O3        1.0  0.24407  0.81701  0.17458  1.0000
  C   C95       1.0  0.23726  0.83134  0.11206  1.0000
  H   H66       1.0  0.22963  0.81950  0.05176  1.0000
  H   H67       1.0  0.25451  0.85011  0.09380  1.0000
  H   H68       1.0  0.22199  0.83494  0.13855  1.0000
  N   N8        1.0  0.82074  0.61436  0.25883  1.0000
  C   C96       1.0  0.79797  0.61520  0.25447  1.0000
  C   C97       1.0  0.78470  0.61353  0.33524  1.0000
  O   O4        1.0  0.78678  0.61399  0.17283  1.0000
  C   C98       1.0  0.80225  0.63651  0.11669  1.0000
  H   H69       1.0  0.79108  0.63422  0.05569  1.0000
  H   H70       1.0  0.82089  0.63782  0.09831  1.0000
  H   H71       1.0  0.80620  0.65484  0.14890  1.0000
  N   N9        1.0  0.48833  0.30281  0.26132  1.0000
  C   C99       1.0  0.48757  0.27926  0.25709  1.0000
  O   O5        1.0  0.48874  0.26941  0.17548  1.0000
  C   C100      1.0  0.46615  0.26235  0.11962  1.0000
  H   H72       1.0  0.46840  0.25356  0.05865  1.0000
  H   H73       1.0  0.46475  0.27966  0.10115  1.0000
  H   H74       1.0  0.44787  0.24789  0.15211  1.0000
  N   N10       1.0  0.79885  0.28341  0.26139  1.0000
  C   C101      1.0  0.82212  0.30648  0.25650  1.0000
  C   C102      1.0  0.83677  0.31666  0.33611  1.0000
  O   O6        1.0  0.82892  0.32087  0.17897  1.0000
  C   C103      1.0  0.83421  0.30847  0.10548  1.0000
  H   H75       1.0  0.84032  0.32189  0.04854  1.0000
  H   H76       1.0  0.81659  0.29013  0.08616  1.0000
  H   H77       1.0  0.85010  0.30448  0.12132  1.0000
  C   C104      1.0  0.97857  0.52013  0.33627  1.0000
  C   C105      1.0  0.93733  0.60373  0.40754  1.0000
  C   C106      1.0  0.95846  0.59873  0.40895  1.0000
  C   C107      1.0  0.90130  0.62636  0.37824  1.0000
  C   C108      1.0  0.87872  0.62901  0.38108  1.0000
  C   C109      1.0  0.85587  0.61188  0.33184  1.0000
  C   C110      1.0  0.93581  0.43530  0.42387  1.0000
  C   C111      1.0  0.95635  0.46172  0.42213  1.0000
  C   C112      1.0  0.86021  0.36110  0.39974  1.0000
  C   C113      1.0  0.88204  0.38683  0.40117  1.0000
  C   C114      1.0  0.11481  0.53837  0.40885  1.0000
  C   C115      1.0  0.13532  0.53246  0.40736  1.0000
  C   C116      1.0  0.19102  0.50363  0.38537  1.0000
  C   C117      1.0  0.16906  0.50732  0.38244  1.0000
  C   C118      1.0  0.11829  0.67352  0.42109  1.0000
  C   C119      1.0  0.13954  0.69958  0.42271  1.0000
  C   C120      1.0  0.19407  0.74635  0.39214  1.0000
  C   C121      1.0  0.21660  0.77163  0.39059  1.0000
  H   H78       1.0  0.23311  0.77463  0.42434  1.0000
  H   H79       1.0  0.19503  0.73176  0.42674  1.0000
  H   H80       1.0  0.14859  0.70722  0.48258  1.0000
  H   H81       1.0  0.11276  0.66282  0.47913  1.0000
  H   H82       1.0  0.10732  0.53969  0.46903  1.0000
  H   H83       1.0  0.14236  0.53000  0.46712  1.0000
  H   H84       1.0  0.93576  0.53948  0.33376  1.0000
  H   H85       1.0  0.96290  0.47182  0.48099  1.0000
  H   H86       1.0  0.92828  0.42683  0.48454  1.0000
  H   H87       1.0  0.88118  0.40045  0.44146  1.0000
  H   H88       1.0  0.84431  0.35680  0.43921  1.0000
  H   H89       1.0  0.96686  0.59861  0.46891  1.0000
  H   H90       1.0  0.93083  0.60685  0.46710  1.0000
  H   H91       1.0  0.87925  0.64378  0.41878  1.0000
  H   H92       1.0  0.91750  0.63930  0.41432  1.0000
  H   H93       1.0  0.15338  0.49587  0.42296  1.0000
  H   H94       1.0  0.19069  0.48975  0.42788  1.0000
  C   C122      1.0  0.45537  0.49895  0.33552  1.0000
  C   C123      1.0  0.46908  0.48545  0.33349  1.0000
  C   C124      1.0  0.49603  0.50387  0.33380  1.0000
  N   N11       1.0  0.49762  0.52776  0.33504  1.0000
  C   C125      1.0  0.47363  0.52595  0.33601  1.0000
  C   C126      1.0  0.46712  0.54633  0.33739  1.0000
  C   C127      1.0  0.48578  0.57375  0.33633  1.0000
  N   N12       1.0  0.51237  0.58550  0.33530  1.0000
  C   C128      1.0  0.55136  0.63086  0.33306  1.0000
  C   C129      1.0  0.57189  0.62457  0.33474  1.0000
  N   N13       1.0  0.57029  0.60068  0.33657  1.0000
  C   C130      1.0  0.59428  0.60248  0.33814  1.0000
  C   C131      1.0  0.61254  0.62947  0.33748  1.0000
  C   C132      1.0  0.59884  0.64299  0.33496  1.0000
  C   C133      1.0  0.60077  0.58211  0.34016  1.0000
  C   C134      1.0  0.58211  0.55470  0.33899  1.0000
  N   N14       1.0  0.55553  0.54295  0.33659  1.0000
  C   C135      1.0  0.54394  0.51638  0.33528  1.0000
  C   C136      1.0  0.56445  0.51073  0.33711  1.0000
  C   C137      1.0  0.58795  0.53431  0.33931  1.0000
  C   C138      1.0  0.51656  0.49759  0.33313  1.0000
  C   C139      1.0  0.50938  0.47048  0.33095  1.0000
  C   C140      1.0  0.49955  0.41756  0.32862  1.0000
  C   C141      1.0  0.49860  0.42960  0.40941  1.0000
  C   C142      1.0  0.50352  0.45570  0.41076  1.0000
  C   C143      1.0  0.49609  0.39159  0.32844  1.0000
  C   C144      1.0  0.47611  0.37103  0.37999  1.0000
  C   C145      1.0  0.47351  0.34582  0.38296  1.0000
  C   C146      1.0  0.49076  0.34027  0.33413  1.0000
  C   C147      1.0  0.62795  0.58952  0.34214  1.0000
  C   C148      1.0  0.68122  0.60040  0.34462  1.0000
  C   C149      1.0  0.66665  0.59541  0.42475  1.0000
  C   C150      1.0  0.64041  0.59008  0.42368  1.0000
  C   C151      1.0  0.70744  0.60454  0.34506  1.0000
  C   C152      1.0  0.73951  0.59163  0.39432  1.0000
  C   C153      1.0  0.71400  0.58831  0.39665  1.0000
  C   C154      1.0  0.55864  0.65799  0.33134  1.0000
  C   C155      1.0  0.56355  0.67226  0.41166  1.0000
  C   C156      1.0  0.56950  0.69869  0.41020  1.0000
  C   C157      1.0  0.57066  0.71166  0.32872  1.0000
  C   C158      1.0  0.57562  0.73820  0.32803  1.0000
  C   C159      1.0  0.58360  0.79055  0.33301  1.0000
  C   C160      1.0  0.59862  0.78334  0.38800  1.0000
  C   C161      1.0  0.59478  0.75763  0.38512  1.0000
  C   C162      1.0  0.43993  0.53889  0.33993  1.0000
  C   C163      1.0  0.42804  0.53931  0.42132  1.0000
  C   C164      1.0  0.38660  0.52777  0.34355  1.0000
  C   C165      1.0  0.40178  0.53391  0.42292  1.0000
  C   C166      1.0  0.36047  0.52381  0.34436  1.0000
  C   C167      1.0  0.35476  0.54133  0.39102  1.0000
  C   C168      1.0  0.32936  0.53824  0.38906  1.0000
  H   H95       1.0  0.32636  0.55184  0.42167  1.0000
  H   H96       1.0  0.36930  0.55711  0.42471  1.0000
  H   H97       1.0  0.39386  0.53461  0.48296  1.0000
  H   H98       1.0  0.43861  0.54415  0.47963  1.0000
  H   H99       1.0  0.43528  0.49016  0.33603  1.0000
  H   H100      1.0  0.46045  0.46536  0.33271  1.0000
  H   H101      1.0  0.51400  0.54421  0.33543  1.0000
  H   H102      1.0  0.55390  0.58423  0.33705  1.0000
  H   H103      1.0  0.50503  0.63591  0.33313  1.0000
  H   H104      1.0  0.56232  0.66334  0.47181  1.0000
  H   H105      1.0  0.57210  0.70811  0.46996  1.0000
  H   H106      1.0  0.63264  0.63825  0.33835  1.0000
  H   H107      1.0  0.56293  0.49257  0.33717  1.0000
  H   H108      1.0  0.60616  0.53596  0.34067  1.0000
  H   H109      1.0  0.63029  0.58609  0.48261  1.0000
  H   H110      1.0  0.67504  0.59556  0.48501  1.0000
  H   H111      1.0  0.70000  0.57329  0.43457  1.0000
  H   H112      1.0  0.74319  0.57901  0.43090  1.0000
  H   H113      1.0  0.50353  0.46408  0.47064  1.0000
  H   H114      1.0  0.49535  0.41982  0.46895  1.0000
  H   H115      1.0  0.45870  0.33146  0.42044  1.0000
  H   H116      1.0  0.46309  0.37417  0.41575  1.0000
  H   H117      1.0  0.60621  0.75326  0.42551  1.0000
  H   H118      1.0  0.61258  0.79677  0.43034  1.0000
  C   C169      1.0  0.60411  0.05275  0.33949  1.0000
  C   C170      1.0  0.61771  0.07997  0.33768  1.0000
  C   C171      1.0  0.59936  0.08860  0.33807  1.0000
  N   N15       1.0  0.57543  0.06635  0.33923  1.0000
  C   C172      1.0  0.57714  0.04411  0.33990  1.0000
  C   C173      1.0  0.55669  0.01726  0.34086  1.0000
  C   C174      1.0  0.52929  0.00858  0.33941  1.0000
  N   N16       1.0  0.51760  0.02347  0.33820  1.0000
  C   C175      1.0  0.49102  0.00856  0.33641  1.0000
  C   C176      1.0  0.48529  0.98237  0.33638  1.0000
  C   C177      1.0  0.50885  0.98238  0.33818  1.0000
  C   C178      1.0  0.47228  0.01721  0.33538  1.0000
  C   C179      1.0  0.47866  0.04406  0.33738  1.0000
  N   N17       1.0  0.50260  0.06630  0.33937  1.0000
  C   C180      1.0  0.50090  0.08854  0.34106  1.0000
  C   C181      1.0  0.47392  0.07990  0.34041  1.0000
  C   C182      1.0  0.46032  0.05269  0.33766  1.0000
  C   C183      1.0  0.52135  0.11539  0.34309  1.0000
  C   C184      1.0  0.54874  0.12407  0.34221  1.0000
  N   N18       1.0  0.56043  0.10918  0.34025  1.0000
  C   C185      1.0  0.58701  0.12409  0.33914  1.0000
  C   C186      1.0  0.59275  0.15028  0.34065  1.0000
  C   C187      1.0  0.56919  0.15027  0.34244  1.0000
  C   C188      1.0  0.60575  0.11544  0.33734  1.0000
  C   C189      1.0  0.63290  0.13527  0.33456  1.0000
  C   C190      1.0  0.68618  0.17752  0.33039  1.0000
  C   C191      1.0  0.67437  0.16444  0.41146  1.0000
  C   C192      1.0  0.64806  0.14368  0.41370  1.0000
  C   C193      1.0  0.71228  0.19973  0.32932  1.0000
  C   C194      1.0  0.73316  0.19949  0.37643  1.0000
  C   C195      1.0  0.75859  0.22185  0.37808  1.0000
  C   C196      1.0  0.76400  0.24533  0.33317  1.0000
  C   C197      1.0  0.51401  0.13521  0.34498  1.0000
  C   C198      1.0  0.50305  0.17755  0.34732  1.0000
  C   C199      1.0  0.50816  0.16791  0.42746  1.0000
  C   C200      1.0  0.51353  0.14702  0.42646  1.0000
  C   C201      1.0  0.49879  0.19956  0.34773  1.0000
  C   C202      1.0  0.49191  0.24470  0.34222  1.0000
  C   C203      1.0  0.51149  0.24439  0.39694  1.0000
  C   C204      1.0  0.51496  0.22229  0.39924  1.0000
  C   C205      1.0  0.44512  0.99737  0.33311  1.0000
  C   C206      1.0  0.43057  0.98811  0.41304  1.0000
  C   C207      1.0  0.40427  0.96730  0.41129  1.0000
  C   C208      1.0  0.39181  0.95502  0.32993  1.0000
  C   C209      1.0  0.36555  0.93299  0.32910  1.0000
  C   C210      1.0  0.31352  0.88780  0.33367  1.0000
  C   C211      1.0  0.31984  0.91069  0.38346  1.0000
  C   C212      1.0  0.34537  0.93284  0.38133  1.0000
  C   C213      1.0  0.56405  0.99745  0.34322  1.0000
  C   C214      1.0  0.56367  0.98499  0.42458  1.0000
  C   C215      1.0  0.57514  0.95523  0.34660  1.0000
  C   C216      1.0  0.56906  0.96412  0.42608  1.0000
  C   C217      1.0  0.57904  0.93302  0.34730  1.0000
  C   C218      1.0  0.56149  0.90971  0.39394  1.0000
  C   C219      1.0  0.56450  0.88736  0.39184  1.0000
  C   C220      1.0  0.58509  0.88738  0.34260  1.0000
  H   H119      1.0  0.55089  0.87071  0.42449  1.0000
  H   H120      1.0  0.54573  0.90844  0.42766  1.0000
  H   H121      1.0  0.56839  0.95538  0.48608  1.0000
  H   H122      1.0  0.55890  0.99063  0.48296  1.0000
  H   H123      1.0  0.61284  0.04139  0.33978  1.0000
  H   H124      1.0  0.63780  0.09135  0.33681  1.0000
  H   H125      1.0  0.55900  0.06634  0.33965  1.0000
  H   H126      1.0  0.51902  0.06631  0.33956  1.0000
  H   H127      1.0  0.51045  0.96580  0.33812  1.0000
  H   H128      1.0  0.46711  0.96577  0.33549  1.0000
  H   H129      1.0  0.43920  0.99604  0.47320  1.0000
  H   H130      1.0  0.39463  0.96056  0.47080  1.0000
  H   H131      1.0  0.44023  0.04130  0.33643  1.0000
  H   H132      1.0  0.46521  0.09127  0.34122  1.0000
  H   H133      1.0  0.61093  0.16688  0.34074  1.0000
  H   H134      1.0  0.56759  0.16685  0.34347  1.0000
  H   H135      1.0  0.51755  0.14081  0.48540  1.0000
  H   H136      1.0  0.50803  0.17604  0.48768  1.0000
  H   H137      1.0  0.53007  0.22334  0.43693  1.0000
  H   H138      1.0  0.52411  0.26067  0.43329  1.0000
  H   H139      1.0  0.63986  0.13515  0.47372  1.0000
  H   H140      1.0  0.68451  0.17059  0.47046  1.0000
  H   H141      1.0  0.77318  0.22070  0.41191  1.0000
  H   H142      1.0  0.73010  0.18288  0.40955  1.0000
  H   H143      1.0  0.34904  0.94903  0.41804  1.0000
  H   H144      1.0  0.30580  0.91160  0.42110  1.0000
  C   C221      1.0  0.23592  0.51622  0.33581  1.0000
  N   N19       1.0  0.27377  0.52073  0.41102  1.0000
  C   C222      1.0  0.25050  0.52054  0.41560  1.0000
  O   O7        1.0  0.24366  0.52805  0.49289  1.0000
  C   C223      1.0  0.23837  0.51030  0.56666  1.0000
  H   H145      1.0  0.23222  0.51754  0.62336  1.0000
  H   H146      1.0  0.25599  0.50958  0.58624  1.0000
  H   H147      1.0  0.22249  0.49042  0.55100  1.0000
  C   C224      1.0  0.58622  0.81588  0.33854  1.0000
  C   C225      1.0  0.58707  0.86415  0.33870  1.0000
  N   N20       1.0  0.58190  0.84918  0.41376  1.0000
  C   C226      1.0  0.58199  0.82605  0.41836  1.0000
  O   O8        1.0  0.57445  0.81155  0.49567  1.0000
  C   C227      1.0  0.59222  0.82383  0.56941  1.0000
  H   H148      1.0  0.58496  0.81034  0.62613  1.0000
  H   H149      1.0  0.59299  0.84216  0.58898  1.0000
  H   H150      1.0  0.61208  0.82781  0.55372  1.0000
  C   C228      1.0  0.28809  0.86487  0.33746  1.0000
  N   N21       1.0  0.25171  0.82972  0.41339  1.0000
  C   C229      1.0  0.27449  0.85332  0.41796  1.0000
  O   O9        1.0  0.28534  0.86329  0.49983  1.0000
  C   C230      1.0  0.26963  0.87032  0.55434  1.0000
  H   H151      1.0  0.28056  0.87925  0.61558  1.0000
  H   H152      1.0  0.25094  0.85296  0.57250  1.0000
  H   H153      1.0  0.26574  0.88465  0.52088  1.0000
  C   C231      1.0  0.83269  0.61379  0.33617  1.0000
  N   N22       1.0  0.79644  0.61240  0.41244  1.0000
  C   C232      1.0  0.82011  0.61339  0.41710  1.0000
  O   O10       1.0  0.82923  0.61019  0.49786  1.0000
  C   C233      1.0  0.83568  0.63125  0.55989  1.0000
  H   H154      1.0  0.84365  0.62733  0.62018  1.0000
  H   H155      1.0  0.81819  0.63227  0.57833  1.0000
  H   H156      1.0  0.85057  0.65027  0.53282  1.0000
  C   C234      1.0  0.48891  0.31521  0.33860  1.0000
  C   C235      1.0  0.48937  0.26759  0.33791  1.0000
  N   N23       1.0  0.49051  0.28034  0.41505  1.0000
  C   C236      1.0  0.48942  0.30296  0.41960  1.0000
  O   O11       1.0  0.49263  0.31516  0.50026  1.0000
  C   C237      1.0  0.47156  0.30048  0.56229  1.0000
  H   H157      1.0  0.47550  0.31228  0.62251  1.0000
  H   H158      1.0  0.47051  0.28192  0.58083  1.0000
  H   H159      1.0  0.45255  0.29643  0.53517  1.0000
  C   C238      1.0  0.78924  0.26854  0.33669  1.0000
  N   N24       1.0  0.82712  0.30219  0.41202  1.0000
  C   C239      1.0  0.80435  0.27861  0.41581  1.0000
  O   O12       1.0  0.79681  0.26605  0.49659  1.0000
  C   C240      1.0  0.78290  0.27514  0.55147  1.0000
  H   H160      1.0  0.77758  0.26390  0.61358  1.0000
  H   H161      1.0  0.76477  0.27193  0.51909  1.0000
  H   H162      1.0  0.79524  0.29601  0.56792  1.0000
