data_image0
_chemical_formula_structural       NC2HCNHCNHCHC24H15C24H15C2NCHC2NCHNC
_chemical_formula_sum              "N6 C60 H36"
_cell_length_a       29.9181
_cell_length_b       29.9181
_cell_length_c       14.9082
_cell_angle_alpha    90
_cell_angle_beta     90
_cell_angle_gamma    120

_space_group_name_H-M_alt    "P 1"
_space_group_IT_number       1

loop_
  _space_group_symop_operation_xyz
  'x, y, z'

loop_
  _atom_site_type_symbol
  _atom_site_label
  _atom_site_symmetry_multiplicity
  _atom_site_fract_x
  _atom_site_fract_y
  _atom_site_fract_z
  _atom_site_occupancy
  N   N1        1.0  0.03180  0.51667  0.26190  1.0000
  C   C1        1.0  0.05826  0.52990  0.34068  1.0000
  C   C2        1.0  0.02980  0.51567  0.42135  1.0000
  H   H1        1.0  0.04773  0.52463  0.48242  1.0000
  C   C3        1.0  0.51721  0.49049  0.25777  1.0000
  N   N2        1.0  0.49103  0.51667  0.26190  1.0000
  H   H2        1.0  0.52617  0.48152  0.19670  1.0000
  C   C4        1.0  0.51721  0.02826  0.25777  1.0000
  N   N3        1.0  0.49103  0.97589  0.26190  1.0000
  H   H3        1.0  0.52618  0.04619  0.19670  1.0000
  C   C5        1.0  0.97943  0.49048  0.25777  1.0000
  H   H4        1.0  0.96151  0.48152  0.19670  1.0000
  C   C6        1.0  0.28159  0.64156  0.33923  1.0000
  C   C7        1.0  0.31135  0.61654  0.33925  1.0000
  C   C8        1.0  0.36613  0.64156  0.33923  1.0000
  C   C9        1.0  0.39116  0.69635  0.33925  1.0000
  C   C10       1.0  0.36613  0.72611  0.33923  1.0000
  C   C11       1.0  0.31135  0.69635  0.33925  1.0000
  C   C12       1.0  0.39458  0.61312  0.33924  1.0000
  C   C13       1.0  0.36945  0.55802  0.33925  1.0000
  C   C14       1.0  0.39638  0.53062  0.33952  1.0000
  C   C15       1.0  0.45061  0.55709  0.33984  1.0000
  C   C16       1.0  0.47708  0.61131  0.33952  1.0000
  C   C17       1.0  0.44968  0.63825  0.33925  1.0000
  C   C18       1.0  0.22470  0.61312  0.33924  1.0000
  C   C19       1.0  0.19473  0.55802  0.33925  1.0000
  C   C20       1.0  0.14040  0.53062  0.33952  1.0000
  C   C21       1.0  0.11264  0.55709  0.33984  1.0000
  C   C22       1.0  0.14040  0.61132  0.33952  1.0000
  C   C23       1.0  0.19473  0.63825  0.33925  1.0000
  C   C24       1.0  0.39458  0.78299  0.33924  1.0000
  C   C25       1.0  0.36945  0.81297  0.33925  1.0000
  C   C26       1.0  0.39638  0.86730  0.33951  1.0000
  C   C27       1.0  0.45061  0.89505  0.33984  1.0000
  C   C28       1.0  0.47708  0.86730  0.33951  1.0000
  C   C29       1.0  0.44968  0.81297  0.33925  1.0000
  H   H5        1.0  0.12122  0.49108  0.33970  1.0000
  H   H6        1.0  0.21124  0.53548  0.33917  1.0000
  H   H7        1.0  0.12122  0.63167  0.33970  1.0000
  H   H8        1.0  0.21123  0.67729  0.33917  1.0000
  H   H9        1.0  0.33040  0.79646  0.33917  1.0000
  H   H10       1.0  0.37602  0.88648  0.33970  1.0000
  H   H11       1.0  0.47222  0.79646  0.33917  1.0000
  H   H12       1.0  0.51661  0.88648  0.33970  1.0000
  H   H13       1.0  0.47222  0.67729  0.33917  1.0000
  H   H14       1.0  0.51661  0.63167  0.33970  1.0000
  H   H15       1.0  0.37602  0.49108  0.33970  1.0000
  H   H16       1.0  0.33040  0.53548  0.33917  1.0000
  H   H17       1.0  0.29201  0.57786  0.33931  1.0000
  H   H18       1.0  0.29201  0.71568  0.33931  1.0000
  H   H19       1.0  0.42983  0.71568  0.33931  1.0000
  C   C30       1.0  0.72765  0.36459  0.33974  1.0000
  C   C31       1.0  0.69789  0.38962  0.33972  1.0000
  C   C32       1.0  0.64310  0.36459  0.33974  1.0000
  C   C33       1.0  0.61808  0.30981  0.33972  1.0000
  C   C34       1.0  0.64310  0.28005  0.33974  1.0000
  C   C35       1.0  0.69789  0.30981  0.33972  1.0000
  C   C36       1.0  0.61466  0.39304  0.33976  1.0000
  C   C37       1.0  0.63979  0.44814  0.33977  1.0000
  C   C38       1.0  0.61285  0.47554  0.33956  1.0000
  C   C39       1.0  0.55863  0.44906  0.33927  1.0000
  C   C40       1.0  0.53216  0.39484  0.33956  1.0000
  C   C41       1.0  0.55956  0.36790  0.33977  1.0000
  C   C42       1.0  0.78454  0.39304  0.33976  1.0000
  C   C43       1.0  0.81451  0.44814  0.33977  1.0000
  C   C44       1.0  0.86884  0.47554  0.33956  1.0000
  C   C45       1.0  0.89659  0.44906  0.33927  1.0000
  C   C46       1.0  0.86884  0.39484  0.33956  1.0000
  C   C47       1.0  0.81451  0.36790  0.33977  1.0000
  C   C48       1.0  0.61466  0.22316  0.33976  1.0000
  C   C49       1.0  0.63979  0.19319  0.33977  1.0000
  C   C50       1.0  0.61286  0.13886  0.33956  1.0000
  C   C51       1.0  0.55863  0.11110  0.33927  1.0000
  C   C52       1.0  0.53216  0.13886  0.33957  1.0000
  C   C53       1.0  0.55956  0.19319  0.33977  1.0000
  H   H20       1.0  0.88802  0.51507  0.33938  1.0000
  H   H21       1.0  0.79800  0.47068  0.33983  1.0000
  H   H22       1.0  0.88802  0.37448  0.33938  1.0000
  H   H23       1.0  0.79800  0.32886  0.33984  1.0000
  H   H24       1.0  0.67883  0.20969  0.33983  1.0000
  H   H25       1.0  0.63321  0.11968  0.33939  1.0000
  H   H26       1.0  0.53702  0.20969  0.33983  1.0000
  H   H27       1.0  0.49262  0.11968  0.33938  1.0000
  H   H28       1.0  0.53702  0.32886  0.33984  1.0000
  H   H29       1.0  0.49262  0.37448  0.33938  1.0000
  H   H30       1.0  0.63321  0.51507  0.33938  1.0000
  H   H31       1.0  0.67883  0.47068  0.33984  1.0000
  H   H32       1.0  0.71723  0.42830  0.33966  1.0000
  H   H33       1.0  0.71723  0.29047  0.33966  1.0000
  H   H34       1.0  0.57940  0.29047  0.33966  1.0000
  C   C54       1.0  0.47779  0.52990  0.34068  1.0000
  C   C55       1.0  0.49203  0.51567  0.42135  1.0000
  N   N4        1.0  0.51821  0.48949  0.41722  1.0000
  C   C56       1.0  0.53144  0.47625  0.33844  1.0000
  H   H35       1.0  0.48306  0.52463  0.48242  1.0000
  C   C57       1.0  0.47780  0.94943  0.34068  1.0000
  C   C58       1.0  0.49203  0.97789  0.42135  1.0000
  N   N5        1.0  0.51821  0.03026  0.41722  1.0000
  C   C59       1.0  0.53144  0.05672  0.33845  1.0000
  H   H36       1.0  0.48306  0.95996  0.48242  1.0000
  N   N6        1.0  0.97743  0.48949  0.41722  1.0000
  C   C60       1.0  0.95097  0.47625  0.33844  1.0000
