data_image0
_chemical_formula_structural       C2H4C2H2C2H2NC18H12NC18H12C4NC2NC4NC2NH2C4NC2NH2C2H4C2H2C2H2NC18H12NC18H12C4NC2NC4NC2NH2C4NC2NH2C2H4C2H2C2H2NC18H12NC18H12C4NC2NC4NC2NH2C4NC2NH2C2H4C2H2C2H2NC18H12NC18H12C4NC2NC4NC2NH2C4NC2NH2
_chemical_formula_sum              "C240 H144 N32"
_cell_length_a       50.5496
_cell_length_b       50.5496
_cell_length_c       14.6228
_cell_angle_alpha    90
_cell_angle_beta     90
_cell_angle_gamma    120

_space_group_name_H-M_alt    "P 1"
_space_group_IT_number       1

loop_
  _space_group_symop_operation_xyz
  'x, y, z'

loop_
  _atom_site_type_symbol
  _atom_site_label
  _atom_site_symmetry_multiplicity
  _atom_site_fract_x
  _atom_site_fract_y
  _atom_site_fract_z
  _atom_site_occupancy
  C   C1        1.0  0.26060  0.27353  0.28413  1.0000
  C   C2        1.0  0.27667  0.25729  0.28387  1.0000
  H   H1        1.0  0.25456  0.27907  0.00598  1.0000
  H   H2        1.0  0.28609  0.25458  0.00539  1.0000
  H   H3        1.0  0.28125  0.25116  0.22174  1.0000
  H   H4        1.0  0.25552  0.27921  0.22205  1.0000
  C   C3        1.0  0.25015  0.49776  0.28614  1.0000
  C   C4        1.0  0.26643  0.03008  0.28731  1.0000
  H   H5        1.0  0.26325  0.04109  0.23340  1.0000
  H   H6        1.0  0.23619  0.48705  0.23150  1.0000
  C   C5        1.0  0.03300  0.28173  0.29414  1.0000
  C   C6        1.0  0.50069  0.26554  0.29390  1.0000
  H   H7        1.0  0.48979  0.26787  0.23811  1.0000
  H   H8        1.0  0.04376  0.29508  0.23851  1.0000
  N   N1        1.0  0.18364  0.34741  0.35387  1.0000
  C   C7        1.0  0.20056  0.33129  0.35640  1.0000
  C   C8        1.0  0.19985  0.38040  0.35394  1.0000
  C   C9        1.0  0.15067  0.33087  0.35824  1.0000
  C   C10       1.0  0.13269  0.31730  0.27943  1.0000
  C   C11       1.0  0.10036  0.30079  0.28316  1.0000
  C   C12       1.0  0.08393  0.29761  0.36527  1.0000
  C   C13       1.0  0.10230  0.31230  0.44320  1.0000
  C   C14       1.0  0.13461  0.32785  0.44033  1.0000
  C   C15       1.0  0.22293  0.33759  0.42418  1.0000
  C   C16       1.0  0.24007  0.32241  0.42590  1.0000
  C   C17       1.0  0.23503  0.29893  0.36271  1.0000
  C   C18       1.0  0.21255  0.29286  0.29485  1.0000
  C   C19       1.0  0.19623  0.30885  0.29086  1.0000
  C   C20       1.0  0.21650  0.39748  0.27675  1.0000
  C   C21       1.0  0.23313  0.42987  0.27791  1.0000
  C   C22       1.0  0.23414  0.44690  0.35650  1.0000
  C   C23       1.0  0.21705  0.42954  0.43313  1.0000
  C   C24       1.0  0.20068  0.39726  0.43222  1.0000
  H   H9        1.0  0.25693  0.32933  0.47386  1.0000
  H   H10       1.0  0.22744  0.35405  0.47209  1.0000
  H   H11       1.0  0.18061  0.30352  0.23982  1.0000
  H   H12       1.0  0.20737  0.27614  0.24729  1.0000
  H   H13       1.0  0.14317  0.31929  0.21802  1.0000
  H   H14       1.0  0.08883  0.29071  0.22423  1.0000
  H   H15       1.0  0.21680  0.38624  0.21897  1.0000
  H   H16       1.0  0.24524  0.44103  0.22077  1.0000
  H   H17       1.0  0.21621  0.44036  0.49121  1.0000
  H   H18       1.0  0.18958  0.38608  0.49035  1.0000
  H   H19       1.0  0.14644  0.33713  0.49934  1.0000
  H   H20       1.0  0.09230  0.31229  0.50389  1.0000
  N   N2        1.0  0.35065  0.18041  0.35539  1.0000
  C   C25       1.0  0.33409  0.19692  0.35711  1.0000
  C   C26       1.0  0.33468  0.14743  0.35620  1.0000
  C   C27       1.0  0.38358  0.19693  0.35925  1.0000
  C   C28       1.0  0.39953  0.21417  0.43700  1.0000
  C   C29       1.0  0.43187  0.23073  0.43996  1.0000
  C   C30       1.0  0.45004  0.23080  0.36567  1.0000
  C   C31       1.0  0.43380  0.21376  0.28748  1.0000
  C   C32       1.0  0.40148  0.19733  0.28430  1.0000
  C   C33       1.0  0.31214  0.19187  0.42514  1.0000
  C   C34       1.0  0.29600  0.20801  0.42601  1.0000
  C   C35       1.0  0.30180  0.23144  0.36194  1.0000
  C   C36       1.0  0.32386  0.23634  0.29367  1.0000
  C   C37       1.0  0.33924  0.21935  0.29063  1.0000
  C   C38       1.0  0.32280  0.13077  0.43810  1.0000
  C   C39       1.0  0.30629  0.09847  0.43907  1.0000
  C   C40       1.0  0.30205  0.08071  0.35924  1.0000
  C   C41       1.0  0.31453  0.09775  0.27750  1.0000
  C   C42       1.0  0.33007  0.13012  0.27576  1.0000
  H   H21       1.0  0.27937  0.20193  0.47439  1.0000
  H   H22       1.0  0.30722  0.17589  0.47463  1.0000
  H   H23       1.0  0.35497  0.22399  0.24017  1.0000
  H   H24       1.0  0.32946  0.25296  0.24547  1.0000
  H   H25       1.0  0.38750  0.21488  0.49223  1.0000
  H   H26       1.0  0.44215  0.24329  0.49725  1.0000
  H   H27       1.0  0.32590  0.14219  0.49834  1.0000
  H   H28       1.0  0.29693  0.08803  0.49986  1.0000
  H   H29       1.0  0.31271  0.08664  0.21739  1.0000
  H   H30       1.0  0.33819  0.14112  0.21481  1.0000
  H   H31       1.0  0.39099  0.18559  0.22610  1.0000
  H   H32       1.0  0.44550  0.21273  0.23180  1.0000
  C   C43       1.0  0.28581  0.24885  0.36539  1.0000
  C   C44       1.0  0.27780  0.25810  0.44812  1.0000
  C   C45       1.0  0.26074  0.27382  0.44840  1.0000
  C   C46       1.0  0.25188  0.28234  0.36589  1.0000
  N   N3        1.0  0.25285  0.28005  0.53139  1.0000
  C   C47       1.0  0.26101  0.27350  0.61280  1.0000
  C   C48       1.0  0.27908  0.25968  0.61246  1.0000
  N   N4        1.0  0.28647  0.25251  0.53079  1.0000
  C   C49       1.0  0.28580  0.04729  0.36079  1.0000
  C   C50       1.0  0.28796  0.02970  0.43367  1.0000
  C   C51       1.0  0.27117  0.49694  0.43305  1.0000
  C   C52       1.0  0.25171  0.48012  0.35904  1.0000
  N   N5        1.0  0.27509  0.48214  0.50512  1.0000
  C   C53       1.0  0.29349  0.49642  0.57744  1.0000
  C   C54       1.0  0.31010  0.02842  0.57794  1.0000
  N   N6        1.0  0.30680  0.04350  0.50628  1.0000
  H   H33       1.0  0.29538  0.48405  0.62964  1.0000
  H   H34       1.0  0.32450  0.04019  0.63053  1.0000
  C   C55       1.0  0.48329  0.24731  0.36872  1.0000
  C   C56       1.0  0.50040  0.24597  0.44403  1.0000
  C   C57       1.0  0.03318  0.26205  0.44371  1.0000
  C   C58       1.0  0.05051  0.28066  0.36856  1.0000
  N   N7        1.0  0.04727  0.25816  0.51769  1.0000
  C   C59       1.0  0.03245  0.24083  0.59141  1.0000
  C   C60       1.0  0.50045  0.22538  0.59180  1.0000
  N   N8        1.0  0.48587  0.22833  0.51821  1.0000
  H   H35       1.0  0.04443  0.23904  0.64495  1.0000
  H   H36       1.0  0.48829  0.21188  0.64559  1.0000
  C   C61       1.0  0.26060  0.77353  0.28413  1.0000
  C   C62       1.0  0.27667  0.75729  0.28387  1.0000
  H   H37       1.0  0.25456  0.77907  0.00598  1.0000
  H   H38       1.0  0.28609  0.75458  0.00539  1.0000
  H   H39       1.0  0.28124  0.75115  0.22175  1.0000
  H   H40       1.0  0.25552  0.77921  0.22206  1.0000
  C   C63       1.0  0.25016  0.99776  0.28614  1.0000
  C   C64       1.0  0.26642  0.53008  0.28732  1.0000
  H   H41       1.0  0.26325  0.54109  0.23340  1.0000
  H   H42       1.0  0.23620  0.98705  0.23150  1.0000
  C   C65       1.0  0.03300  0.78172  0.29414  1.0000
  C   C66       1.0  0.50069  0.76554  0.29390  1.0000
  H   H43       1.0  0.48979  0.76786  0.23811  1.0000
  H   H44       1.0  0.04376  0.79507  0.23850  1.0000
  N   N9        1.0  0.18364  0.84741  0.35387  1.0000
  C   C67       1.0  0.20056  0.83129  0.35640  1.0000
  C   C68       1.0  0.19985  0.88040  0.35395  1.0000
  C   C69       1.0  0.15067  0.83087  0.35825  1.0000
  C   C70       1.0  0.13269  0.81730  0.27943  1.0000
  C   C71       1.0  0.10036  0.80079  0.28316  1.0000
  C   C72       1.0  0.08393  0.79761  0.36528  1.0000
  C   C73       1.0  0.10230  0.81230  0.44320  1.0000
  C   C74       1.0  0.13461  0.82785  0.44034  1.0000
  C   C75       1.0  0.22293  0.83759  0.42419  1.0000
  C   C76       1.0  0.24007  0.82241  0.42590  1.0000
  C   C77       1.0  0.23503  0.79893  0.36272  1.0000
  C   C78       1.0  0.21255  0.79286  0.29485  1.0000
  C   C79       1.0  0.19622  0.80885  0.29086  1.0000
  C   C80       1.0  0.21650  0.89748  0.27675  1.0000
  C   C81       1.0  0.23313  0.92987  0.27792  1.0000
  C   C82       1.0  0.23414  0.94690  0.35650  1.0000
  C   C83       1.0  0.21705  0.92954  0.43313  1.0000
  C   C84       1.0  0.20068  0.89726  0.43222  1.0000
  H   H45       1.0  0.25693  0.82933  0.47386  1.0000
  H   H46       1.0  0.22744  0.85405  0.47209  1.0000
  H   H47       1.0  0.18061  0.80352  0.23982  1.0000
  H   H48       1.0  0.20737  0.77614  0.24729  1.0000
  H   H49       1.0  0.14317  0.81929  0.21803  1.0000
  H   H50       1.0  0.08883  0.79071  0.22424  1.0000
  H   H51       1.0  0.21680  0.88624  0.21897  1.0000
  H   H52       1.0  0.24524  0.94103  0.22078  1.0000
  H   H53       1.0  0.21621  0.94036  0.49121  1.0000
  H   H54       1.0  0.18957  0.88609  0.49035  1.0000
  H   H55       1.0  0.14644  0.83712  0.49934  1.0000
  H   H56       1.0  0.09230  0.81229  0.50389  1.0000
  N   N10       1.0  0.35065  0.68041  0.35540  1.0000
  C   C85       1.0  0.33409  0.69692  0.35711  1.0000
  C   C86       1.0  0.33468  0.64743  0.35620  1.0000
  C   C87       1.0  0.38358  0.69693  0.35925  1.0000
  C   C88       1.0  0.39953  0.71417  0.43700  1.0000
  C   C89       1.0  0.43188  0.73073  0.43996  1.0000
  C   C90       1.0  0.45004  0.73080  0.36567  1.0000
  C   C91       1.0  0.43380  0.71375  0.28749  1.0000
  C   C92       1.0  0.40148  0.69733  0.28431  1.0000
  C   C93       1.0  0.31214  0.69187  0.42514  1.0000
  C   C94       1.0  0.29600  0.70801  0.42601  1.0000
  C   C95       1.0  0.30180  0.73144  0.36195  1.0000
  C   C96       1.0  0.32386  0.73634  0.29367  1.0000
  C   C97       1.0  0.33924  0.71935  0.29063  1.0000
  C   C98       1.0  0.32281  0.63077  0.43810  1.0000
  C   C99       1.0  0.30629  0.59847  0.43907  1.0000
  C   C100      1.0  0.30205  0.58071  0.35925  1.0000
  C   C101      1.0  0.31453  0.59775  0.27750  1.0000
  C   C102      1.0  0.33006  0.63012  0.27576  1.0000
  H   H57       1.0  0.27937  0.70192  0.47439  1.0000
  H   H58       1.0  0.30722  0.67588  0.47463  1.0000
  H   H59       1.0  0.35497  0.72399  0.24017  1.0000
  H   H60       1.0  0.32946  0.75296  0.24547  1.0000
  H   H61       1.0  0.38750  0.71488  0.49223  1.0000
  H   H62       1.0  0.44215  0.74330  0.49725  1.0000
  H   H63       1.0  0.32590  0.64219  0.49835  1.0000
  H   H64       1.0  0.29693  0.58803  0.49986  1.0000
  H   H65       1.0  0.31271  0.58664  0.21739  1.0000
  H   H66       1.0  0.33819  0.64112  0.21481  1.0000
  H   H67       1.0  0.39099  0.68559  0.22611  1.0000
  H   H68       1.0  0.44550  0.71273  0.23180  1.0000
  C   C103      1.0  0.28581  0.74885  0.36540  1.0000
  C   C104      1.0  0.27780  0.75810  0.44813  1.0000
  C   C105      1.0  0.26074  0.77382  0.44840  1.0000
  C   C106      1.0  0.25188  0.78234  0.36589  1.0000
  N   N11       1.0  0.25285  0.78005  0.53140  1.0000
  C   C107      1.0  0.26101  0.77350  0.61280  1.0000
  C   C108      1.0  0.27908  0.75968  0.61247  1.0000
  N   N12       1.0  0.28647  0.75250  0.53079  1.0000
  C   C109      1.0  0.28580  0.54729  0.36079  1.0000
  C   C110      1.0  0.28796  0.52970  0.43367  1.0000
  C   C111      1.0  0.27117  0.99694  0.43305  1.0000
  C   C112      1.0  0.25171  0.98012  0.35903  1.0000
  N   N13       1.0  0.27508  0.98214  0.50513  1.0000
  C   C113      1.0  0.29348  0.99642  0.57745  1.0000
  C   C114      1.0  0.31010  0.52842  0.57793  1.0000
  N   N14       1.0  0.30681  0.54350  0.50627  1.0000
  H   H69       1.0  0.29537  0.98405  0.62965  1.0000
  H   H70       1.0  0.32451  0.54019  0.63052  1.0000
  C   C115      1.0  0.48329  0.74731  0.36873  1.0000
  C   C116      1.0  0.50040  0.74597  0.44403  1.0000
  C   C117      1.0  0.03318  0.76205  0.44372  1.0000
  C   C118      1.0  0.05051  0.78066  0.36856  1.0000
  N   N15       1.0  0.04727  0.75816  0.51770  1.0000
  C   C119      1.0  0.03245  0.74084  0.59142  1.0000
  C   C120      1.0  0.50045  0.72538  0.59180  1.0000
  N   N16       1.0  0.48587  0.72834  0.51822  1.0000
  H   H71       1.0  0.04443  0.73905  0.64497  1.0000
  H   H72       1.0  0.48829  0.71189  0.64560  1.0000
  C   C121      1.0  0.76060  0.27353  0.28413  1.0000
  C   C122      1.0  0.77667  0.25729  0.28387  1.0000
  H   H73       1.0  0.75457  0.27907  0.00598  1.0000
  H   H74       1.0  0.78609  0.25458  0.00539  1.0000
  H   H75       1.0  0.78125  0.25116  0.22174  1.0000
  H   H76       1.0  0.75552  0.27921  0.22205  1.0000
  C   C123      1.0  0.75015  0.49776  0.28614  1.0000
  C   C124      1.0  0.76643  0.03008  0.28731  1.0000
  H   H77       1.0  0.76325  0.04109  0.23340  1.0000
  H   H78       1.0  0.73619  0.48705  0.23150  1.0000
  C   C125      1.0  0.53300  0.28173  0.29414  1.0000
  C   C126      1.0  0.00069  0.26554  0.29390  1.0000
  H   H79       1.0  0.98979  0.26787  0.23811  1.0000
  H   H80       1.0  0.54376  0.29508  0.23851  1.0000
  N   N17       1.0  0.68364  0.34741  0.35387  1.0000
  C   C127      1.0  0.70057  0.33129  0.35640  1.0000
  C   C128      1.0  0.69985  0.38040  0.35394  1.0000
  C   C129      1.0  0.65067  0.33087  0.35824  1.0000
  C   C130      1.0  0.63269  0.31730  0.27943  1.0000
  C   C131      1.0  0.60036  0.30079  0.28316  1.0000
  C   C132      1.0  0.58393  0.29761  0.36527  1.0000
  C   C133      1.0  0.60230  0.31230  0.44320  1.0000
  C   C134      1.0  0.63461  0.32785  0.44033  1.0000
  C   C135      1.0  0.72293  0.33759  0.42418  1.0000
  C   C136      1.0  0.74007  0.32241  0.42590  1.0000
  C   C137      1.0  0.73503  0.29893  0.36271  1.0000
  C   C138      1.0  0.71255  0.29286  0.29485  1.0000
  C   C139      1.0  0.69623  0.30885  0.29086  1.0000
  C   C140      1.0  0.71650  0.39748  0.27675  1.0000
  C   C141      1.0  0.73313  0.42987  0.27791  1.0000
  C   C142      1.0  0.73414  0.44690  0.35650  1.0000
  C   C143      1.0  0.71705  0.42954  0.43313  1.0000
  C   C144      1.0  0.70068  0.39726  0.43222  1.0000
  H   H81       1.0  0.75693  0.32933  0.47386  1.0000
  H   H82       1.0  0.72744  0.35405  0.47209  1.0000
  H   H83       1.0  0.68061  0.30352  0.23982  1.0000
  H   H84       1.0  0.70737  0.27614  0.24729  1.0000
  H   H85       1.0  0.64317  0.31929  0.21802  1.0000
  H   H86       1.0  0.58883  0.29071  0.22423  1.0000
  H   H87       1.0  0.71680  0.38624  0.21897  1.0000
  H   H88       1.0  0.74524  0.44103  0.22077  1.0000
  H   H89       1.0  0.71621  0.44036  0.49121  1.0000
  H   H90       1.0  0.68958  0.38608  0.49035  1.0000
  H   H91       1.0  0.64644  0.33713  0.49934  1.0000
  H   H92       1.0  0.59230  0.31229  0.50389  1.0000
  N   N18       1.0  0.85065  0.18041  0.35539  1.0000
  C   C145      1.0  0.83409  0.19692  0.35711  1.0000
  C   C146      1.0  0.83467  0.14743  0.35620  1.0000
  C   C147      1.0  0.88358  0.19693  0.35925  1.0000
  C   C148      1.0  0.89953  0.21417  0.43700  1.0000
  C   C149      1.0  0.93188  0.23073  0.43996  1.0000
  C   C150      1.0  0.95004  0.23080  0.36567  1.0000
  C   C151      1.0  0.93380  0.21376  0.28748  1.0000
  C   C152      1.0  0.90148  0.19733  0.28430  1.0000
  C   C153      1.0  0.81214  0.19187  0.42514  1.0000
  C   C154      1.0  0.79600  0.20801  0.42601  1.0000
  C   C155      1.0  0.80180  0.23144  0.36194  1.0000
  C   C156      1.0  0.82386  0.23634  0.29367  1.0000
  C   C157      1.0  0.83924  0.21935  0.29063  1.0000
  C   C158      1.0  0.82280  0.13077  0.43810  1.0000
  C   C159      1.0  0.80629  0.09847  0.43907  1.0000
  C   C160      1.0  0.80205  0.08071  0.35924  1.0000
  C   C161      1.0  0.81453  0.09775  0.27750  1.0000
  C   C162      1.0  0.83007  0.13012  0.27576  1.0000
  H   H93       1.0  0.77937  0.20193  0.47439  1.0000
  H   H94       1.0  0.80722  0.17589  0.47463  1.0000
  H   H95       1.0  0.85497  0.22399  0.24017  1.0000
  H   H96       1.0  0.82946  0.25296  0.24547  1.0000
  H   H97       1.0  0.88750  0.21488  0.49223  1.0000
  H   H98       1.0  0.94215  0.24329  0.49725  1.0000
  H   H99       1.0  0.82590  0.14219  0.49834  1.0000
  H   H100      1.0  0.79693  0.08803  0.49986  1.0000
  H   H101      1.0  0.81271  0.08664  0.21739  1.0000
  H   H102      1.0  0.83819  0.14112  0.21481  1.0000
  H   H103      1.0  0.89099  0.18559  0.22610  1.0000
  H   H104      1.0  0.94551  0.21273  0.23180  1.0000
  C   C163      1.0  0.78581  0.24885  0.36539  1.0000
  C   C164      1.0  0.77780  0.25810  0.44812  1.0000
  C   C165      1.0  0.76075  0.27382  0.44840  1.0000
  C   C166      1.0  0.75188  0.28234  0.36589  1.0000
  N   N19       1.0  0.75285  0.28005  0.53139  1.0000
  C   C167      1.0  0.76101  0.27350  0.61280  1.0000
  C   C168      1.0  0.77908  0.25968  0.61246  1.0000
  N   N20       1.0  0.78647  0.25251  0.53079  1.0000
  C   C169      1.0  0.78580  0.04729  0.36079  1.0000
  C   C170      1.0  0.78796  0.02970  0.43367  1.0000
  C   C171      1.0  0.77117  0.49694  0.43305  1.0000
  C   C172      1.0  0.75171  0.48012  0.35904  1.0000
  N   N21       1.0  0.77508  0.48214  0.50512  1.0000
  C   C173      1.0  0.79349  0.49642  0.57744  1.0000
  C   C174      1.0  0.81010  0.02842  0.57794  1.0000
  N   N22       1.0  0.80680  0.04350  0.50628  1.0000
  H   H105      1.0  0.79538  0.48405  0.62964  1.0000
  H   H106      1.0  0.82451  0.04019  0.63053  1.0000
  C   C175      1.0  0.98329  0.24731  0.36872  1.0000
  C   C176      1.0  0.00040  0.24597  0.44403  1.0000
  C   C177      1.0  0.53318  0.26205  0.44371  1.0000
  C   C178      1.0  0.55051  0.28066  0.36856  1.0000
  N   N23       1.0  0.54727  0.25816  0.51769  1.0000
  C   C179      1.0  0.53245  0.24083  0.59141  1.0000
  C   C180      1.0  0.00045  0.22538  0.59180  1.0000
  N   N24       1.0  0.98587  0.22833  0.51821  1.0000
  H   H107      1.0  0.54443  0.23904  0.64495  1.0000
  H   H108      1.0  0.98829  0.21188  0.64559  1.0000
  C   C181      1.0  0.76060  0.77353  0.28413  1.0000
  C   C182      1.0  0.77667  0.75729  0.28387  1.0000
  H   H109      1.0  0.75456  0.77907  0.00598  1.0000
  H   H110      1.0  0.78609  0.75458  0.00539  1.0000
  H   H111      1.0  0.78124  0.75115  0.22175  1.0000
  H   H112      1.0  0.75552  0.77921  0.22206  1.0000
  C   C183      1.0  0.75016  0.99776  0.28614  1.0000
  C   C184      1.0  0.76642  0.53008  0.28732  1.0000
  H   H113      1.0  0.76325  0.54109  0.23340  1.0000
  H   H114      1.0  0.73620  0.98705  0.23150  1.0000
  C   C185      1.0  0.53300  0.78172  0.29414  1.0000
  C   C186      1.0  0.00069  0.76554  0.29390  1.0000
  H   H115      1.0  0.98979  0.76786  0.23811  1.0000
  H   H116      1.0  0.54376  0.79507  0.23850  1.0000
  N   N25       1.0  0.68364  0.84741  0.35387  1.0000
  C   C187      1.0  0.70056  0.83129  0.35640  1.0000
  C   C188      1.0  0.69985  0.88040  0.35395  1.0000
  C   C189      1.0  0.65067  0.83087  0.35825  1.0000
  C   C190      1.0  0.63269  0.81730  0.27943  1.0000
  C   C191      1.0  0.60036  0.80079  0.28316  1.0000
  C   C192      1.0  0.58393  0.79761  0.36528  1.0000
  C   C193      1.0  0.60230  0.81230  0.44320  1.0000
  C   C194      1.0  0.63461  0.82785  0.44034  1.0000
  C   C195      1.0  0.72293  0.83759  0.42419  1.0000
  C   C196      1.0  0.74006  0.82241  0.42590  1.0000
  C   C197      1.0  0.73503  0.79893  0.36272  1.0000
  C   C198      1.0  0.71255  0.79286  0.29485  1.0000
  C   C199      1.0  0.69622  0.80885  0.29086  1.0000
  C   C200      1.0  0.71650  0.89748  0.27675  1.0000
  C   C201      1.0  0.73313  0.92987  0.27792  1.0000
  C   C202      1.0  0.73414  0.94690  0.35650  1.0000
  C   C203      1.0  0.71705  0.92954  0.43313  1.0000
  C   C204      1.0  0.70068  0.89726  0.43222  1.0000
  H   H117      1.0  0.75693  0.82933  0.47386  1.0000
  H   H118      1.0  0.72744  0.85405  0.47209  1.0000
  H   H119      1.0  0.68061  0.80352  0.23982  1.0000
  H   H120      1.0  0.70737  0.77614  0.24729  1.0000
  H   H121      1.0  0.64317  0.81929  0.21803  1.0000
  H   H122      1.0  0.58883  0.79071  0.22424  1.0000
  H   H123      1.0  0.71680  0.88624  0.21897  1.0000
  H   H124      1.0  0.74525  0.94103  0.22078  1.0000
  H   H125      1.0  0.71621  0.94036  0.49121  1.0000
  H   H126      1.0  0.68958  0.88609  0.49035  1.0000
  H   H127      1.0  0.64644  0.83712  0.49934  1.0000
  H   H128      1.0  0.59230  0.81229  0.50389  1.0000
  N   N26       1.0  0.85065  0.68041  0.35540  1.0000
  C   C205      1.0  0.83409  0.69692  0.35711  1.0000
  C   C206      1.0  0.83468  0.64743  0.35620  1.0000
  C   C207      1.0  0.88358  0.69693  0.35925  1.0000
  C   C208      1.0  0.89953  0.71417  0.43700  1.0000
  C   C209      1.0  0.93188  0.73073  0.43996  1.0000
  C   C210      1.0  0.95004  0.73080  0.36567  1.0000
  C   C211      1.0  0.93380  0.71375  0.28749  1.0000
  C   C212      1.0  0.90148  0.69733  0.28431  1.0000
  C   C213      1.0  0.81214  0.69187  0.42514  1.0000
  C   C214      1.0  0.79600  0.70801  0.42601  1.0000
  C   C215      1.0  0.80180  0.73144  0.36195  1.0000
  C   C216      1.0  0.82386  0.73634  0.29367  1.0000
  C   C217      1.0  0.83923  0.71935  0.29063  1.0000
  C   C218      1.0  0.82281  0.63077  0.43810  1.0000
  C   C219      1.0  0.80629  0.59847  0.43907  1.0000
  C   C220      1.0  0.80205  0.58071  0.35925  1.0000
  C   C221      1.0  0.81453  0.59775  0.27750  1.0000
  C   C222      1.0  0.83006  0.63012  0.27576  1.0000
  H   H129      1.0  0.77937  0.70192  0.47439  1.0000
  H   H130      1.0  0.80722  0.67588  0.47463  1.0000
  H   H131      1.0  0.85496  0.72399  0.24017  1.0000
  H   H132      1.0  0.82946  0.75296  0.24547  1.0000
  H   H133      1.0  0.88750  0.71488  0.49223  1.0000
  H   H134      1.0  0.94215  0.74330  0.49725  1.0000
  H   H135      1.0  0.82590  0.64219  0.49835  1.0000
  H   H136      1.0  0.79693  0.58803  0.49986  1.0000
  H   H137      1.0  0.81271  0.58664  0.21739  1.0000
  H   H138      1.0  0.83819  0.64112  0.21481  1.0000
  H   H139      1.0  0.89099  0.68559  0.22611  1.0000
  H   H140      1.0  0.94551  0.71273  0.23180  1.0000
  C   C223      1.0  0.78581  0.74885  0.36540  1.0000
  C   C224      1.0  0.77780  0.75810  0.44813  1.0000
  C   C225      1.0  0.76075  0.77382  0.44840  1.0000
  C   C226      1.0  0.75189  0.78234  0.36589  1.0000
  N   N27       1.0  0.75285  0.78005  0.53140  1.0000
  C   C227      1.0  0.76101  0.77350  0.61280  1.0000
  C   C228      1.0  0.77908  0.75968  0.61247  1.0000
  N   N28       1.0  0.78647  0.75250  0.53079  1.0000
  C   C229      1.0  0.78580  0.54729  0.36079  1.0000
  C   C230      1.0  0.78796  0.52970  0.43367  1.0000
  C   C231      1.0  0.77117  0.99694  0.43305  1.0000
  C   C232      1.0  0.75171  0.98012  0.35903  1.0000
  N   N29       1.0  0.77508  0.98214  0.50513  1.0000
  C   C233      1.0  0.79348  0.99642  0.57745  1.0000
  C   C234      1.0  0.81010  0.52842  0.57793  1.0000
  N   N30       1.0  0.80681  0.54350  0.50627  1.0000
  H   H141      1.0  0.79537  0.98405  0.62965  1.0000
  H   H142      1.0  0.82451  0.54019  0.63052  1.0000
  C   C235      1.0  0.98329  0.74731  0.36873  1.0000
  C   C236      1.0  0.00040  0.74597  0.44403  1.0000
  C   C237      1.0  0.53318  0.76205  0.44372  1.0000
  C   C238      1.0  0.55051  0.78066  0.36856  1.0000
  N   N31       1.0  0.54727  0.75816  0.51770  1.0000
  C   C239      1.0  0.53245  0.74084  0.59142  1.0000
  C   C240      1.0  0.00045  0.72538  0.59180  1.0000
  N   N32       1.0  0.98587  0.72834  0.51822  1.0000
  H   H143      1.0  0.54443  0.73905  0.64497  1.0000
  H   H144      1.0  0.98829  0.71189  0.64560  1.0000
