data_image0
_chemical_formula_structural       C4HC3NHCO2HC4HC3NHCO2HC4HC3NHCO2HCNC2H2CO2HCNC2H2CO2HCNC2H2CO2HCNCNCNC18H12CNCNCNC18H12CNCNCNC18H12CNCNCNC18H12CNC2H2CO2HCNC2H2CO2HCNC2H2CO2HC4HC3NHCO2HC4HC3NHCO2HC4HC3NHCO2H
_chemical_formula_sum              "C156 H84 N24 O24"
_cell_length_a       56.4206
_cell_length_b       56.4206
_cell_length_c       14.9893
_cell_angle_alpha    90
_cell_angle_beta     90
_cell_angle_gamma    120

_space_group_name_H-M_alt    "P 1"
_space_group_IT_number       1

loop_
  _space_group_symop_operation_xyz
  'x, y, z'

loop_
  _atom_site_type_symbol
  _atom_site_label
  _atom_site_symmetry_multiplicity
  _atom_site_fract_x
  _atom_site_fract_y
  _atom_site_fract_z
  _atom_site_occupancy
  C   C1        1.0  0.28492  0.14229  0.32658  1.0000
  C   C2        1.0  0.22697  0.11554  0.32228  1.0000
  C   C3        1.0  0.24151  0.11595  0.24401  1.0000
  C   C4        1.0  0.27047  0.12946  0.24768  1.0000
  H   H1        1.0  0.28131  0.13080  0.19112  1.0000
  C   C5        1.0  0.19785  0.10256  0.32893  1.0000
  C   C6        1.0  0.13969  0.07251  0.33412  1.0000
  C   C7        1.0  0.15520  0.06285  0.28912  1.0000
  N   N1        1.0  0.18287  0.07786  0.28828  1.0000
  H   H2        1.0  0.14597  0.04480  0.25468  1.0000
  C   C8        1.0  0.22846  0.10551  0.16335  1.0000
  O   O1        1.0  0.23322  0.08952  0.12249  1.0000
  O   O2        1.0  0.22023  0.11903  0.12248  1.0000
  H   H3        1.0  0.21313  0.11504  0.06810  1.0000
  C   C9        1.0  0.84901  0.14281  0.32657  1.0000
  C   C10       1.0  0.87576  0.11160  0.32228  1.0000
  C   C11       1.0  0.87535  0.12573  0.24400  1.0000
  C   C12       1.0  0.86184  0.14118  0.24767  1.0000
  H   H4        1.0  0.86050  0.15068  0.19111  1.0000
  C   C13       1.0  0.88874  0.09546  0.32894  1.0000
  C   C14       1.0  0.91879  0.06735  0.33410  1.0000
  C   C15       1.0  0.92845  0.09252  0.28912  1.0000
  N   N2        1.0  0.91344  0.10518  0.28828  1.0000
  H   H5        1.0  0.94650  0.10135  0.25468  1.0000
  C   C16       1.0  0.88579  0.12312  0.16334  1.0000
  O   O3        1.0  0.90178  0.14386  0.12249  1.0000
  O   O4        1.0  0.87226  0.10136  0.12248  1.0000
  H   H6        1.0  0.87625  0.09825  0.06810  1.0000
  C   C17       1.0  0.84850  0.70638  0.32658  1.0000
  C   C18       1.0  0.87970  0.76433  0.32229  1.0000
  C   C19       1.0  0.86557  0.74979  0.24401  1.0000
  C   C20       1.0  0.85012  0.72083  0.24768  1.0000
  H   H7        1.0  0.84062  0.71000  0.19112  1.0000
  C   C21       1.0  0.89583  0.79345  0.32895  1.0000
  C   C22       1.0  0.92395  0.85161  0.33414  1.0000
  C   C23       1.0  0.89878  0.83610  0.28914  1.0000
  N   N3        1.0  0.88612  0.80843  0.28829  1.0000
  H   H8        1.0  0.88995  0.84533  0.25471  1.0000
  C   C24       1.0  0.86818  0.76285  0.16336  1.0000
  O   O5        1.0  0.84743  0.75808  0.12249  1.0000
  O   O6        1.0  0.88994  0.77108  0.12249  1.0000
  H   H9        1.0  0.89305  0.77818  0.06811  1.0000
  C   C25       1.0  0.61447  0.14573  0.26477  1.0000
  N   N4        1.0  0.58880  0.14111  0.27812  1.0000
  C   C26       1.0  0.52973  0.12429  0.30143  1.0000
  C   C27       1.0  0.50967  0.13239  0.29963  1.0000
  H   H10       1.0  0.49407  0.12376  0.25394  1.0000
  H   H11       1.0  0.62239  0.15028  0.20167  1.0000
  C   C28       1.0  0.52685  0.10377  0.24351  1.0000
  O   O7        1.0  0.53309  0.11026  0.16558  1.0000
  O   O8        1.0  0.52908  0.08412  0.26880  1.0000
  H   H12       1.0  0.52615  0.07785  0.32426  1.0000
  C   C29       1.0  0.84560  0.46894  0.26487  1.0000
  N   N5        1.0  0.85021  0.44788  0.27817  1.0000
  C   C30       1.0  0.86704  0.40564  0.30143  1.0000
  C   C31       1.0  0.85894  0.37747  0.29962  1.0000
  H   H13       1.0  0.86758  0.37052  0.25393  1.0000
  H   H14       1.0  0.84104  0.47231  0.20178  1.0000
  C   C32       1.0  0.88755  0.42327  0.24348  1.0000
  O   O9        1.0  0.88104  0.42301  0.16556  1.0000
  O   O10       1.0  0.90720  0.44515  0.26877  1.0000
  H   H15       1.0  0.91347  0.44849  0.32423  1.0000
  C   C33       1.0  0.52234  0.37684  0.26483  1.0000
  N   N6        1.0  0.54341  0.40251  0.27814  1.0000
  C   C34       1.0  0.58567  0.46157  0.30140  1.0000
  C   C35       1.0  0.61383  0.48163  0.29957  1.0000
  H   H16       1.0  0.62080  0.49723  0.25389  1.0000
  H   H17       1.0  0.51897  0.36891  0.20174  1.0000
  C   C36       1.0  0.56804  0.46446  0.24350  1.0000
  O   O11       1.0  0.56828  0.45822  0.16557  1.0000
  O   O12       1.0  0.54616  0.46224  0.26883  1.0000
  H   H18       1.0  0.54283  0.46517  0.32430  1.0000
  C   C37       1.0  0.98051  0.96892  0.33458  1.0000
  N   N7        1.0  0.00831  0.98393  0.33457  1.0000
  C   C38       1.0  0.02238  0.01176  0.33456  1.0000
  N   N8        1.0  0.00737  0.02456  0.33455  1.0000
  C   C39       1.0  0.97954  0.01080  0.33456  1.0000
  N   N9        1.0  0.96674  0.98299  0.33456  1.0000
  C   C40       1.0  0.05158  0.02686  0.33449  1.0000
  C   C41       1.0  0.06715  0.01368  0.34598  1.0000
  C   C42       1.0  0.09594  0.02859  0.34599  1.0000
  C   C43       1.0  0.11043  0.05733  0.33432  1.0000
  C   C44       1.0  0.09491  0.07053  0.32257  1.0000
  C   C45       1.0  0.06613  0.05563  0.32283  1.0000
  C   C46       1.0  0.96641  0.93972  0.33451  1.0000
  C   C47       1.0  0.98063  0.92517  0.32286  1.0000
  C   C48       1.0  0.96675  0.89639  0.32262  1.0000
  C   C49       1.0  0.93803  0.88087  0.33434  1.0000
  C   C50       1.0  0.92378  0.89536  0.34601  1.0000
  C   C51       1.0  0.93766  0.92415  0.34601  1.0000
  C   C52       1.0  0.96444  0.02489  0.33447  1.0000
  C   C53       1.0  0.93567  0.01067  0.32279  1.0000
  C   C54       1.0  0.92077  0.02455  0.32256  1.0000
  C   C55       1.0  0.93397  0.05326  0.33430  1.0000
  C   C56       1.0  0.96271  0.06752  0.34596  1.0000
  C   C57       1.0  0.97762  0.05364  0.34595  1.0000
  H   H19       1.0  0.97789  0.88685  0.31202  1.0000
  H   H20       1.0  0.00137  0.93536  0.31334  1.0000
  H   H21       1.0  0.90307  0.88505  0.35628  1.0000
  H   H22       1.0  0.92638  0.93359  0.35545  1.0000
  H   H23       1.0  0.92512  0.98993  0.31332  1.0000
  H   H24       1.0  0.90009  0.01341  0.31199  1.0000
  H   H25       1.0  0.99833  0.06492  0.35543  1.0000
  H   H26       1.0  0.97311  0.08823  0.35625  1.0000
  H   H27       1.0  0.05594  0.06618  0.31333  1.0000
  H   H28       1.0  0.10445  0.09121  0.31200  1.0000
  H   H29       1.0  0.10625  0.01819  0.35626  1.0000
  H   H30       1.0  0.05771  0.99296  0.35543  1.0000
  C   C58       1.0  0.44462  0.20255  0.32508  1.0000
  N   N10       1.0  0.41678  0.18856  0.32777  1.0000
  C   C59       1.0  0.40179  0.20146  0.32912  1.0000
  N   N11       1.0  0.41558  0.22936  0.32794  1.0000
  C   C60       1.0  0.44332  0.24429  0.32424  1.0000
  N   N12       1.0  0.45703  0.23026  0.32331  1.0000
  C   C61       1.0  0.37266  0.18643  0.33063  1.0000
  C   C62       1.0  0.35793  0.15887  0.30153  1.0000
  C   C63       1.0  0.32912  0.14438  0.29977  1.0000
  C   C64       1.0  0.31404  0.15673  0.32919  1.0000
  C   C65       1.0  0.32864  0.18408  0.35977  1.0000
  C   C66       1.0  0.35742  0.19874  0.35958  1.0000
  C   C67       1.0  0.46085  0.18963  0.32771  1.0000
  C   C68       1.0  0.44911  0.16096  0.33842  1.0000
  C   C69       1.0  0.46563  0.14881  0.34601  1.0000
  C   C70       1.0  0.49449  0.16502  0.34441  1.0000
  C   C71       1.0  0.50624  0.19350  0.33117  1.0000
  C   C72       1.0  0.48978  0.20551  0.32282  1.0000
  C   C73       1.0  0.45819  0.27338  0.32282  1.0000
  C   C74       1.0  0.48519  0.28749  0.28850  1.0000
  C   C75       1.0  0.50082  0.31616  0.29097  1.0000
  C   C76       1.0  0.49015  0.33181  0.32885  1.0000
  C   C77       1.0  0.46318  0.31792  0.36296  1.0000
  C   C78       1.0  0.44726  0.28914  0.35853  1.0000
  H   H31       1.0  0.45644  0.12811  0.35572  1.0000
  H   H32       1.0  0.42833  0.14860  0.34256  1.0000
  H   H33       1.0  0.52705  0.20589  0.32748  1.0000
  H   H34       1.0  0.49949  0.22628  0.31441  1.0000
  H   H35       1.0  0.49400  0.27705  0.26176  1.0000
  H   H36       1.0  0.52054  0.32542  0.26785  1.0000
  H   H37       1.0  0.42802  0.27975  0.38548  1.0000
  H   H38       1.0  0.45500  0.32867  0.39180  1.0000
  H   H39       1.0  0.36712  0.21856  0.38165  1.0000
  H   H40       1.0  0.31842  0.19384  0.38033  1.0000
  H   H41       1.0  0.31923  0.12455  0.27764  1.0000
  H   H42       1.0  0.36801  0.14919  0.27894  1.0000
  C   C79       1.0  0.78877  0.24226  0.32500  1.0000
  N   N13       1.0  0.80275  0.22840  0.32771  1.0000
  C   C80       1.0  0.78985  0.20051  0.32907  1.0000
  N   N14       1.0  0.76195  0.18640  0.32788  1.0000
  C   C81       1.0  0.74703  0.19923  0.32415  1.0000
  N   N15       1.0  0.76106  0.22696  0.32321  1.0000
  C   C82       1.0  0.80488  0.18641  0.33059  1.0000
  C   C83       1.0  0.83244  0.19923  0.30147  1.0000
  C   C84       1.0  0.84693  0.18492  0.29976  1.0000
  C   C85       1.0  0.83457  0.15747  0.32915  1.0000
  C   C86       1.0  0.80722  0.14473  0.35970  1.0000
  C   C87       1.0  0.79256  0.15886  0.35952  1.0000
  C   C88       1.0  0.80170  0.27141  0.32762  1.0000
  C   C89       1.0  0.83037  0.28833  0.33839  1.0000
  C   C90       1.0  0.84252  0.31700  0.34601  1.0000
  C   C91       1.0  0.82632  0.32966  0.34438  1.0000
  C   C92       1.0  0.79784  0.31294  0.33103  1.0000
  C   C93       1.0  0.78583  0.28447  0.32267  1.0000
  C   C94       1.0  0.71793  0.18501  0.32272  1.0000
  C   C95       1.0  0.70383  0.19789  0.28824  1.0000
  C   C96       1.0  0.67517  0.18486  0.29066  1.0000
  C   C97       1.0  0.65950  0.15856  0.32872  1.0000
  C   C98       1.0  0.67340  0.14550  0.36301  1.0000
  C   C99       1.0  0.70217  0.15834  0.35856  1.0000
  H   H43       1.0  0.86321  0.32849  0.35589  1.0000
  H   H44       1.0  0.84272  0.27990  0.34268  1.0000
  H   H45       1.0  0.78546  0.32136  0.32729  1.0000
  H   H46       1.0  0.76506  0.27342  0.31416  1.0000
  H   H47       1.0  0.71428  0.21713  0.26141  1.0000
  H   H48       1.0  0.66592  0.19532  0.26751  1.0000
  H   H49       1.0  0.71155  0.14849  0.38565  1.0000
  H   H50       1.0  0.66264  0.12659  0.39198  1.0000
  H   H51       1.0  0.77274  0.14874  0.38159  1.0000
  H   H52       1.0  0.79745  0.12475  0.38028  1.0000
  H   H53       1.0  0.86676  0.19485  0.27766  1.0000
  H   H54       1.0  0.84213  0.21901  0.27897  1.0000
  C   C100      1.0  0.74905  0.54668  0.32502  1.0000
  N   N16       1.0  0.76290  0.57452  0.32772  1.0000
  C   C101      1.0  0.79080  0.58951  0.32909  1.0000
  N   N17       1.0  0.80491  0.57572  0.32793  1.0000
  C   C102      1.0  0.79209  0.54797  0.32423  1.0000
  N   N18       1.0  0.76435  0.53427  0.32327  1.0000
  C   C103      1.0  0.80489  0.61864  0.33061  1.0000
  C   C104      1.0  0.79207  0.63338  0.30150  1.0000
  C   C105      1.0  0.80638  0.66218  0.29975  1.0000
  C   C106      1.0  0.83382  0.67726  0.32918  1.0000
  C   C107      1.0  0.84656  0.66266  0.35976  1.0000
  C   C108      1.0  0.83244  0.63387  0.35957  1.0000
  C   C109      1.0  0.71990  0.53045  0.32763  1.0000
  C   C110      1.0  0.70297  0.54219  0.33836  1.0000
  C   C111      1.0  0.67430  0.52567  0.34595  1.0000
  C   C112      1.0  0.66165  0.49681  0.34431  1.0000
  C   C113      1.0  0.67837  0.48506  0.33104  1.0000
  C   C114      1.0  0.70684  0.50152  0.32269  1.0000
  C   C115      1.0  0.80630  0.53310  0.32284  1.0000
  C   C116      1.0  0.79342  0.50610  0.28853  1.0000
  C   C117      1.0  0.80644  0.49046  0.29103  1.0000
  C   C118      1.0  0.83277  0.50113  0.32889  1.0000
  C   C119      1.0  0.84585  0.52811  0.36296  1.0000
  C   C120      1.0  0.83299  0.54403  0.35858  1.0000
  H   H55       1.0  0.66280  0.53486  0.35568  1.0000
  H   H56       1.0  0.71139  0.56297  0.34254  1.0000
  H   H57       1.0  0.66996  0.46425  0.32732  1.0000
  H   H58       1.0  0.71791  0.49181  0.31426  1.0000
  H   H59       1.0  0.77416  0.49729  0.26181  1.0000
  H   H60       1.0  0.79599  0.47075  0.26794  1.0000
  H   H61       1.0  0.84286  0.56329  0.38541  1.0000
  H   H62       1.0  0.86479  0.53630  0.39177  1.0000
  H   H63       1.0  0.84256  0.62418  0.38164  1.0000
  H   H64       1.0  0.86655  0.67288  0.38033  1.0000
  H   H65       1.0  0.79645  0.67207  0.27762  1.0000
  H   H66       1.0  0.77230  0.62329  0.27891  1.0000
  C   C121      1.0  0.26937  0.14099  0.40197  1.0000
  N   N19       1.0  0.24173  0.12786  0.39697  1.0000
  C   C122      1.0  0.18349  0.11326  0.37691  1.0000
  C   C123      1.0  0.15452  0.09806  0.37792  1.0000
  H   H67       1.0  0.14402  0.10569  0.41191  1.0000
  H   H68       1.0  0.27854  0.14965  0.46133  1.0000
  C   C124      1.0  0.19687  0.13892  0.41706  1.0000
  O   O13       1.0  0.19271  0.14056  0.49625  1.0000
  O   O14       1.0  0.20424  0.16006  0.37341  1.0000
  H   H69       1.0  0.20640  0.16132  0.31470  1.0000
  C   C125      1.0  0.85030  0.12854  0.40195  1.0000
  N   N20       1.0  0.86343  0.11404  0.39696  1.0000
  C   C126      1.0  0.87804  0.07040  0.37691  1.0000
  C   C127      1.0  0.89324  0.05663  0.37792  1.0000
  H   H70       1.0  0.88561  0.03850  0.41191  1.0000
  H   H71       1.0  0.84164  0.12906  0.46130  1.0000
  C   C128      1.0  0.85238  0.05812  0.41707  1.0000
  O   O15       1.0  0.85074  0.05232  0.49626  1.0000
  O   O16       1.0  0.83124  0.04435  0.37342  1.0000
  H   H72       1.0  0.82998  0.04524  0.31472  1.0000
  C   C129      1.0  0.86275  0.72193  0.40197  1.0000
  N   N21       1.0  0.87726  0.74957  0.39697  1.0000
  C   C130      1.0  0.92089  0.80780  0.37693  1.0000
  C   C131      1.0  0.93466  0.83678  0.37794  1.0000
  H   H73       1.0  0.95279  0.84728  0.41193  1.0000
  H   H74       1.0  0.86223  0.71275  0.46132  1.0000
  C   C132      1.0  0.93317  0.79442  0.41708  1.0000
  O   O17       1.0  0.93898  0.79859  0.49626  1.0000
  O   O18       1.0  0.94695  0.78706  0.37342  1.0000
  H   H75       1.0  0.94605  0.78490  0.31471  1.0000
  C   C133      1.0  0.63078  0.14725  0.33833  1.0000
  C   C134      1.0  0.57644  0.13628  0.35917  1.0000
  C   C135      1.0  0.59139  0.13629  0.43578  1.0000
  C   C136      1.0  0.61854  0.14167  0.42376  1.0000
  H   H76       1.0  0.63017  0.14333  0.47855  1.0000
  C   C137      1.0  0.55203  0.13772  0.36198  1.0000
  C   C138      1.0  0.51185  0.15366  0.35511  1.0000
  C   C139      1.0  0.53392  0.16542  0.41585  1.0000
  N   N22       1.0  0.55298  0.15762  0.41543  1.0000
  H   H77       1.0  0.53678  0.18102  0.45738  1.0000
  C   C140      1.0  0.58101  0.13217  0.52166  1.0000
  O   O19       1.0  0.58986  0.15217  0.57085  1.0000
  O   O20       1.0  0.55810  0.11221  0.53601  1.0000
  H   H78       1.0  0.54918  0.10916  0.58722  1.0000
  C   C141      1.0  0.84412  0.48376  0.33841  1.0000
  C   C142      1.0  0.85503  0.44034  0.35921  1.0000
  C   C143      1.0  0.85504  0.45528  0.43583  1.0000
  C   C144      1.0  0.84968  0.47706  0.42383  1.0000
  H   H79       1.0  0.84801  0.48703  0.47863  1.0000
  C   C145      1.0  0.85360  0.41449  0.36198  1.0000
  C   C146      1.0  0.83770  0.35838  0.35515  1.0000
  C   C147      1.0  0.82591  0.36867  0.41583  1.0000
  N   N23       1.0  0.83370  0.39554  0.41541  1.0000
  H   H80       1.0  0.81031  0.35594  0.45734  1.0000
  C   C148      1.0  0.85914  0.44900  0.52170  1.0000
  O   O21       1.0  0.83914  0.43785  0.57087  1.0000
  O   O22       1.0  0.87909  0.44604  0.53607  1.0000
  H   H81       1.0  0.88214  0.44016  0.58726  1.0000
  C   C149      1.0  0.50753  0.36054  0.33838  1.0000
  C   C150      1.0  0.55096  0.41487  0.35917  1.0000
  C   C151      1.0  0.53602  0.39993  0.43580  1.0000
  C   C152      1.0  0.51424  0.37279  0.42379  1.0000
  H   H82       1.0  0.50427  0.36116  0.47860  1.0000
  C   C153      1.0  0.57681  0.43928  0.36194  1.0000
  C   C154      1.0  0.63292  0.47944  0.35502  1.0000
  C   C155      1.0  0.62263  0.45738  0.41576  1.0000
  N   N24       1.0  0.59576  0.43832  0.41536  1.0000
  H   H83       1.0  0.63536  0.45451  0.45726  1.0000
  C   C156      1.0  0.54230  0.41031  0.52168  1.0000
  O   O23       1.0  0.55345  0.40145  0.57083  1.0000
  O   O24       1.0  0.54528  0.43323  0.53605  1.0000
  H   H84       1.0  0.55115  0.44215  0.58726  1.0000
