data_image0
_chemical_formula_structural       C3H2NC3H2NCHCNCNCNC3H3CNCNCNC2H2C4H3CH3NC4H3CH3NC3H3NC3H2NC3H2NCHCNCNCNC3H3CNCNCNC2H2C4H3CH3NC4H3CH3NC3H3NC2HNCHC2H3C2HNCHC2H3CHC3H2CHC3H2NCNCH5N2CNCH5NC3H2NC3H2NC2HNC2NC2H2CNCNCNC3H3C5H3NC4H3CH3NC2H3C3H2NC3H2NC2HNC2NC2H2CNCNCNC3H3C5H3NC4H3CH3NC2H3
_chemical_formula_sum              "C144 H120 N48"
_cell_length_a       45.2834
_cell_length_b       45.2834
_cell_length_c       14.5749
_cell_angle_alpha    90
_cell_angle_beta     90
_cell_angle_gamma    120

_space_group_name_H-M_alt    "P 1"
_space_group_IT_number       1

loop_
  _space_group_symop_operation_xyz
  'x, y, z'

loop_
  _atom_site_type_symbol
  _atom_site_label
  _atom_site_symmetry_multiplicity
  _atom_site_fract_x
  _atom_site_fract_y
  _atom_site_fract_z
  _atom_site_occupancy
  C   C1        1.0  0.28176  0.23842  0.40439  1.0000
  C   C2        1.0  0.29918  0.27431  0.39662  1.0000
  C   C3        1.0  0.28193  0.29289  0.39676  1.0000
  H   H1        1.0  0.29595  0.31881  0.39036  1.0000
  H   H2        1.0  0.32519  0.28760  0.39001  1.0000
  N   N1        1.0  0.30289  0.22477  0.40166  1.0000
  C   C4        1.0  0.29804  0.05064  0.40441  1.0000
  C   C5        1.0  0.26215  0.03216  0.39663  1.0000
  C   C6        1.0  0.24357  0.49633  0.39679  1.0000
  H   H3        1.0  0.21765  0.48444  0.39033  1.0000
  H   H4        1.0  0.24886  0.04488  0.38999  1.0000
  N   N2        1.0  0.31169  0.08542  0.40167  1.0000
  C   C7        1.0  0.04013  0.25453  0.39677  1.0000
  H   H5        1.0  0.05202  0.24051  0.39031  1.0000
  C   C8        1.0  0.19900  0.38222  0.39980  1.0000
  N   N3        1.0  0.16521  0.35814  0.39977  1.0000
  C   C9        1.0  0.15424  0.32408  0.39979  1.0000
  N   N4        1.0  0.17832  0.31436  0.39976  1.0000
  C   C10       1.0  0.21238  0.33746  0.39980  1.0000
  N   N5        1.0  0.22209  0.37125  0.39978  1.0000
  C   C11       1.0  0.23729  0.32744  0.39954  1.0000
  C   C12       1.0  0.20902  0.41714  0.39956  1.0000
  C   C13       1.0  0.11932  0.29917  0.39954  1.0000
  H   H6        1.0  0.11273  0.27406  0.39800  1.0000
  H   H7        1.0  0.19050  0.42373  0.39800  1.0000
  H   H8        1.0  0.26240  0.34596  0.39800  1.0000
  C   C14       1.0  0.34839  0.14800  0.40094  1.0000
  N   N6        1.0  0.38114  0.17464  0.40103  1.0000
  C   C15       1.0  0.38846  0.20768  0.40095  1.0000
  N   N7        1.0  0.36182  0.21379  0.40102  1.0000
  C   C16       1.0  0.32878  0.18807  0.40094  1.0000
  N   N8        1.0  0.32267  0.15532  0.40102  1.0000
  C   C17       1.0  0.30088  0.19372  0.40190  1.0000
  C   C18       1.0  0.34274  0.11446  0.40191  1.0000
  H   H9        1.0  0.36409  0.11253  0.40164  1.0000
  H   H10       1.0  0.27760  0.17237  0.40162  1.0000
  C   C19       1.0  0.24610  0.27636  0.40397  1.0000
  C   C20       1.0  0.22756  0.24010  0.41267  1.0000
  C   C21       1.0  0.24537  0.22115  0.41442  1.0000
  C   C22       1.0  0.18942  0.22210  0.41992  1.0000
  H   H11       1.0  0.17835  0.23854  0.41352  1.0000
  H   H12       1.0  0.18146  0.20957  0.48659  1.0000
  H   H13       1.0  0.17809  0.20307  0.36556  1.0000
  C   C23       1.0  0.22658  0.18341  0.42826  1.0000
  H   H14       1.0  0.23738  0.17701  0.48675  1.0000
  H   H15       1.0  0.22852  0.17102  0.36621  1.0000
  H   H16       1.0  0.19955  0.17199  0.44293  1.0000
  N   N9        1.0  0.22915  0.29427  0.40344  1.0000
  C   C24       1.0  0.26010  0.47704  0.40400  1.0000
  C   C25       1.0  0.29636  0.49476  0.41271  1.0000
  C   C26       1.0  0.31531  0.03151  0.41446  1.0000
  C   C27       1.0  0.31435  0.47461  0.41996  1.0000
  H   H17       1.0  0.29792  0.44711  0.41355  1.0000
  H   H18       1.0  0.32689  0.47919  0.48664  1.0000
  H   H19       1.0  0.33339  0.48231  0.36561  1.0000
  C   C28       1.0  0.35305  0.05047  0.42831  1.0000
  H   H20       1.0  0.35944  0.06767  0.48680  1.0000
  H   H21       1.0  0.36544  0.06479  0.36626  1.0000
  H   H22       1.0  0.36447  0.03486  0.44300  1.0000
  N   N10       1.0  0.24219  0.44218  0.40346  1.0000
  C   C29       1.0  0.05942  0.29035  0.40399  1.0000
  C   C30       1.0  0.04170  0.30889  0.41271  1.0000
  C   C31       1.0  0.06185  0.34703  0.41997  1.0000
  H   H23       1.0  0.08935  0.35811  0.41355  1.0000
  H   H24       1.0  0.05727  0.35499  0.48665  1.0000
  H   H25       1.0  0.05414  0.35837  0.36563  1.0000
  N   N11       1.0  0.09428  0.30731  0.40345  1.0000
  C   C32       1.0  0.28176  0.73842  0.40439  1.0000
  C   C33       1.0  0.29918  0.77431  0.39662  1.0000
  C   C34       1.0  0.28193  0.79289  0.39676  1.0000
  H   H26       1.0  0.29595  0.81881  0.39036  1.0000
  H   H27       1.0  0.32519  0.78760  0.39001  1.0000
  N   N12       1.0  0.30289  0.72477  0.40166  1.0000
  C   C35       1.0  0.29804  0.55064  0.40441  1.0000
  C   C36       1.0  0.26215  0.53216  0.39663  1.0000
  C   C37       1.0  0.24357  0.99633  0.39679  1.0000
  H   H28       1.0  0.21765  0.98444  0.39033  1.0000
  H   H29       1.0  0.24886  0.54488  0.38999  1.0000
  N   N13       1.0  0.31169  0.58542  0.40167  1.0000
  C   C38       1.0  0.04013  0.75453  0.39677  1.0000
  H   H30       1.0  0.05202  0.74051  0.39031  1.0000
  C   C39       1.0  0.19900  0.88222  0.39980  1.0000
  N   N14       1.0  0.16521  0.85814  0.39977  1.0000
  C   C40       1.0  0.15424  0.82408  0.39979  1.0000
  N   N15       1.0  0.17832  0.81436  0.39976  1.0000
  C   C41       1.0  0.21238  0.83746  0.39980  1.0000
  N   N16       1.0  0.22209  0.87125  0.39978  1.0000
  C   C42       1.0  0.23729  0.82744  0.39954  1.0000
  C   C43       1.0  0.20902  0.91714  0.39956  1.0000
  C   C44       1.0  0.11932  0.79917  0.39954  1.0000
  H   H31       1.0  0.11273  0.77406  0.39800  1.0000
  H   H32       1.0  0.19050  0.92373  0.39800  1.0000
  H   H33       1.0  0.26240  0.84596  0.39800  1.0000
  C   C45       1.0  0.34839  0.64800  0.40094  1.0000
  N   N17       1.0  0.38114  0.67464  0.40103  1.0000
  C   C46       1.0  0.38846  0.70768  0.40095  1.0000
  N   N18       1.0  0.36182  0.71379  0.40102  1.0000
  C   C47       1.0  0.32878  0.68807  0.40094  1.0000
  N   N19       1.0  0.32267  0.65532  0.40102  1.0000
  C   C48       1.0  0.30088  0.69372  0.40190  1.0000
  C   C49       1.0  0.34274  0.61446  0.40191  1.0000
  H   H34       1.0  0.36409  0.61253  0.40164  1.0000
  H   H35       1.0  0.27760  0.67237  0.40162  1.0000
  C   C50       1.0  0.24610  0.77636  0.40397  1.0000
  C   C51       1.0  0.22756  0.74010  0.41267  1.0000
  C   C52       1.0  0.24537  0.72115  0.41442  1.0000
  C   C53       1.0  0.18942  0.72210  0.41992  1.0000
  H   H36       1.0  0.17835  0.73854  0.41352  1.0000
  H   H37       1.0  0.18146  0.70957  0.48659  1.0000
  H   H38       1.0  0.17809  0.70307  0.36556  1.0000
  C   C54       1.0  0.22658  0.68341  0.42826  1.0000
  H   H39       1.0  0.23738  0.67701  0.48675  1.0000
  H   H40       1.0  0.22852  0.67102  0.36621  1.0000
  H   H41       1.0  0.19955  0.67199  0.44293  1.0000
  N   N20       1.0  0.22915  0.79427  0.40344  1.0000
  C   C55       1.0  0.26010  0.97704  0.40400  1.0000
  C   C56       1.0  0.29636  0.99476  0.41271  1.0000
  C   C57       1.0  0.31531  0.53151  0.41446  1.0000
  C   C58       1.0  0.31435  0.97461  0.41996  1.0000
  H   H42       1.0  0.29792  0.94711  0.41355  1.0000
  H   H43       1.0  0.32689  0.97919  0.48664  1.0000
  H   H44       1.0  0.33339  0.98231  0.36561  1.0000
  C   C59       1.0  0.35305  0.55047  0.42831  1.0000
  H   H45       1.0  0.35944  0.56766  0.48680  1.0000
  H   H46       1.0  0.36544  0.56479  0.36626  1.0000
  H   H47       1.0  0.36447  0.53486  0.44300  1.0000
  N   N21       1.0  0.24219  0.94217  0.40346  1.0000
  C   C60       1.0  0.05942  0.79035  0.40399  1.0000
  C   C61       1.0  0.04170  0.80890  0.41271  1.0000
  C   C62       1.0  0.06185  0.84703  0.41997  1.0000
  H   H48       1.0  0.08935  0.85811  0.41355  1.0000
  H   H49       1.0  0.05727  0.85499  0.48665  1.0000
  H   H50       1.0  0.05414  0.85837  0.36563  1.0000
  N   N22       1.0  0.09428  0.80731  0.40345  1.0000
  C   C63       1.0  0.48582  0.25470  0.40441  1.0000
  C   C64       1.0  0.50430  0.23728  0.39663  1.0000
  H   H51       1.0  0.49158  0.21127  0.38998  1.0000
  N   N23       1.0  0.45104  0.23357  0.40167  1.0000
  C   C65       1.0  0.42200  0.23558  0.40192  1.0000
  H   H52       1.0  0.42393  0.25886  0.40162  1.0000
  C   C66       1.0  0.50495  0.29109  0.41446  1.0000
  C   C67       1.0  0.48599  0.30987  0.42835  1.0000
  H   H53       1.0  0.46879  0.29906  0.48682  1.0000
  H   H54       1.0  0.47168  0.30795  0.36629  1.0000
  H   H55       1.0  0.50160  0.33690  0.44306  1.0000
  C   C68       1.0  0.48582  0.75470  0.40441  1.0000
  C   C69       1.0  0.50430  0.73728  0.39663  1.0000
  H   H56       1.0  0.49158  0.71127  0.38998  1.0000
  N   N24       1.0  0.45104  0.73356  0.40167  1.0000
  C   C70       1.0  0.42200  0.73558  0.40192  1.0000
  H   H57       1.0  0.42393  0.75886  0.40162  1.0000
  C   C71       1.0  0.50495  0.79109  0.41446  1.0000
  C   C72       1.0  0.48599  0.80987  0.42835  1.0000
  H   H58       1.0  0.46879  0.79906  0.48682  1.0000
  H   H59       1.0  0.47167  0.80795  0.36629  1.0000
  H   H60       1.0  0.50160  0.83690  0.44306  1.0000
  C   C73       1.0  0.54013  0.25453  0.39677  1.0000
  H   H61       1.0  0.55202  0.24051  0.39031  1.0000
  C   C74       1.0  0.55942  0.29035  0.40399  1.0000
  C   C75       1.0  0.54170  0.30889  0.41271  1.0000
  C   C76       1.0  0.56185  0.34703  0.41997  1.0000
  H   H62       1.0  0.55727  0.35499  0.48665  1.0000
  H   H63       1.0  0.55414  0.35837  0.36563  1.0000
  C   C77       1.0  0.54013  0.75453  0.39677  1.0000
  H   H64       1.0  0.55202  0.74051  0.39031  1.0000
  C   C78       1.0  0.55942  0.79035  0.40399  1.0000
  C   C79       1.0  0.54170  0.80890  0.41271  1.0000
  C   C80       1.0  0.56185  0.84703  0.41997  1.0000
  H   H65       1.0  0.55727  0.85499  0.48665  1.0000
  H   H66       1.0  0.55414  0.85837  0.36563  1.0000
  N   N25       1.0  0.66521  0.35814  0.39977  1.0000
  C   C81       1.0  0.65424  0.32408  0.39979  1.0000
  N   N26       1.0  0.67832  0.31436  0.39976  1.0000
  C   C82       1.0  0.61932  0.29917  0.39954  1.0000
  H   H67       1.0  0.61273  0.27406  0.39800  1.0000
  H   H68       1.0  0.67835  0.23854  0.41352  1.0000
  H   H69       1.0  0.68146  0.20957  0.48659  1.0000
  H   H70       1.0  0.67809  0.20307  0.36556  1.0000
  H   H71       1.0  0.58935  0.35811  0.41355  1.0000
  N   N27       1.0  0.59428  0.30731  0.40345  1.0000
  N   N28       1.0  0.66521  0.85814  0.39977  1.0000
  C   C83       1.0  0.65424  0.82408  0.39979  1.0000
  N   N29       1.0  0.67832  0.81436  0.39976  1.0000
  C   C84       1.0  0.61932  0.79917  0.39954  1.0000
  H   H72       1.0  0.61273  0.77406  0.39800  1.0000
  H   H73       1.0  0.67835  0.73854  0.41352  1.0000
  H   H74       1.0  0.68146  0.70957  0.48659  1.0000
  H   H75       1.0  0.67809  0.70307  0.36556  1.0000
  H   H76       1.0  0.58935  0.85811  0.41355  1.0000
  N   N30       1.0  0.59429  0.80731  0.40345  1.0000
  C   C85       1.0  0.78176  0.23842  0.40439  1.0000
  C   C86       1.0  0.79918  0.27431  0.39662  1.0000
  C   C87       1.0  0.78193  0.29289  0.39676  1.0000
  H   H77       1.0  0.79595  0.31881  0.39036  1.0000
  H   H78       1.0  0.82519  0.28760  0.39001  1.0000
  N   N31       1.0  0.80289  0.22477  0.40166  1.0000
  C   C88       1.0  0.79804  0.05064  0.40441  1.0000
  C   C89       1.0  0.76215  0.03216  0.39663  1.0000
  C   C90       1.0  0.74357  0.49633  0.39679  1.0000
  H   H79       1.0  0.71765  0.48444  0.39033  1.0000
  H   H80       1.0  0.74886  0.04488  0.38999  1.0000
  N   N32       1.0  0.81169  0.08542  0.40167  1.0000
  C   C91       1.0  0.98582  0.25470  0.40441  1.0000
  C   C92       1.0  0.00430  0.23728  0.39663  1.0000
  H   H81       1.0  0.99158  0.21127  0.38998  1.0000
  N   N33       1.0  0.95104  0.23357  0.40167  1.0000
  C   C93       1.0  0.69900  0.38222  0.39980  1.0000
  C   C94       1.0  0.71238  0.33746  0.39980  1.0000
  N   N34       1.0  0.72210  0.37125  0.39978  1.0000
  C   C95       1.0  0.73729  0.32744  0.39954  1.0000
  C   C96       1.0  0.70902  0.41714  0.39956  1.0000
  H   H82       1.0  0.69050  0.42373  0.39800  1.0000
  H   H83       1.0  0.76240  0.34596  0.39800  1.0000
  C   C97       1.0  0.84839  0.14800  0.40094  1.0000
  N   N35       1.0  0.88114  0.17464  0.40103  1.0000
  C   C98       1.0  0.88846  0.20768  0.40095  1.0000
  N   N36       1.0  0.86182  0.21379  0.40102  1.0000
  C   C99       1.0  0.82878  0.18807  0.40094  1.0000
  N   N37       1.0  0.82267  0.15532  0.40102  1.0000
  C   C100      1.0  0.80088  0.19372  0.40190  1.0000
  C   C101      1.0  0.84274  0.11446  0.40191  1.0000
  C   C102      1.0  0.92200  0.23558  0.40192  1.0000
  H   H84       1.0  0.92393  0.25886  0.40162  1.0000
  H   H85       1.0  0.86409  0.11253  0.40164  1.0000
  H   H86       1.0  0.77760  0.17237  0.40162  1.0000
  C   C103      1.0  0.74611  0.27636  0.40397  1.0000
  C   C104      1.0  0.72756  0.24010  0.41267  1.0000
  C   C105      1.0  0.74537  0.22115  0.41442  1.0000
  C   C106      1.0  0.68942  0.22210  0.41992  1.0000
  C   C107      1.0  0.72658  0.18341  0.42826  1.0000
  H   H87       1.0  0.73738  0.17701  0.48675  1.0000
  H   H88       1.0  0.72852  0.17102  0.36621  1.0000
  H   H89       1.0  0.69955  0.17199  0.44293  1.0000
  N   N38       1.0  0.72915  0.29427  0.40344  1.0000
  C   C108      1.0  0.76010  0.47704  0.40400  1.0000
  C   C109      1.0  0.79636  0.49476  0.41271  1.0000
  C   C110      1.0  0.81531  0.03151  0.41446  1.0000
  C   C111      1.0  0.81435  0.47461  0.41996  1.0000
  H   H90       1.0  0.79792  0.44711  0.41355  1.0000
  H   H91       1.0  0.82689  0.47919  0.48664  1.0000
  H   H92       1.0  0.83339  0.48231  0.36561  1.0000
  C   C112      1.0  0.85305  0.05047  0.42831  1.0000
  H   H93       1.0  0.85944  0.06767  0.48680  1.0000
  H   H94       1.0  0.86544  0.06479  0.36626  1.0000
  H   H95       1.0  0.86447  0.03486  0.44300  1.0000
  N   N39       1.0  0.74219  0.44218  0.40346  1.0000
  C   C113      1.0  0.00495  0.29109  0.41446  1.0000
  C   C114      1.0  0.98599  0.30987  0.42835  1.0000
  H   H96       1.0  0.96879  0.29906  0.48682  1.0000
  H   H97       1.0  0.97167  0.30795  0.36629  1.0000
  H   H98       1.0  0.00160  0.33690  0.44306  1.0000
  C   C115      1.0  0.78176  0.73842  0.40439  1.0000
  C   C116      1.0  0.79918  0.77431  0.39662  1.0000
  C   C117      1.0  0.78193  0.79289  0.39676  1.0000
  H   H99       1.0  0.79595  0.81881  0.39036  1.0000
  H   H100      1.0  0.82519  0.78760  0.39001  1.0000
  N   N40       1.0  0.80289  0.72477  0.40166  1.0000
  C   C118      1.0  0.79804  0.55064  0.40441  1.0000
  C   C119      1.0  0.76215  0.53216  0.39663  1.0000
  C   C120      1.0  0.74357  0.99633  0.39679  1.0000
  H   H101      1.0  0.71765  0.98444  0.39033  1.0000
  H   H102      1.0  0.74886  0.54488  0.38999  1.0000
  N   N41       1.0  0.81169  0.58542  0.40167  1.0000
  C   C121      1.0  0.98582  0.75470  0.40441  1.0000
  C   C122      1.0  0.00430  0.73728  0.39663  1.0000
  H   H103      1.0  0.99158  0.71127  0.38998  1.0000
  N   N42       1.0  0.95104  0.73356  0.40167  1.0000
  C   C123      1.0  0.69900  0.88222  0.39980  1.0000
  C   C124      1.0  0.71239  0.83746  0.39980  1.0000
  N   N43       1.0  0.72209  0.87125  0.39978  1.0000
  C   C125      1.0  0.73729  0.82744  0.39954  1.0000
  C   C126      1.0  0.70902  0.91714  0.39956  1.0000
  H   H104      1.0  0.69050  0.92373  0.39800  1.0000
  H   H105      1.0  0.76240  0.84596  0.39800  1.0000
  C   C127      1.0  0.84839  0.64800  0.40094  1.0000
  N   N44       1.0  0.88114  0.67464  0.40103  1.0000
  C   C128      1.0  0.88846  0.70768  0.40095  1.0000
  N   N45       1.0  0.86182  0.71379  0.40102  1.0000
  C   C129      1.0  0.82878  0.68807  0.40094  1.0000
  N   N46       1.0  0.82267  0.65532  0.40102  1.0000
  C   C130      1.0  0.80088  0.69372  0.40190  1.0000
  C   C131      1.0  0.84274  0.61446  0.40191  1.0000
  C   C132      1.0  0.92200  0.73558  0.40192  1.0000
  H   H106      1.0  0.92393  0.75886  0.40162  1.0000
  H   H107      1.0  0.86409  0.61253  0.40164  1.0000
  H   H108      1.0  0.77760  0.67237  0.40162  1.0000
  C   C133      1.0  0.74610  0.77636  0.40397  1.0000
  C   C134      1.0  0.72756  0.74010  0.41267  1.0000
  C   C135      1.0  0.74537  0.72115  0.41442  1.0000
  C   C136      1.0  0.68942  0.72210  0.41992  1.0000
  C   C137      1.0  0.72658  0.68341  0.42826  1.0000
  H   H109      1.0  0.73738  0.67701  0.48675  1.0000
  H   H110      1.0  0.72852  0.67102  0.36621  1.0000
  H   H111      1.0  0.69955  0.67199  0.44293  1.0000
  N   N47       1.0  0.72915  0.79427  0.40344  1.0000
  C   C138      1.0  0.76010  0.97704  0.40400  1.0000
  C   C139      1.0  0.79636  0.99476  0.41271  1.0000
  C   C140      1.0  0.81531  0.53151  0.41446  1.0000
  C   C141      1.0  0.81435  0.97461  0.41996  1.0000
  H   H112      1.0  0.79792  0.94711  0.41355  1.0000
  H   H113      1.0  0.82689  0.97919  0.48664  1.0000
  H   H114      1.0  0.83339  0.98231  0.36561  1.0000
  C   C142      1.0  0.85305  0.55047  0.42831  1.0000
  H   H115      1.0  0.85944  0.56766  0.48680  1.0000
  H   H116      1.0  0.86544  0.56479  0.36626  1.0000
  H   H117      1.0  0.86447  0.53486  0.44300  1.0000
  N   N48       1.0  0.74219  0.94217  0.40346  1.0000
  C   C143      1.0  0.00495  0.79109  0.41446  1.0000
  C   C144      1.0  0.98599  0.80987  0.42835  1.0000
  H   H118      1.0  0.96879  0.79906  0.48682  1.0000
  H   H119      1.0  0.97167  0.80795  0.36629  1.0000
  H   H120      1.0  0.00160  0.83690  0.44306  1.0000
