data_image0
_chemical_formula_structural       NC3H4CH4CN3HCN3HN2HC29H17C3O3C29H17C3O3C3NH3NHC3NH3NHC2NH3NH
_chemical_formula_sum              "N15 C78 H57 O6"
_cell_length_a       44.8814
_cell_length_b       44.8814
_cell_length_c       14.9761
_cell_angle_alpha    90
_cell_angle_beta     90
_cell_angle_gamma    120

_space_group_name_H-M_alt    "P 1"
_space_group_IT_number       1

loop_
  _space_group_symop_operation_xyz
  'x, y, z'

loop_
  _atom_site_type_symbol
  _atom_site_label
  _atom_site_symmetry_multiplicity
  _atom_site_fract_x
  _atom_site_fract_y
  _atom_site_fract_z
  _atom_site_occupancy
  N   N1        1.0  0.01445  0.49970  0.28245  1.0000
  C   C1        1.0  0.02265  0.51705  0.43349  1.0000
  C   C2        1.0  0.03690  0.51717  0.34934  1.0000
  C   C3        1.0  0.40870  0.85569  0.34290  1.0000
  H   H1        1.0  0.39830  0.87143  0.34403  1.0000
  H   H2        1.0  0.36022  0.81105  0.33091  1.0000
  H   H3        1.0  0.47476  0.60374  0.34411  1.0000
  H   H4        1.0  0.13056  0.52724  0.34400  1.0000
  C   C4        1.0  0.59272  0.14581  0.33929  1.0000
  H   H5        1.0  0.60372  0.13061  0.33968  1.0000
  H   H6        1.0  0.64050  0.19128  0.35036  1.0000
  H   H7        1.0  0.52847  0.39825  0.33957  1.0000
  H   H8        1.0  0.87136  0.47354  0.33956  1.0000
  C   C5        1.0  0.48487  0.52018  0.34932  1.0000
  N   N2        1.0  0.51767  0.49717  0.29231  1.0000
  N   N3        1.0  0.50233  0.51519  0.28243  1.0000
  N   N4        1.0  0.47022  0.54015  0.33360  1.0000
  H   H9        1.0  0.48145  0.55805  0.28855  1.0000
  C   C6        1.0  0.48187  0.96508  0.34928  1.0000
  N   N5        1.0  0.50483  0.02090  0.29235  1.0000
  N   N6        1.0  0.48682  0.98754  0.28244  1.0000
  N   N7        1.0  0.46190  0.93046  0.33354  1.0000
  H   H10       1.0  0.44398  0.92379  0.28855  1.0000
  N   N8        1.0  0.98109  0.48436  0.29232  1.0000
  N   N9        1.0  0.07152  0.53178  0.33366  1.0000
  H   H11       1.0  0.07818  0.52056  0.28856  1.0000
  C   C7        1.0  0.44459  0.86940  0.35330  1.0000
  C   C8        1.0  0.45697  0.84591  0.35608  1.0000
  C   C9        1.0  0.43448  0.81022  0.34876  1.0000
  C   C10       1.0  0.39869  0.79676  0.33863  1.0000
  C   C11       1.0  0.38609  0.81998  0.33609  1.0000
  C   C12       1.0  0.37587  0.76153  0.33818  1.0000
  C   C13       1.0  0.37870  0.73927  0.28352  1.0000
  C   C14       1.0  0.35658  0.70383  0.28531  1.0000
  C   C15       1.0  0.32039  0.68920  0.28463  1.0000
  C   C16       1.0  0.29815  0.65314  0.28525  1.0000
  C   C17       1.0  0.31278  0.63159  0.28459  1.0000
  C   C18       1.0  0.34884  0.64540  0.28525  1.0000
  C   C19       1.0  0.37039  0.68159  0.28463  1.0000
  C   C20       1.0  0.36217  0.62329  0.28346  1.0000
  C   C21       1.0  0.38725  0.62611  0.33812  1.0000
  C   C22       1.0  0.39968  0.60331  0.33853  1.0000
  C   C23       1.0  0.43550  0.61592  0.33607  1.0000
  C   C24       1.0  0.37737  0.56752  0.34871  1.0000
  C   C25       1.0  0.39058  0.54504  0.35605  1.0000
  C   C26       1.0  0.42645  0.55744  0.35330  1.0000
  C   C27       1.0  0.44863  0.59333  0.34282  1.0000
  C   C28       1.0  0.26271  0.63981  0.28344  1.0000
  C   C29       1.0  0.24045  0.61472  0.33810  1.0000
  C   C30       1.0  0.20522  0.60231  0.33854  1.0000
  C   C31       1.0  0.19175  0.62462  0.34879  1.0000
  C   C32       1.0  0.18201  0.56649  0.33605  1.0000
  C   C33       1.0  0.14629  0.55337  0.34285  1.0000
  C   C34       1.0  0.13258  0.57555  0.35330  1.0000
  C   C35       1.0  0.15607  0.61142  0.35613  1.0000
  H   H12       1.0  0.48264  0.85450  0.36431  1.0000
  H   H13       1.0  0.44442  0.79412  0.35331  1.0000
  H   H14       1.0  0.39658  0.69190  0.28338  1.0000
  H   H15       1.0  0.31008  0.70507  0.28339  1.0000
  H   H16       1.0  0.29691  0.60540  0.28332  1.0000
  H   H17       1.0  0.20785  0.65067  0.35332  1.0000
  H   H18       1.0  0.45243  0.64179  0.33086  1.0000
  H   H19       1.0  0.37350  0.51937  0.36435  1.0000
  H   H20       1.0  0.35132  0.55757  0.35322  1.0000
  H   H21       1.0  0.14747  0.62850  0.36443  1.0000
  H   H22       1.0  0.19094  0.54956  0.33078  1.0000
  H   H23       1.0  0.39777  0.64556  0.38131  1.0000
  H   H24       1.0  0.35149  0.60359  0.24101  1.0000
  H   H25       1.0  0.35642  0.75261  0.38137  1.0000
  H   H26       1.0  0.39841  0.74830  0.24110  1.0000
  H   H27       1.0  0.24938  0.60419  0.38126  1.0000
  H   H28       1.0  0.25369  0.65051  0.24107  1.0000
  C   C36       1.0  0.09663  0.56241  0.36728  1.0000
  C   C37       1.0  0.43961  0.53465  0.36732  1.0000
  C   C38       1.0  0.46741  0.90535  0.36720  1.0000
  O   O1        1.0  0.41945  0.50518  0.41294  1.0000
  O   O2        1.0  0.49685  0.91464  0.41294  1.0000
  O   O3        1.0  0.08734  0.58255  0.41305  1.0000
  C   C39       1.0  0.55662  0.13109  0.33119  1.0000
  C   C40       1.0  0.54321  0.15369  0.32753  1.0000
  C   C41       1.0  0.56494  0.18957  0.33354  1.0000
  C   C42       1.0  0.60097  0.20410  0.34166  1.0000
  C   C43       1.0  0.61452  0.18168  0.34480  1.0000
  C   C44       1.0  0.62300  0.23939  0.34914  1.0000
  C   C45       1.0  0.62250  0.26271  0.29365  1.0000
  C   C46       1.0  0.64508  0.29792  0.29980  1.0000
  C   C47       1.0  0.68114  0.31164  0.29916  1.0000
  C   C48       1.0  0.70406  0.34756  0.29978  1.0000
  C   C49       1.0  0.69035  0.36989  0.29918  1.0000
  C   C50       1.0  0.65443  0.35690  0.29978  1.0000
  C   C51       1.0  0.63209  0.32084  0.29919  1.0000
  C   C52       1.0  0.64180  0.37948  0.29364  1.0000
  C   C53       1.0  0.61798  0.37898  0.34915  1.0000
  C   C54       1.0  0.60471  0.40100  0.34168  1.0000
  C   C55       1.0  0.56874  0.38745  0.34477  1.0000
  C   C56       1.0  0.62621  0.43703  0.33356  1.0000
  C   C57       1.0  0.61207  0.45876  0.32753  1.0000
  C   C58       1.0  0.57605  0.44535  0.33114  1.0000
  C   C59       1.0  0.55467  0.40925  0.33925  1.0000
  C   C60       1.0  0.73927  0.36018  0.29363  1.0000
  C   C61       1.0  0.76259  0.38400  0.34914  1.0000
  C   C62       1.0  0.79789  0.39728  0.34164  1.0000
  C   C63       1.0  0.81242  0.37579  0.33350  1.0000
  C   C64       1.0  0.82030  0.43326  0.34474  1.0000
  C   C65       1.0  0.85617  0.44734  0.33919  1.0000
  C   C66       1.0  0.87090  0.42597  0.33109  1.0000
  C   C67       1.0  0.84830  0.38995  0.32749  1.0000
  H   H29       1.0  0.51726  0.14422  0.32273  1.0000
  H   H30       1.0  0.55415  0.20498  0.33265  1.0000
  H   H31       1.0  0.60601  0.31116  0.29656  1.0000
  H   H32       1.0  0.69083  0.29524  0.29656  1.0000
  H   H33       1.0  0.70674  0.39598  0.29655  1.0000
  H   H34       1.0  0.79703  0.34959  0.33261  1.0000
  H   H35       1.0  0.55237  0.36147  0.35031  1.0000
  H   H36       1.0  0.62855  0.48472  0.32272  1.0000
  H   H37       1.0  0.65242  0.44783  0.33268  1.0000
  H   H38       1.0  0.85778  0.37348  0.32261  1.0000
  H   H39       1.0  0.81068  0.44962  0.35033  1.0000
  H   H40       1.0  0.60830  0.36118  0.39693  1.0000
  H   H41       1.0  0.65135  0.39707  0.24537  1.0000
  H   H42       1.0  0.64080  0.24750  0.39693  1.0000
  H   H43       1.0  0.60491  0.25468  0.24536  1.0000
  H   H44       1.0  0.75448  0.39369  0.39692  1.0000
  H   H45       1.0  0.74731  0.35064  0.24534  1.0000
  C   C68       1.0  0.90728  0.44006  0.32576  1.0000
  C   C69       1.0  0.56198  0.46765  0.32585  1.0000
  C   C70       1.0  0.53431  0.09471  0.32595  1.0000
  O   O4        1.0  0.58010  0.49753  0.28017  1.0000
  O   O5        1.0  0.50445  0.08295  0.28021  1.0000
  O   O6        1.0  0.91903  0.42192  0.28018  1.0000
  C   C71       1.0  0.48496  0.50602  0.43346  1.0000
  C   C72       1.0  0.50167  0.48666  0.44562  1.0000
  C   C73       1.0  0.51845  0.48211  0.37054  1.0000
  N   N10       1.0  0.50199  0.47434  0.52839  1.0000
  H   H46       1.0  0.49104  0.47868  0.57889  1.0000
  H   H47       1.0  0.51508  0.46299  0.54136  1.0000
  H   H48       1.0  0.47380  0.51082  0.48692  1.0000
  N   N11       1.0  0.53335  0.46182  0.37208  1.0000
  H   H49       1.0  0.52278  0.44188  0.41123  1.0000
  C   C74       1.0  0.49600  0.97932  0.43344  1.0000
  C   C75       1.0  0.51534  0.01539  0.44564  1.0000
  C   C76       1.0  0.51988  0.03672  0.37058  1.0000
  N   N12       1.0  0.52766  0.02803  0.52841  1.0000
  H   H50       1.0  0.52333  0.01272  0.57890  1.0000
  H   H51       1.0  0.53900  0.05246  0.54140  1.0000
  H   H52       1.0  0.49122  0.96336  0.48689  1.0000
  N   N13       1.0  0.54016  0.07192  0.37215  1.0000
  H   H53       1.0  0.56010  0.08129  0.41131  1.0000
  C   C77       1.0  0.98658  0.50034  0.44566  1.0000
  C   C78       1.0  0.96526  0.48359  0.37055  1.0000
  N   N14       1.0  0.97394  0.49998  0.52845  1.0000
  H   H54       1.0  0.98923  0.51110  0.57887  1.0000
  H   H55       1.0  0.94949  0.48709  0.54134  1.0000
  H   H56       1.0  0.03861  0.52816  0.48698  1.0000
  N   N15       1.0  0.93006  0.46866  0.37212  1.0000
  H   H57       1.0  0.92068  0.47923  0.41123  1.0000
