data_image0
_chemical_formula_structural       C5H2CH4CH2NHC3H2CH4CH2NHC3H2CH4CH2NHNCNCNC3O3NCNCNC3O3C3NC2NCHCH3NHC3NC2NCHCH3NHC3NC2NCHCH3NHC5H2CH4CH2NHC3H2CH4CH2NHC3H2CH4CH2NHNCNCNC3O3NCNCNC3O3C3NC2NCHCH3NHC3NC2NCHCH3NHC3NC2NCHCH3NHC5H2CH4CH2NHC3H2CH4CH2NHC3H2CH4CH2NHNCNCNC3O3NCNCNC3O3C3NC2NCHCH3NHC3NC2NCHCH3NHC3NC2NCHCH3NHC5H2CH4CH2NHC3H2CH4CH2NHC3H2CH4CH2NHNCNCNC3O3NCNCNC3O3C3NC2NCHCH3NHC3NC2NCHCH3NHC3NC2NCHCH3NH
_chemical_formula_sum              "C192 H168 N72 O24"
_cell_length_a       43.4237
_cell_length_b       43.4237
_cell_length_c       15.0305
_cell_angle_alpha    90
_cell_angle_beta     90
_cell_angle_gamma    120

_space_group_name_H-M_alt    "P 1"
_space_group_IT_number       1

loop_
  _space_group_symop_operation_xyz
  'x, y, z'

loop_
  _atom_site_type_symbol
  _atom_site_label
  _atom_site_symmetry_multiplicity
  _atom_site_fract_x
  _atom_site_fract_y
  _atom_site_fract_z
  _atom_site_occupancy
  C   C1        1.0  0.12889  0.31661  0.28534  1.0000
  C   C2        1.0  0.36515  0.16965  0.39220  1.0000
  C   C3        1.0  0.24902  0.28731  0.33437  1.0000
  C   C4        1.0  0.29559  0.27137  0.31913  1.0000
  C   C5        1.0  0.28004  0.29156  0.29243  1.0000
  H   H1        1.0  0.28946  0.30676  0.23617  1.0000
  H   H2        1.0  0.31513  0.27222  0.27965  1.0000
  C   C6        1.0  0.23895  0.21810  0.05142  1.0000
  H   H3        1.0  0.18491  0.20370  0.02186  1.0000
  H   H4        1.0  0.24792  0.24541  0.07203  1.0000
  H   H5        1.0  0.26116  0.21702  0.02054  1.0000
  H   H6        1.0  0.23079  0.20124  0.11054  1.0000
  C   C7        1.0  0.19014  0.27684  0.01289  1.0000
  H   H7        1.0  0.20063  0.26544  0.06045  1.0000
  H   H8        1.0  0.16949  0.27997  0.04602  1.0000
  N   N1        1.0  0.23246  0.30439  0.30042  1.0000
  H   H9        1.0  0.24684  0.32606  0.26615  1.0000
  C   C8        1.0  0.21018  0.46122  0.33422  1.0000
  C   C9        1.0  0.22623  0.02372  0.31874  1.0000
  C   C10       1.0  0.20594  0.48798  0.29223  1.0000
  H   H10       1.0  0.19076  0.48218  0.23593  1.0000
  H   H11       1.0  0.22531  0.04241  0.27939  1.0000
  C   C11       1.0  0.27934  0.02038  0.05130  1.0000
  H   H12       1.0  0.29371  0.98072  0.02185  1.0000
  H   H13       1.0  0.25202  0.00206  0.07189  1.0000
  H   H14       1.0  0.28043  0.04367  0.02037  1.0000
  H   H15       1.0  0.29619  0.02908  0.11044  1.0000
  C   C12       1.0  0.22056  0.41282  0.01285  1.0000
  H   H16       1.0  0.23196  0.43471  0.06040  1.0000
  H   H17       1.0  0.21743  0.38905  0.04603  1.0000
  N   N2        1.0  0.19306  0.42756  0.30042  1.0000
  H   H18       1.0  0.17144  0.42027  0.26590  1.0000
  C   C13       1.0  0.03628  0.24846  0.33446  1.0000
  C   C14       1.0  0.47377  0.20194  0.31910  1.0000
  C   C15       1.0  0.00950  0.21749  0.29240  1.0000
  H   H19       1.0  0.01532  0.20803  0.23628  1.0000
  H   H20       1.0  0.45509  0.18234  0.27970  1.0000
  C   C16       1.0  0.47709  0.25845  0.05150  1.0000
  H   H21       1.0  0.51675  0.31249  0.02206  1.0000
  H   H22       1.0  0.49541  0.24946  0.07209  1.0000
  H   H23       1.0  0.45380  0.23625  0.02058  1.0000
  H   H24       1.0  0.46839  0.26660  0.11064  1.0000
  C   C17       1.0  0.08464  0.30722  0.01308  1.0000
  H   H25       1.0  0.06275  0.29673  0.06062  1.0000
  H   H26       1.0  0.10841  0.32784  0.04626  1.0000
  N   N3        1.0  0.06994  0.26501  0.30063  1.0000
  H   H27       1.0  0.07721  0.25063  0.26626  1.0000
  N   N4        1.0  0.14969  0.35255  0.28623  1.0000
  C   C18       1.0  0.18569  0.36859  0.28521  1.0000
  N   N5        1.0  0.20084  0.34780  0.28616  1.0000
  C   C19       1.0  0.18089  0.31180  0.28526  1.0000
  N   N6        1.0  0.14495  0.29667  0.28629  1.0000
  C   C20       1.0  0.20678  0.40538  0.29818  1.0000
  C   C21       1.0  0.19657  0.29070  0.29831  1.0000
  C   C22       1.0  0.09211  0.30090  0.29843  1.0000
  O   O1        1.0  0.17437  0.25526  0.30951  1.0000
  O   O2        1.0  0.07885  0.32309  0.30960  1.0000
  O   O3        1.0  0.24223  0.41864  0.30936  1.0000
  N   N7        1.0  0.33578  0.13685  0.39157  1.0000
  C   C23       1.0  0.30248  0.13234  0.39212  1.0000
  N   N8        1.0  0.29905  0.16170  0.39156  1.0000
  C   C24       1.0  0.32784  0.19500  0.39220  1.0000
  N   N9        1.0  0.36064  0.19844  0.39164  1.0000
  C   C25       1.0  0.27244  0.09814  0.38854  1.0000
  C   C26       1.0  0.32368  0.22505  0.38872  1.0000
  C   C27       1.0  0.39935  0.17380  0.38869  1.0000
  O   O4        1.0  0.35310  0.25711  0.37438  1.0000
  O   O5        1.0  0.40198  0.14438  0.37433  1.0000
  O   O6        1.0  0.24039  0.09549  0.37403  1.0000
  C   C28       1.0  0.23732  0.26627  0.41264  1.0000
  C   C29       1.0  0.25305  0.24608  0.43974  1.0000
  C   C30       1.0  0.28143  0.24700  0.39079  1.0000
  N   N10       1.0  0.24135  0.22748  0.51700  1.0000
  C   C31       1.0  0.21625  0.22726  0.57151  1.0000
  C   C32       1.0  0.20109  0.24827  0.54555  1.0000
  N   N11       1.0  0.21256  0.26648  0.46766  1.0000
  C   C33       1.0  0.20731  0.20487  0.65275  1.0000
  H   H28       1.0  0.19925  0.17769  0.63261  1.0000
  C   C34       1.0  0.17430  0.25269  0.59697  1.0000
  H   H29       1.0  0.15248  0.22670  0.61689  1.0000
  H   H30       1.0  0.16269  0.26473  0.55456  1.0000
  H   H31       1.0  0.21153  0.30311  0.65980  1.0000
  N   N12       1.0  0.29219  0.22302  0.40928  1.0000
  H   H32       1.0  0.27522  0.20173  0.44159  1.0000
  C   C35       1.0  0.23121  0.47055  0.41253  1.0000
  C   C36       1.0  0.25143  0.00649  0.43957  1.0000
  C   C37       1.0  0.25055  0.03394  0.39053  1.0000
  N   N13       1.0  0.27000  0.01338  0.51687  1.0000
  C   C38       1.0  0.27019  0.98850  0.57143  1.0000
  C   C39       1.0  0.24917  0.45233  0.54550  1.0000
  N   N14       1.0  0.23098  0.44559  0.46758  1.0000
  C   C40       1.0  0.29256  0.00195  0.65270  1.0000
  H   H33       1.0  0.31976  0.02105  0.63259  1.0000
  C   C41       1.0  0.24473  0.42112  0.59696  1.0000
  H   H34       1.0  0.27071  0.42528  0.61693  1.0000
  H   H35       1.0  0.23268  0.39746  0.55457  1.0000
  H   H36       1.0  0.19430  0.40794  0.65973  1.0000
  N   N15       1.0  0.27449  0.06868  0.40912  1.0000
  H   H37       1.0  0.29575  0.07301  0.44157  1.0000
  C   C42       1.0  0.02693  0.26016  0.41273  1.0000
  C   C43       1.0  0.49100  0.24444  0.43978  1.0000
  C   C44       1.0  0.46355  0.21607  0.39081  1.0000
  N   N16       1.0  0.48410  0.25611  0.51708  1.0000
  C   C45       1.0  0.50898  0.28119  0.57163  1.0000
  C   C46       1.0  0.04515  0.29635  0.54572  1.0000
  N   N17       1.0  0.05189  0.28489  0.46781  1.0000
  C   C47       1.0  0.49552  0.29011  0.65291  1.0000
  H   H38       1.0  0.47642  0.29819  0.63279  1.0000
  C   C48       1.0  0.07635  0.32310  0.59719  1.0000
  H   H39       1.0  0.07220  0.34492  0.61718  1.0000
  H   H40       1.0  0.10001  0.33472  0.55481  1.0000
  H   H41       1.0  0.08951  0.28583  0.65994  1.0000
  N   N18       1.0  0.42881  0.20529  0.40933  1.0000
  H   H42       1.0  0.42449  0.22225  0.44171  1.0000
  C   C49       1.0  0.12889  0.81661  0.28534  1.0000
  C   C50       1.0  0.36515  0.66965  0.39220  1.0000
  C   C51       1.0  0.24902  0.78731  0.33437  1.0000
  C   C52       1.0  0.29559  0.77137  0.31913  1.0000
  C   C53       1.0  0.28004  0.79156  0.29243  1.0000
  H   H43       1.0  0.28946  0.80676  0.23617  1.0000
  H   H44       1.0  0.31513  0.77222  0.27965  1.0000
  C   C54       1.0  0.23895  0.71810  0.05142  1.0000
  H   H45       1.0  0.18491  0.70370  0.02186  1.0000
  H   H46       1.0  0.24792  0.74540  0.07203  1.0000
  H   H47       1.0  0.26116  0.71702  0.02054  1.0000
  H   H48       1.0  0.23078  0.70124  0.11054  1.0000
  C   C55       1.0  0.19014  0.77684  0.01289  1.0000
  H   H49       1.0  0.20062  0.76544  0.06045  1.0000
  H   H50       1.0  0.16949  0.77997  0.04602  1.0000
  N   N19       1.0  0.23246  0.80439  0.30042  1.0000
  H   H51       1.0  0.24684  0.82606  0.26615  1.0000
  C   C56       1.0  0.21018  0.96122  0.33422  1.0000
  C   C57       1.0  0.22623  0.52372  0.31874  1.0000
  C   C58       1.0  0.20594  0.98798  0.29223  1.0000
  H   H52       1.0  0.19075  0.98218  0.23593  1.0000
  H   H53       1.0  0.22531  0.54241  0.27939  1.0000
  C   C59       1.0  0.27934  0.52038  0.05130  1.0000
  H   H54       1.0  0.29371  0.48072  0.02185  1.0000
  H   H55       1.0  0.25202  0.50206  0.07189  1.0000
  H   H56       1.0  0.28043  0.54367  0.02037  1.0000
  H   H57       1.0  0.29619  0.52908  0.11044  1.0000
  C   C60       1.0  0.22056  0.91282  0.01285  1.0000
  H   H58       1.0  0.23196  0.93471  0.06040  1.0000
  H   H59       1.0  0.21743  0.88905  0.04603  1.0000
  N   N20       1.0  0.19306  0.92756  0.30042  1.0000
  H   H60       1.0  0.17144  0.92027  0.26590  1.0000
  C   C61       1.0  0.03628  0.74846  0.33446  1.0000
  C   C62       1.0  0.47377  0.70194  0.31910  1.0000
  C   C63       1.0  0.00950  0.71749  0.29240  1.0000
  H   H61       1.0  0.01532  0.70803  0.23628  1.0000
  H   H62       1.0  0.45509  0.68234  0.27970  1.0000
  C   C64       1.0  0.47709  0.75845  0.05150  1.0000
  H   H63       1.0  0.51675  0.81249  0.02206  1.0000
  H   H64       1.0  0.49541  0.74946  0.07209  1.0000
  H   H65       1.0  0.45380  0.73625  0.02058  1.0000
  H   H66       1.0  0.46839  0.76660  0.11064  1.0000
  C   C65       1.0  0.08464  0.80722  0.01308  1.0000
  H   H67       1.0  0.06274  0.79673  0.06062  1.0000
  H   H68       1.0  0.10841  0.82784  0.04626  1.0000
  N   N21       1.0  0.06994  0.76501  0.30063  1.0000
  H   H69       1.0  0.07721  0.75063  0.26626  1.0000
  N   N22       1.0  0.14969  0.85255  0.28623  1.0000
  C   C66       1.0  0.18569  0.86859  0.28521  1.0000
  N   N23       1.0  0.20084  0.84781  0.28616  1.0000
  C   C67       1.0  0.18089  0.81180  0.28526  1.0000
  N   N24       1.0  0.14495  0.79667  0.28629  1.0000
  C   C68       1.0  0.20678  0.90538  0.29818  1.0000
  C   C69       1.0  0.19657  0.79070  0.29831  1.0000
  C   C70       1.0  0.09211  0.80090  0.29843  1.0000
  O   O7        1.0  0.17437  0.75525  0.30951  1.0000
  O   O8        1.0  0.07885  0.82309  0.30960  1.0000
  O   O9        1.0  0.24223  0.91864  0.30936  1.0000
  N   N25       1.0  0.33578  0.63685  0.39157  1.0000
  C   C71       1.0  0.30248  0.63234  0.39212  1.0000
  N   N26       1.0  0.29905  0.66170  0.39156  1.0000
  C   C72       1.0  0.32784  0.69500  0.39220  1.0000
  N   N27       1.0  0.36064  0.69844  0.39164  1.0000
  C   C73       1.0  0.27244  0.59813  0.38854  1.0000
  C   C74       1.0  0.32368  0.72505  0.38872  1.0000
  C   C75       1.0  0.39935  0.67380  0.38869  1.0000
  O   O10       1.0  0.35310  0.75711  0.37438  1.0000
  O   O11       1.0  0.40198  0.64438  0.37433  1.0000
  O   O12       1.0  0.24039  0.59549  0.37403  1.0000
  C   C76       1.0  0.23731  0.76627  0.41264  1.0000
  C   C77       1.0  0.25305  0.74608  0.43974  1.0000
  C   C78       1.0  0.28142  0.74699  0.39079  1.0000
  N   N28       1.0  0.24135  0.72748  0.51700  1.0000
  C   C79       1.0  0.21625  0.72726  0.57151  1.0000
  C   C80       1.0  0.20109  0.74827  0.54555  1.0000
  N   N29       1.0  0.21256  0.76648  0.46766  1.0000
  C   C81       1.0  0.20731  0.70487  0.65275  1.0000
  H   H70       1.0  0.19925  0.67769  0.63261  1.0000
  C   C82       1.0  0.17430  0.75269  0.59697  1.0000
  H   H71       1.0  0.15248  0.72670  0.61689  1.0000
  H   H72       1.0  0.16269  0.76473  0.55456  1.0000
  H   H73       1.0  0.21152  0.80311  0.65980  1.0000
  N   N30       1.0  0.29218  0.72302  0.40928  1.0000
  H   H74       1.0  0.27522  0.70173  0.44159  1.0000
  C   C83       1.0  0.23121  0.97055  0.41253  1.0000
  C   C84       1.0  0.25143  0.50648  0.43957  1.0000
  C   C85       1.0  0.25055  0.53394  0.39053  1.0000
  N   N31       1.0  0.27000  0.51338  0.51687  1.0000
  C   C86       1.0  0.27019  0.48850  0.57143  1.0000
  C   C87       1.0  0.24916  0.95233  0.54550  1.0000
  N   N32       1.0  0.23098  0.94559  0.46758  1.0000
  C   C88       1.0  0.29256  0.50195  0.65270  1.0000
  H   H75       1.0  0.31975  0.52105  0.63259  1.0000
  C   C89       1.0  0.24473  0.92112  0.59696  1.0000
  H   H76       1.0  0.27071  0.92528  0.61693  1.0000
  H   H77       1.0  0.23268  0.89746  0.55457  1.0000
  H   H78       1.0  0.19430  0.90794  0.65973  1.0000
  N   N33       1.0  0.27449  0.56868  0.40912  1.0000
  H   H79       1.0  0.29575  0.57301  0.44157  1.0000
  C   C90       1.0  0.02693  0.76016  0.41273  1.0000
  C   C91       1.0  0.49100  0.74444  0.43978  1.0000
  C   C92       1.0  0.46355  0.71607  0.39081  1.0000
  N   N34       1.0  0.48410  0.75611  0.51708  1.0000
  C   C93       1.0  0.50898  0.78119  0.57163  1.0000
  C   C94       1.0  0.04515  0.79635  0.54572  1.0000
  N   N35       1.0  0.05189  0.78489  0.46781  1.0000
  C   C95       1.0  0.49552  0.79011  0.65291  1.0000
  H   H80       1.0  0.47642  0.79819  0.63279  1.0000
  C   C96       1.0  0.07635  0.82310  0.59719  1.0000
  H   H81       1.0  0.07219  0.84492  0.61718  1.0000
  H   H82       1.0  0.10001  0.83472  0.55481  1.0000
  H   H83       1.0  0.08951  0.78583  0.65994  1.0000
  N   N36       1.0  0.42881  0.70529  0.40933  1.0000
  H   H84       1.0  0.42449  0.72225  0.44171  1.0000
  C   C97       1.0  0.62889  0.31661  0.28534  1.0000
  C   C98       1.0  0.86515  0.16965  0.39220  1.0000
  C   C99       1.0  0.74903  0.28731  0.33437  1.0000
  C   C100      1.0  0.79558  0.27137  0.31913  1.0000
  C   C101      1.0  0.78004  0.29156  0.29243  1.0000
  H   H85       1.0  0.78946  0.30676  0.23617  1.0000
  H   H86       1.0  0.81513  0.27222  0.27965  1.0000
  C   C102      1.0  0.73895  0.21810  0.05142  1.0000
  H   H87       1.0  0.68491  0.20370  0.02186  1.0000
  H   H88       1.0  0.74792  0.24541  0.07203  1.0000
  H   H89       1.0  0.76116  0.21702  0.02054  1.0000
  H   H90       1.0  0.73079  0.20124  0.11054  1.0000
  C   C103      1.0  0.69014  0.27684  0.01289  1.0000
  H   H91       1.0  0.70062  0.26544  0.06045  1.0000
  H   H92       1.0  0.66949  0.27997  0.04602  1.0000
  N   N37       1.0  0.73246  0.30439  0.30042  1.0000
  H   H93       1.0  0.74684  0.32606  0.26615  1.0000
  C   C104      1.0  0.71018  0.46122  0.33422  1.0000
  C   C105      1.0  0.72623  0.02372  0.31874  1.0000
  C   C106      1.0  0.70594  0.48798  0.29223  1.0000
  H   H94       1.0  0.69076  0.48218  0.23593  1.0000
  H   H95       1.0  0.72531  0.04241  0.27939  1.0000
  C   C107      1.0  0.77934  0.02038  0.05130  1.0000
  H   H96       1.0  0.79371  0.98072  0.02185  1.0000
  H   H97       1.0  0.75202  0.00206  0.07189  1.0000
  H   H98       1.0  0.78043  0.04367  0.02037  1.0000
  H   H99       1.0  0.79619  0.02908  0.11044  1.0000
  C   C108      1.0  0.72056  0.41282  0.01285  1.0000
  H   H100      1.0  0.73196  0.43471  0.06040  1.0000
  H   H101      1.0  0.71743  0.38905  0.04603  1.0000
  N   N38       1.0  0.69306  0.42756  0.30042  1.0000
  H   H102      1.0  0.67144  0.42027  0.26590  1.0000
  C   C109      1.0  0.53628  0.24846  0.33446  1.0000
  C   C110      1.0  0.97377  0.20194  0.31910  1.0000
  C   C111      1.0  0.50950  0.21749  0.29240  1.0000
  H   H103      1.0  0.51532  0.20803  0.23628  1.0000
  H   H104      1.0  0.95509  0.18234  0.27970  1.0000
  C   C112      1.0  0.97709  0.25845  0.05150  1.0000
  H   H105      1.0  0.01675  0.31249  0.02206  1.0000
  H   H106      1.0  0.99541  0.24946  0.07209  1.0000
  H   H107      1.0  0.95380  0.23625  0.02058  1.0000
  H   H108      1.0  0.96839  0.26660  0.11064  1.0000
  C   C113      1.0  0.58464  0.30722  0.01308  1.0000
  H   H109      1.0  0.56275  0.29673  0.06062  1.0000
  H   H110      1.0  0.60841  0.32784  0.04626  1.0000
  N   N39       1.0  0.56994  0.26501  0.30063  1.0000
  H   H111      1.0  0.57721  0.25063  0.26626  1.0000
  N   N40       1.0  0.64969  0.35255  0.28623  1.0000
  C   C114      1.0  0.68569  0.36859  0.28521  1.0000
  N   N41       1.0  0.70084  0.34780  0.28616  1.0000
  C   C115      1.0  0.68089  0.31180  0.28526  1.0000
  N   N42       1.0  0.64495  0.29667  0.28629  1.0000
  C   C116      1.0  0.70678  0.40538  0.29818  1.0000
  C   C117      1.0  0.69657  0.29070  0.29831  1.0000
  C   C118      1.0  0.59211  0.30090  0.29843  1.0000
  O   O13       1.0  0.67437  0.25526  0.30951  1.0000
  O   O14       1.0  0.57885  0.32309  0.30960  1.0000
  O   O15       1.0  0.74223  0.41864  0.30936  1.0000
  N   N43       1.0  0.83578  0.13685  0.39157  1.0000
  C   C119      1.0  0.80248  0.13234  0.39212  1.0000
  N   N44       1.0  0.79905  0.16170  0.39156  1.0000
  C   C120      1.0  0.82783  0.19500  0.39220  1.0000
  N   N45       1.0  0.86064  0.19844  0.39164  1.0000
  C   C121      1.0  0.77244  0.09814  0.38854  1.0000
  C   C122      1.0  0.82368  0.22505  0.38872  1.0000
  C   C123      1.0  0.89935  0.17380  0.38869  1.0000
  O   O16       1.0  0.85310  0.25711  0.37438  1.0000
  O   O17       1.0  0.90198  0.14438  0.37433  1.0000
  O   O18       1.0  0.74039  0.09549  0.37403  1.0000
  C   C124      1.0  0.73732  0.26627  0.41264  1.0000
  C   C125      1.0  0.75305  0.24608  0.43974  1.0000
  C   C126      1.0  0.78143  0.24700  0.39079  1.0000
  N   N46       1.0  0.74135  0.22748  0.51700  1.0000
  C   C127      1.0  0.71625  0.22726  0.57151  1.0000
  C   C128      1.0  0.70109  0.24827  0.54555  1.0000
  N   N47       1.0  0.71256  0.26648  0.46766  1.0000
  C   C129      1.0  0.70731  0.20487  0.65275  1.0000
  H   H112      1.0  0.69925  0.17769  0.63261  1.0000
  C   C130      1.0  0.67430  0.25269  0.59697  1.0000
  H   H113      1.0  0.65248  0.22670  0.61689  1.0000
  H   H114      1.0  0.66269  0.26473  0.55456  1.0000
  H   H115      1.0  0.71153  0.30311  0.65980  1.0000
  N   N48       1.0  0.79219  0.22302  0.40928  1.0000
  H   H116      1.0  0.77522  0.20173  0.44159  1.0000
  C   C131      1.0  0.73121  0.47055  0.41253  1.0000
  C   C132      1.0  0.75143  0.00649  0.43957  1.0000
  C   C133      1.0  0.75055  0.03394  0.39053  1.0000
  N   N49       1.0  0.77000  0.01338  0.51687  1.0000
  C   C134      1.0  0.77019  0.98850  0.57143  1.0000
  C   C135      1.0  0.74916  0.45233  0.54550  1.0000
  N   N50       1.0  0.73098  0.44559  0.46758  1.0000
  C   C136      1.0  0.79256  0.00195  0.65270  1.0000
  H   H117      1.0  0.81975  0.02105  0.63259  1.0000
  C   C137      1.0  0.74473  0.42112  0.59696  1.0000
  H   H118      1.0  0.77071  0.42528  0.61693  1.0000
  H   H119      1.0  0.73268  0.39746  0.55457  1.0000
  H   H120      1.0  0.69429  0.40794  0.65973  1.0000
  N   N51       1.0  0.77449  0.06868  0.40912  1.0000
  H   H121      1.0  0.79575  0.07301  0.44157  1.0000
  C   C138      1.0  0.52693  0.26016  0.41273  1.0000
  C   C139      1.0  0.99099  0.24444  0.43978  1.0000
  C   C140      1.0  0.96354  0.21607  0.39081  1.0000
  N   N52       1.0  0.98410  0.25611  0.51708  1.0000
  C   C141      1.0  0.00897  0.28119  0.57163  1.0000
  C   C142      1.0  0.54515  0.29635  0.54572  1.0000
  N   N53       1.0  0.55189  0.28489  0.46781  1.0000
  C   C143      1.0  0.99552  0.29011  0.65291  1.0000
  H   H122      1.0  0.97642  0.29819  0.63279  1.0000
  C   C144      1.0  0.57635  0.32310  0.59719  1.0000
  H   H123      1.0  0.57220  0.34492  0.61718  1.0000
  H   H124      1.0  0.60001  0.33472  0.55481  1.0000
  H   H125      1.0  0.58952  0.28583  0.65994  1.0000
  N   N54       1.0  0.92881  0.20529  0.40933  1.0000
  H   H126      1.0  0.92449  0.22225  0.44171  1.0000
  C   C145      1.0  0.62889  0.81661  0.28534  1.0000
  C   C146      1.0  0.86515  0.66965  0.39220  1.0000
  C   C147      1.0  0.74902  0.78731  0.33437  1.0000
  C   C148      1.0  0.79558  0.77137  0.31913  1.0000
  C   C149      1.0  0.78004  0.79156  0.29243  1.0000
  H   H127      1.0  0.78946  0.80676  0.23617  1.0000
  H   H128      1.0  0.81513  0.77222  0.27965  1.0000
  C   C150      1.0  0.73895  0.71810  0.05142  1.0000
  H   H129      1.0  0.68491  0.70370  0.02186  1.0000
  H   H130      1.0  0.74792  0.74540  0.07203  1.0000
  H   H131      1.0  0.76116  0.71702  0.02054  1.0000
  H   H132      1.0  0.73079  0.70124  0.11054  1.0000
  C   C151      1.0  0.69014  0.77684  0.01289  1.0000
  H   H133      1.0  0.70062  0.76544  0.06045  1.0000
  H   H134      1.0  0.66949  0.77997  0.04602  1.0000
  N   N55       1.0  0.73246  0.80439  0.30042  1.0000
  H   H135      1.0  0.74684  0.82606  0.26615  1.0000
  C   C152      1.0  0.71018  0.96122  0.33422  1.0000
  C   C153      1.0  0.72623  0.52372  0.31874  1.0000
  C   C154      1.0  0.70594  0.98798  0.29223  1.0000
  H   H136      1.0  0.69076  0.98218  0.23593  1.0000
  H   H137      1.0  0.72531  0.54241  0.27939  1.0000
  C   C155      1.0  0.77933  0.52038  0.05130  1.0000
  H   H138      1.0  0.79371  0.48072  0.02185  1.0000
  H   H139      1.0  0.75202  0.50206  0.07189  1.0000
  H   H140      1.0  0.78043  0.54367  0.02037  1.0000
  H   H141      1.0  0.79619  0.52908  0.11044  1.0000
  C   C156      1.0  0.72056  0.91282  0.01285  1.0000
  H   H142      1.0  0.73196  0.93471  0.06040  1.0000
  H   H143      1.0  0.71743  0.88905  0.04603  1.0000
  N   N56       1.0  0.69306  0.92756  0.30042  1.0000
  H   H144      1.0  0.67144  0.92027  0.26590  1.0000
  C   C157      1.0  0.53628  0.74846  0.33446  1.0000
  C   C158      1.0  0.97377  0.70194  0.31910  1.0000
  C   C159      1.0  0.50950  0.71749  0.29240  1.0000
  H   H145      1.0  0.51532  0.70803  0.23628  1.0000
  H   H146      1.0  0.95509  0.68234  0.27970  1.0000
  C   C160      1.0  0.97709  0.75845  0.05150  1.0000
  H   H147      1.0  0.01675  0.81249  0.02206  1.0000
  H   H148      1.0  0.99541  0.74946  0.07209  1.0000
  H   H149      1.0  0.95380  0.73625  0.02058  1.0000
  H   H150      1.0  0.96839  0.76660  0.11064  1.0000
  C   C161      1.0  0.58464  0.80722  0.01308  1.0000
  H   H151      1.0  0.56275  0.79673  0.06062  1.0000
  H   H152      1.0  0.60841  0.82784  0.04626  1.0000
  N   N57       1.0  0.56993  0.76501  0.30063  1.0000
  H   H153      1.0  0.57721  0.75063  0.26626  1.0000
  N   N58       1.0  0.64969  0.85255  0.28623  1.0000
  C   C162      1.0  0.68569  0.86859  0.28521  1.0000
  N   N59       1.0  0.70084  0.84781  0.28616  1.0000
  C   C163      1.0  0.68089  0.81180  0.28526  1.0000
  N   N60       1.0  0.64495  0.79667  0.28629  1.0000
  C   C164      1.0  0.70678  0.90538  0.29818  1.0000
  C   C165      1.0  0.69657  0.79070  0.29831  1.0000
  C   C166      1.0  0.59211  0.80090  0.29843  1.0000
  O   O19       1.0  0.67437  0.75525  0.30951  1.0000
  O   O20       1.0  0.57885  0.82309  0.30960  1.0000
  O   O21       1.0  0.74223  0.91864  0.30936  1.0000
  N   N61       1.0  0.83578  0.63685  0.39157  1.0000
  C   C167      1.0  0.80248  0.63234  0.39212  1.0000
  N   N62       1.0  0.79904  0.66170  0.39156  1.0000
  C   C168      1.0  0.82783  0.69500  0.39220  1.0000
  N   N63       1.0  0.86064  0.69844  0.39164  1.0000
  C   C169      1.0  0.77244  0.59813  0.38854  1.0000
  C   C170      1.0  0.82368  0.72505  0.38872  1.0000
  C   C171      1.0  0.89935  0.67380  0.38869  1.0000
  O   O22       1.0  0.85310  0.75711  0.37438  1.0000
  O   O23       1.0  0.90198  0.64438  0.37433  1.0000
  O   O24       1.0  0.74039  0.59549  0.37403  1.0000
  C   C172      1.0  0.73731  0.76627  0.41264  1.0000
  C   C173      1.0  0.75305  0.74608  0.43974  1.0000
  C   C174      1.0  0.78143  0.74699  0.39079  1.0000
  N   N64       1.0  0.74135  0.72748  0.51700  1.0000
  C   C175      1.0  0.71625  0.72726  0.57151  1.0000
  C   C176      1.0  0.70109  0.74827  0.54555  1.0000
  N   N65       1.0  0.71256  0.76648  0.46766  1.0000
  C   C177      1.0  0.70731  0.70487  0.65275  1.0000
  H   H154      1.0  0.69925  0.67769  0.63261  1.0000
  C   C178      1.0  0.67430  0.75269  0.59697  1.0000
  H   H155      1.0  0.65248  0.72670  0.61689  1.0000
  H   H156      1.0  0.66269  0.76473  0.55456  1.0000
  H   H157      1.0  0.71153  0.80311  0.65980  1.0000
  N   N66       1.0  0.79219  0.72302  0.40928  1.0000
  H   H158      1.0  0.77522  0.70173  0.44159  1.0000
  C   C179      1.0  0.73121  0.97055  0.41253  1.0000
  C   C180      1.0  0.75143  0.50648  0.43957  1.0000
  C   C181      1.0  0.75055  0.53394  0.39053  1.0000
  N   N67       1.0  0.77000  0.51338  0.51687  1.0000
  C   C182      1.0  0.77019  0.48850  0.57143  1.0000
  C   C183      1.0  0.74916  0.95233  0.54550  1.0000
  N   N68       1.0  0.73098  0.94559  0.46758  1.0000
  C   C184      1.0  0.79256  0.50195  0.65270  1.0000
  H   H159      1.0  0.81975  0.52105  0.63259  1.0000
  C   C185      1.0  0.74473  0.92112  0.59696  1.0000
  H   H160      1.0  0.77071  0.92528  0.61693  1.0000
  H   H161      1.0  0.73268  0.89746  0.55457  1.0000
  H   H162      1.0  0.69429  0.90794  0.65973  1.0000
  N   N69       1.0  0.77449  0.56868  0.40912  1.0000
  H   H163      1.0  0.79575  0.57301  0.44157  1.0000
  C   C186      1.0  0.52693  0.76016  0.41273  1.0000
  C   C187      1.0  0.99100  0.74444  0.43978  1.0000
  C   C188      1.0  0.96354  0.71607  0.39081  1.0000
  N   N70       1.0  0.98410  0.75611  0.51708  1.0000
  C   C189      1.0  0.00898  0.78119  0.57163  1.0000
  C   C190      1.0  0.54515  0.79635  0.54572  1.0000
  N   N71       1.0  0.55189  0.78489  0.46781  1.0000
  C   C191      1.0  0.99552  0.79011  0.65291  1.0000
  H   H164      1.0  0.97641  0.79819  0.63279  1.0000
  C   C192      1.0  0.57635  0.82310  0.59719  1.0000
  H   H165      1.0  0.57219  0.84492  0.61718  1.0000
  H   H166      1.0  0.60001  0.83472  0.55481  1.0000
  H   H167      1.0  0.58951  0.78583  0.65994  1.0000
  N   N72       1.0  0.92881  0.70529  0.40933  1.0000
  H   H168      1.0  0.92449  0.72225  0.44171  1.0000
