data_image0
_chemical_formula_structural       NCH2C3O2CH3C2NCHNCHCHC21H13C24H15C2NC2O2CH3C2NC2O2CH3CN
_chemical_formula_sum              "N6 C66 H42 O6"
_cell_length_a       29.778
_cell_length_b       29.778
_cell_length_c       14.8236
_cell_angle_alpha    90
_cell_angle_beta     90
_cell_angle_gamma    120

_space_group_name_H-M_alt    "P 1"
_space_group_IT_number       1

loop_
  _space_group_symop_operation_xyz
  'x, y, z'

loop_
  _atom_site_type_symbol
  _atom_site_label
  _atom_site_symmetry_multiplicity
  _atom_site_fract_x
  _atom_site_fract_y
  _atom_site_fract_z
  _atom_site_occupancy
  N   N1        1.0  0.03763  0.52832  0.27847  1.0000
  C   C1        1.0  0.11874  0.55659  0.35286  1.0000
  H   H1        1.0  0.13139  0.50416  0.43143  1.0000
  H   H2        1.0  0.12613  0.61757  0.26817  1.0000
  C   C2        1.0  0.06316  0.52869  0.35503  1.0000
  C   C3        1.0  0.03157  0.50122  0.43015  1.0000
  C   C4        1.0  0.05038  0.50041  0.51454  1.0000
  O   O1        1.0  0.03504  0.45754  0.54776  1.0000
  O   O2        1.0  0.05130  0.53524  0.57249  1.0000
  C   C5        1.0  0.10124  0.56638  0.61391  1.0000
  H   H3        1.0  0.09840  0.59311  0.66059  1.0000
  H   H4        1.0  0.13096  0.58929  0.56391  1.0000
  H   H5        1.0  0.11307  0.54266  0.65233  1.0000
  C   C6        1.0  0.14879  0.53867  0.39763  1.0000
  C   C7        1.0  0.14590  0.60309  0.30264  1.0000
  N   N2        1.0  0.48658  0.51236  0.27843  1.0000
  C   C8        1.0  0.51074  0.48421  0.26966  1.0000
  H   H6        1.0  0.50952  0.46779  0.20865  1.0000
  N   N3        1.0  0.50254  0.97715  0.27851  1.0000
  C   C9        1.0  0.53069  0.02945  0.26973  1.0000
  H   H7        1.0  0.54709  0.04465  0.20870  1.0000
  C   C10       1.0  0.98533  0.50418  0.26970  1.0000
  H   H8        1.0  0.97012  0.50538  0.20867  1.0000
  C   C11       1.0  0.28653  0.64338  0.34568  1.0000
  C   C12       1.0  0.31645  0.61841  0.34561  1.0000
  C   C13       1.0  0.37140  0.64608  0.34571  1.0000
  C   C14       1.0  0.39637  0.70096  0.34565  1.0000
  C   C15       1.0  0.36870  0.72825  0.34571  1.0000
  C   C16       1.0  0.31382  0.69833  0.34563  1.0000
  C   C17       1.0  0.40059  0.61943  0.34713  1.0000
  C   C18       1.0  0.38377  0.57238  0.29952  1.0000
  C   C19       1.0  0.41176  0.54580  0.30259  1.0000
  C   C20       1.0  0.45824  0.56513  0.35287  1.0000
  C   C21       1.0  0.47611  0.61307  0.39775  1.0000
  C   C22       1.0  0.44758  0.63909  0.39618  1.0000
  C   C23       1.0  0.23069  0.61419  0.34708  1.0000
  C   C24       1.0  0.20334  0.56718  0.39604  1.0000
  C   C25       1.0  0.20047  0.63106  0.29955  1.0000
  C   C26       1.0  0.39536  0.78409  0.34714  1.0000
  C   C27       1.0  0.37570  0.81144  0.39611  1.0000
  C   C28       1.0  0.40173  0.86599  0.39768  1.0000
  C   C29       1.0  0.44971  0.89604  0.35292  1.0000
  C   C30       1.0  0.46905  0.86888  0.30270  1.0000
  C   C31       1.0  0.44245  0.81431  0.29962  1.0000
  H   H9        1.0  0.22285  0.55319  0.43252  1.0000
  H   H10       1.0  0.21787  0.66388  0.26091  1.0000
  H   H11       1.0  0.34219  0.79193  0.43254  1.0000
  H   H12       1.0  0.38462  0.88339  0.43148  1.0000
  H   H13       1.0  0.45786  0.79691  0.26095  1.0000
  H   H14       1.0  0.50330  0.88865  0.26824  1.0000
  H   H15       1.0  0.46153  0.67256  0.43270  1.0000
  H   H16       1.0  0.51060  0.63018  0.43159  1.0000
  H   H17       1.0  0.39732  0.51158  0.26805  1.0000
  H   H18       1.0  0.35097  0.55698  0.26082  1.0000
  H   H19       1.0  0.29762  0.57882  0.34586  1.0000
  H   H20       1.0  0.29306  0.71716  0.34590  1.0000
  H   H21       1.0  0.43596  0.72173  0.34595  1.0000
  C   C32       1.0  0.73098  0.36683  0.34467  1.0000
  C   C33       1.0  0.70284  0.39358  0.34470  1.0000
  C   C34       1.0  0.64796  0.36708  0.34467  1.0000
  C   C35       1.0  0.62120  0.31220  0.34467  1.0000
  C   C36       1.0  0.64770  0.28380  0.34466  1.0000
  C   C37       1.0  0.70258  0.31194  0.34468  1.0000
  C   C38       1.0  0.62036  0.39500  0.34431  1.0000
  C   C39       1.0  0.63454  0.43759  0.40277  1.0000
  C   C40       1.0  0.60733  0.46497  0.40251  1.0000
  C   C41       1.0  0.56515  0.45143  0.34309  1.0000
  C   C42       1.0  0.55098  0.40865  0.28485  1.0000
  C   C43       1.0  0.57788  0.38096  0.28561  1.0000
  C   C44       1.0  0.78649  0.39442  0.34430  1.0000
  C   C45       1.0  0.81492  0.43692  0.28565  1.0000
  C   C46       1.0  0.86952  0.46382  0.28485  1.0000
  C   C47       1.0  0.89813  0.44962  0.34304  1.0000
  C   C48       1.0  0.86949  0.40741  0.40240  1.0000
  C   C49       1.0  0.81490  0.38020  0.40268  1.0000
  C   C50       1.0  0.61978  0.22829  0.34429  1.0000
  C   C51       1.0  0.63385  0.19986  0.28565  1.0000
  C   C52       1.0  0.60615  0.14526  0.28488  1.0000
  C   C53       1.0  0.56334  0.11665  0.34306  1.0000
  C   C54       1.0  0.54979  0.14530  0.40244  1.0000
  C   C55       1.0  0.57716  0.19989  0.40269  1.0000
  H   H22       1.0  0.88804  0.49474  0.24220  1.0000
  H   H23       1.0  0.79606  0.44833  0.24166  1.0000
  H   H24       1.0  0.88811  0.39538  0.44572  1.0000
  H   H25       1.0  0.79605  0.35027  0.44732  1.0000
  H   H26       1.0  0.66411  0.21872  0.24164  1.0000
  H   H27       1.0  0.61853  0.12674  0.24217  1.0000
  H   H28       1.0  0.56608  0.21873  0.44734  1.0000
  H   H29       1.0  0.51913  0.12668  0.44574  1.0000
  H   H30       1.0  0.56651  0.35072  0.24157  1.0000
  H   H31       1.0  0.52010  0.39630  0.24210  1.0000
  H   H32       1.0  0.61935  0.49560  0.44586  1.0000
  H   H33       1.0  0.66446  0.44865  0.44744  1.0000
  H   H34       1.0  0.72278  0.43327  0.34462  1.0000
  H   H35       1.0  0.72233  0.29199  0.34459  1.0000
  H   H36       1.0  0.58150  0.29245  0.34457  1.0000
  C   C56       1.0  0.48617  0.53748  0.35502  1.0000
  C   C57       1.0  0.53799  0.47977  0.34395  1.0000
  N   N4        1.0  0.53735  0.50465  0.42049  1.0000
  C   C58       1.0  0.51355  0.53327  0.43019  1.0000
  C   C59       1.0  0.51430  0.55289  0.51463  1.0000
  O   O3        1.0  0.55763  0.58139  0.54546  1.0000
  O   O4        1.0  0.48011  0.51942  0.57363  1.0000
  C   C60       1.0  0.44946  0.53858  0.61578  1.0000
  H   H37       1.0  0.42308  0.50928  0.66319  1.0000
  H   H38       1.0  0.42617  0.54524  0.56634  1.0000
  H   H39       1.0  0.47359  0.57429  0.65351  1.0000
  C   C61       1.0  0.47739  0.95162  0.35509  1.0000
  C   C62       1.0  0.53503  0.06114  0.34395  1.0000
  N   N5        1.0  0.51011  0.03563  0.42047  1.0000
  C   C63       1.0  0.48157  0.98322  0.43023  1.0000
  C   C64       1.0  0.46187  0.96440  0.51458  1.0000
  O   O5        1.0  0.43430  0.97974  0.54768  1.0000
  O   O6        1.0  0.49573  0.96348  0.57266  1.0000
  C   C65       1.0  0.47689  0.91353  0.61407  1.0000
  H   H40       1.0  0.50642  0.91636  0.66084  1.0000
  H   H41       1.0  0.47013  0.88382  0.56407  1.0000
  H   H42       1.0  0.44130  0.90169  0.65237  1.0000
  C   C66       1.0  0.95364  0.47681  0.34391  1.0000
  N   N6        1.0  0.97916  0.47739  0.42042  1.0000
