data_image0
_chemical_formula_structural       C2HNC5H2C4H2C2HCNCNCNC18H12CNCNCNC18H12C2NOCHC2NOCHCOCH
_chemical_formula_sum              "C63 H33 N9 O3"
_cell_length_a       29.4858
_cell_length_b       29.4858
_cell_length_c       14.9417
_cell_angle_alpha    90
_cell_angle_beta     90
_cell_angle_gamma    120

_space_group_name_H-M_alt    "P 1"
_space_group_IT_number       1

loop_
  _space_group_symop_operation_xyz
  'x, y, z'

loop_
  _atom_site_type_symbol
  _atom_site_label
  _atom_site_symmetry_multiplicity
  _atom_site_fract_x
  _atom_site_fract_y
  _atom_site_fract_z
  _atom_site_occupancy
  C   C1        1.0  0.03052  0.51575  0.25445  1.0000
  C   C2        1.0  0.03005  0.51552  0.41623  1.0000
  H   H1        1.0  0.04994  0.52546  0.19453  1.0000
  N   N1        1.0  0.04580  0.52339  0.50115  1.0000
  C   C3        1.0  0.05889  0.52993  0.33578  1.0000
  C   C4        1.0  0.53090  0.47397  0.33610  1.0000
  C   C5        1.0  0.47495  0.52993  0.33578  1.0000
  C   C6        1.0  0.48913  0.51575  0.25445  1.0000
  C   C7        1.0  0.51679  0.48809  0.25459  1.0000
  H   H2        1.0  0.52654  0.47833  0.19474  1.0000
  H   H3        1.0  0.47942  0.52546  0.19453  1.0000
  C   C8        1.0  0.53090  0.05791  0.33610  1.0000
  C   C9        1.0  0.47495  0.94599  0.33578  1.0000
  C   C10       1.0  0.48913  0.97436  0.25445  1.0000
  C   C11       1.0  0.51679  0.02967  0.25459  1.0000
  H   H4        1.0  0.52654  0.04919  0.19474  1.0000
  H   H5        1.0  0.47942  0.95494  0.19453  1.0000
  C   C12       1.0  0.94697  0.47397  0.33610  1.0000
  C   C13       1.0  0.97520  0.48809  0.25459  1.0000
  H   H6        1.0  0.95569  0.47833  0.19474  1.0000
  C   C14       1.0  0.36331  0.72271  0.33754  1.0000
  N   N2        1.0  0.38868  0.69483  0.33752  1.0000
  C   C15       1.0  0.36331  0.64157  0.33754  1.0000
  N   N3        1.0  0.31005  0.61620  0.33752  1.0000
  C   C16       1.0  0.28216  0.64157  0.33754  1.0000
  N   N4        1.0  0.31005  0.69483  0.33752  1.0000
  C   C17       1.0  0.39128  0.61359  0.33738  1.0000
  C   C18       1.0  0.44683  0.64029  0.33724  1.0000
  C   C19       1.0  0.47447  0.61281  0.33681  1.0000
  C   C20       1.0  0.44729  0.55759  0.33649  1.0000
  C   C21       1.0  0.39207  0.53041  0.33681  1.0000
  C   C22       1.0  0.36459  0.55805  0.33724  1.0000
  C   C23       1.0  0.39129  0.77867  0.33738  1.0000
  C   C24       1.0  0.44683  0.80752  0.33724  1.0000
  C   C25       1.0  0.47447  0.86264  0.33681  1.0000
  C   C26       1.0  0.44729  0.89068  0.33649  1.0000
  C   C27       1.0  0.39207  0.86264  0.33681  1.0000
  C   C28       1.0  0.36459  0.80752  0.33724  1.0000
  C   C29       1.0  0.22621  0.61359  0.33738  1.0000
  C   C30       1.0  0.19736  0.64029  0.33724  1.0000
  C   C31       1.0  0.14224  0.61281  0.33681  1.0000
  C   C32       1.0  0.11420  0.55759  0.33649  1.0000
  C   C33       1.0  0.14224  0.53041  0.33681  1.0000
  C   C34       1.0  0.19736  0.55805  0.33724  1.0000
  H   H7        1.0  0.51457  0.88213  0.33663  1.0000
  H   H8        1.0  0.46809  0.78874  0.33735  1.0000
  H   H9        1.0  0.37146  0.88213  0.33663  1.0000
  H   H10       1.0  0.32455  0.78874  0.33736  1.0000
  H   H11       1.0  0.21613  0.68032  0.33736  1.0000
  H   H12       1.0  0.12275  0.63341  0.33663  1.0000
  H   H13       1.0  0.21613  0.53678  0.33736  1.0000
  H   H14       1.0  0.12275  0.49031  0.33663  1.0000
  H   H15       1.0  0.32455  0.53678  0.33736  1.0000
  H   H16       1.0  0.37146  0.49031  0.33663  1.0000
  H   H17       1.0  0.51457  0.63341  0.33664  1.0000
  H   H18       1.0  0.46809  0.68032  0.33736  1.0000
  C   C35       1.0  0.64254  0.28119  0.33756  1.0000
  N   N5        1.0  0.61717  0.30908  0.33755  1.0000
  C   C36       1.0  0.64254  0.36233  0.33756  1.0000
  N   N6        1.0  0.69580  0.38770  0.33755  1.0000
  C   C37       1.0  0.72369  0.36233  0.33756  1.0000
  N   N7        1.0  0.69580  0.30908  0.33755  1.0000
  C   C38       1.0  0.61457  0.39031  0.33750  1.0000
  C   C39       1.0  0.55902  0.36362  0.33743  1.0000
  C   C40       1.0  0.53138  0.39110  0.33711  1.0000
  C   C41       1.0  0.55856  0.44632  0.33684  1.0000
  C   C42       1.0  0.61378  0.47350  0.33711  1.0000
  C   C43       1.0  0.64126  0.44586  0.33743  1.0000
  C   C44       1.0  0.61456  0.22523  0.33750  1.0000
  C   C45       1.0  0.55902  0.19638  0.33743  1.0000
  C   C46       1.0  0.53138  0.14125  0.33711  1.0000
  C   C47       1.0  0.55856  0.11321  0.33684  1.0000
  C   C48       1.0  0.61378  0.14125  0.33711  1.0000
  C   C49       1.0  0.64126  0.19638  0.33743  1.0000
  C   C50       1.0  0.77965  0.39031  0.33750  1.0000
  C   C51       1.0  0.80850  0.36362  0.33743  1.0000
  C   C52       1.0  0.86362  0.39110  0.33711  1.0000
  C   C53       1.0  0.89167  0.44632  0.33684  1.0000
  C   C54       1.0  0.86362  0.47350  0.33712  1.0000
  C   C55       1.0  0.80850  0.44586  0.33743  1.0000
  H   H19       1.0  0.49128  0.12176  0.33695  1.0000
  H   H20       1.0  0.53776  0.21515  0.33750  1.0000
  H   H21       1.0  0.63438  0.12176  0.33695  1.0000
  H   H22       1.0  0.68129  0.21515  0.33749  1.0000
  H   H23       1.0  0.78973  0.32358  0.33749  1.0000
  H   H24       1.0  0.88311  0.37049  0.33695  1.0000
  H   H25       1.0  0.78973  0.46712  0.33749  1.0000
  H   H26       1.0  0.88311  0.51359  0.33695  1.0000
  H   H27       1.0  0.68129  0.46712  0.33749  1.0000
  H   H28       1.0  0.63438  0.51359  0.33695  1.0000
  H   H29       1.0  0.49128  0.37049  0.33695  1.0000
  H   H30       1.0  0.53776  0.32358  0.33749  1.0000
  C   C56       1.0  0.51664  0.48824  0.41693  1.0000
  C   C57       1.0  0.48936  0.51552  0.41623  1.0000
  N   N8        1.0  0.48149  0.52339  0.50115  1.0000
  O   O1        1.0  0.52633  0.47855  0.50183  1.0000
  C   C58       1.0  0.50353  0.50134  0.55008  1.0000
  H   H31       1.0  0.50332  0.50155  0.61841  1.0000
  C   C59       1.0  0.51664  0.02937  0.41692  1.0000
  C   C60       1.0  0.48936  0.97482  0.41623  1.0000
  N   N9        1.0  0.48149  0.95908  0.50115  1.0000
  O   O2        1.0  0.52633  0.04875  0.50183  1.0000
  C   C61       1.0  0.50353  0.00317  0.55008  1.0000
  H   H32       1.0  0.50332  0.00275  0.61841  1.0000
  C   C62       1.0  0.97550  0.48824  0.41692  1.0000
  O   O3        1.0  0.95613  0.47855  0.50183  1.0000
  C   C63       1.0  0.00171  0.50134  0.55008  1.0000
  H   H33       1.0  0.00213  0.50155  0.61841  1.0000
