data_image0
_chemical_formula_structural       CHCNCH2C2H2NC2H3C2H2NC2H3CH2NHNC18H12NHNHNHNC18H12NHNHNHNC3H2CH3NC3H2CH3C3H2CH2
_chemical_formula_sum              "C60 H60 N14"
_cell_length_a       32.3827
_cell_length_b       32.384
_cell_length_c       14.9496
_cell_angle_alpha    90
_cell_angle_beta     90
_cell_angle_gamma    119.999

_space_group_name_H-M_alt    "P 1"
_space_group_IT_number       1

loop_
  _space_group_symop_operation_xyz
  'x, y, z'

loop_
  _atom_site_type_symbol
  _atom_site_label
  _atom_site_symmetry_multiplicity
  _atom_site_fract_x
  _atom_site_fract_y
  _atom_site_fract_z
  _atom_site_occupancy
  C   C1        1.0  0.01767  0.53700  0.27098  1.0000
  H   H1        1.0  0.00649  0.43335  0.50488  1.0000
  C   C2        1.0  0.03039  0.57301  0.19963  1.0000
  N   N1        1.0  0.03438  0.49739  0.38639  1.0000
  C   C3        1.0  0.05167  0.53269  0.32399  1.0000
  H   H2        1.0  0.05165  0.56822  0.14843  1.0000
  H   H3        1.0  0.05087  0.60878  0.22768  1.0000
  C   C4        1.0  0.43894  0.53973  0.31566  1.0000
  C   C5        1.0  0.47140  0.51972  0.32458  1.0000
  H   H4        1.0  0.40255  0.51127  0.32987  1.0000
  H   H5        1.0  0.44047  0.55080  0.24612  1.0000
  N   N2        1.0  0.49832  0.46568  0.28670  1.0000
  C   C6        1.0  0.46713  0.48146  0.27147  1.0000
  C   C7        1.0  0.43120  0.45827  0.19995  1.0000
  H   H6        1.0  0.43606  0.48437  0.14883  1.0000
  H   H7        1.0  0.39540  0.44296  0.22787  1.0000
  H   H8        1.0  0.43442  0.42970  0.16792  1.0000
  C   C8        1.0  0.46462  0.90014  0.31589  1.0000
  C   C9        1.0  0.48459  0.95261  0.32470  1.0000
  H   H9        1.0  0.49306  0.89224  0.33052  1.0000
  H   H10       1.0  0.45375  0.89059  0.24627  1.0000
  N   N3        1.0  0.53870  0.03357  0.28697  1.0000
  C   C10       1.0  0.52299  0.98660  0.27189  1.0000
  C   C11       1.0  0.54645  0.97388  0.20085  1.0000
  H   H11       1.0  0.52051  0.95261  0.14951  1.0000
  H   H12       1.0  0.56169  0.95341  0.22919  1.0000
  H   H13       1.0  0.57510  0.00567  0.16899  1.0000
  C   C12       1.0  0.10414  0.56518  0.31514  1.0000
  H   H14       1.0  0.11203  0.60155  0.32946  1.0000
  H   H15       1.0  0.11371  0.56373  0.24559  1.0000
  N   N4        1.0  0.97070  0.50579  0.28619  1.0000
  H   H16       1.0  0.99860  0.56981  0.16765  1.0000
  N   N5        1.0  0.33588  0.66841  0.34502  1.0000
  C   C13       1.0  0.36283  0.64487  0.35125  1.0000
  C   C14       1.0  0.28539  0.64146  0.35105  1.0000
  C   C15       1.0  0.35942  0.71890  0.35121  1.0000
  C   C16       1.0  0.38587  0.74269  0.42823  1.0000
  C   C17       1.0  0.40782  0.79259  0.43537  1.0000
  C   C18       1.0  0.40369  0.82006  0.36598  1.0000
  C   C19       1.0  0.37687  0.79599  0.28933  1.0000
  C   C20       1.0  0.35539  0.74609  0.28156  1.0000
  C   C21       1.0  0.36006  0.61832  0.42818  1.0000
  C   C22       1.0  0.38796  0.59632  0.43532  1.0000
  C   C23       1.0  0.41965  0.60052  0.36605  1.0000
  C   C24       1.0  0.42255  0.62750  0.28953  1.0000
  C   C25       1.0  0.39415  0.64899  0.28173  1.0000
  C   C26       1.0  0.25827  0.61020  0.28141  1.0000
  C   C27       1.0  0.20837  0.58174  0.28906  1.0000
  C   C28       1.0  0.18422  0.58451  0.36560  1.0000
  C   C29       1.0  0.21163  0.61616  0.43497  1.0000
  C   C30       1.0  0.26153  0.64414  0.42794  1.0000
  H   H17       1.0  0.38559  0.57775  0.49227  1.0000
  H   H18       1.0  0.33809  0.61538  0.47992  1.0000
  H   H19       1.0  0.39717  0.66863  0.22596  1.0000
  H   H20       1.0  0.44596  0.63216  0.23932  1.0000
  H   H21       1.0  0.38872  0.72366  0.48008  1.0000
  H   H22       1.0  0.42630  0.80879  0.49239  1.0000
  H   H23       1.0  0.27494  0.60723  0.22569  1.0000
  H   H24       1.0  0.18968  0.55835  0.23880  1.0000
  H   H25       1.0  0.19537  0.61848  0.49188  1.0000
  H   H26       1.0  0.28051  0.66608  0.47977  1.0000
  H   H27       1.0  0.33584  0.72947  0.22573  1.0000
  H   H28       1.0  0.37227  0.81473  0.23902  1.0000
  N   N6        1.0  0.45071  0.58139  0.37445  1.0000
  H   H29       1.0  0.45147  0.57176  0.43968  1.0000
  N   N7        1.0  0.42281  0.87025  0.37434  1.0000
  H   H30       1.0  0.43226  0.88064  0.43963  1.0000
  N   N8        1.0  0.13403  0.55340  0.37387  1.0000
  H   H31       1.0  0.12360  0.55254  0.43910  1.0000
  N   N9        1.0  0.66920  0.33504  0.32839  1.0000
  C   C31       1.0  0.64225  0.35859  0.32228  1.0000
  C   C32       1.0  0.71969  0.36198  0.32215  1.0000
  C   C33       1.0  0.64565  0.28455  0.32228  1.0000
  C   C34       1.0  0.61913  0.26073  0.24535  1.0000
  C   C35       1.0  0.59718  0.21083  0.23828  1.0000
  C   C36       1.0  0.60138  0.18339  0.30765  1.0000
  C   C37       1.0  0.62828  0.20750  0.38422  1.0000
  C   C38       1.0  0.64975  0.25740  0.39192  1.0000
  C   C39       1.0  0.64495  0.38511  0.24536  1.0000
  C   C40       1.0  0.61700  0.40707  0.23829  1.0000
  C   C41       1.0  0.58535  0.40285  0.30765  1.0000
  C   C42       1.0  0.58254  0.37593  0.38419  1.0000
  C   C43       1.0  0.61099  0.35448  0.39191  1.0000
  C   C44       1.0  0.74690  0.39325  0.39172  1.0000
  C   C45       1.0  0.79680  0.42164  0.38392  1.0000
  C   C46       1.0  0.82086  0.41881  0.30731  1.0000
  C   C47       1.0  0.79336  0.38716  0.23799  1.0000
  C   C48       1.0  0.74346  0.35924  0.24517  1.0000
  H   H32       1.0  0.61932  0.42562  0.18135  1.0000
  H   H33       1.0  0.66688  0.38804  0.19354  1.0000
  H   H34       1.0  0.60801  0.33485  0.44765  1.0000
  H   H35       1.0  0.55917  0.37127  0.43446  1.0000
  H   H36       1.0  0.61620  0.27973  0.19354  1.0000
  H   H37       1.0  0.57861  0.19459  0.18134  1.0000
  H   H38       1.0  0.73029  0.39624  0.44752  1.0000
  H   H39       1.0  0.81555  0.44503  0.43413  1.0000
  H   H40       1.0  0.80955  0.38481  0.18101  1.0000
  H   H41       1.0  0.72441  0.33731  0.19339  1.0000
  H   H42       1.0  0.66938  0.27405  0.44766  1.0000
  H   H43       1.0  0.63295  0.18879  0.43447  1.0000
  N   N10       1.0  0.55426  0.42196  0.29934  1.0000
  H   H44       1.0  0.55346  0.43159  0.23412  1.0000
  N   N11       1.0  0.58229  0.13321  0.29935  1.0000
  H   H45       1.0  0.57280  0.12280  0.23408  1.0000
  N   N12       1.0  0.87105  0.44985  0.29888  1.0000
  H   H46       1.0  0.88143  0.45068  0.23363  1.0000
  N   N13       1.0  0.50662  0.53765  0.38714  1.0000
  C   C49       1.0  0.53781  0.52186  0.40237  1.0000
  C   C50       1.0  0.53355  0.48361  0.34925  1.0000
  C   C51       1.0  0.56601  0.46360  0.35815  1.0000
  H   H47       1.0  0.60240  0.49208  0.34394  1.0000
  H   H48       1.0  0.56449  0.45253  0.42768  1.0000
  C   C52       1.0  0.57373  0.54505  0.47390  1.0000
  H   H49       1.0  0.57051  0.57362  0.50594  1.0000
  H   H50       1.0  0.60954  0.56036  0.44599  1.0000
  H   H51       1.0  0.56887  0.51894  0.52501  1.0000
  N   N14       1.0  0.46644  0.96990  0.38683  1.0000
  C   C53       1.0  0.48215  0.01687  0.40192  1.0000
  C   C54       1.0  0.52055  0.05086  0.34909  1.0000
  C   C55       1.0  0.54051  0.10332  0.35788  1.0000
  H   H52       1.0  0.51206  0.11122  0.34329  1.0000
  H   H53       1.0  0.55142  0.11290  0.42748  1.0000
  C   C56       1.0  0.45870  0.02959  0.47296  1.0000
  H   H54       1.0  0.43006  0.99780  0.50484  1.0000
  H   H55       1.0  0.44345  0.05005  0.44463  1.0000
  H   H56       1.0  0.48464  0.05087  0.52429  1.0000
  C   C57       1.0  0.98741  0.46617  0.40158  1.0000
  C   C58       1.0  0.95342  0.47049  0.34860  1.0000
  C   C59       1.0  0.90095  0.43803  0.35751  1.0000
  H   H57       1.0  0.89302  0.40165  0.34313  1.0000
  H   H58       1.0  0.89141  0.43948  0.42710  1.0000
  C   C60       1.0  0.97470  0.43016  0.47294  1.0000
  H   H59       1.0  0.95421  0.39439  0.44487  1.0000
  H   H60       1.0  0.95345  0.43496  0.52415  1.0000
