data_image0
_chemical_formula_structural       C2H2C2H2C2H2NC18H12NC18H12C4H2C4H2C4H2C2H2C2H2C2H2NC18H12NC18H12C4H2C4H2C4H2C2H2C2H2C2H2NC18H12NC18H12C4H2C4H2C4H2C2H2C2H2C2H2NC18H12NC18H12C4H2C4H2C4H2
_chemical_formula_sum              "C216 H144 N8"
_cell_length_a       50.3541
_cell_length_b       50.3541
_cell_length_c       14.5909
_cell_angle_alpha    90
_cell_angle_beta     90
_cell_angle_gamma    120

_space_group_name_H-M_alt    "P 1"
_space_group_IT_number       1

loop_
  _space_group_symop_operation_xyz
  'x, y, z'

loop_
  _atom_site_type_symbol
  _atom_site_label
  _atom_site_symmetry_multiplicity
  _atom_site_fract_x
  _atom_site_fract_y
  _atom_site_fract_z
  _atom_site_occupancy
  C   C1        1.0  0.26887  0.27797  0.27986  1.0000
  C   C2        1.0  0.28492  0.26160  0.27954  1.0000
  H   H1        1.0  0.26852  0.28819  0.21982  1.0000
  H   H2        1.0  0.29381  0.25996  0.21832  1.0000
  C   C3        1.0  0.25717  0.49771  0.27949  1.0000
  C   C4        1.0  0.27324  0.03012  0.27981  1.0000
  H   H3        1.0  0.24829  0.48717  0.21826  1.0000
  H   H4        1.0  0.27361  0.04069  0.21974  1.0000
  C   C5        1.0  0.03722  0.27808  0.28624  1.0000
  C   C6        1.0  0.50483  0.26189  0.28625  1.0000
  H   H5        1.0  0.04817  0.28817  0.22631  1.0000
  H   H6        1.0  0.49388  0.26103  0.22631  1.0000
  N   N1        1.0  0.18698  0.34678  0.36128  1.0000
  C   C7        1.0  0.20328  0.33022  0.36036  1.0000
  C   C8        1.0  0.20353  0.37972  0.36065  1.0000
  C   C9        1.0  0.15411  0.33020  0.36357  1.0000
  C   C10       1.0  0.13682  0.31208  0.28851  1.0000
  C   C11       1.0  0.10445  0.29608  0.28992  1.0000
  C   C12       1.0  0.08769  0.29759  0.36603  1.0000
  C   C13       1.0  0.10532  0.31596  0.44100  1.0000
  C   C14       1.0  0.13774  0.33188  0.43988  1.0000
  C   C15       1.0  0.21379  0.32381  0.44240  1.0000
  C   C16       1.0  0.23070  0.30835  0.44168  1.0000
  C   C17       1.0  0.23708  0.29729  0.35956  1.0000
  C   C18       1.0  0.22562  0.30345  0.27785  1.0000
  C   C19       1.0  0.20966  0.31989  0.27790  1.0000
  C   C20       1.0  0.22507  0.39684  0.42951  1.0000
  C   C21       1.0  0.24163  0.42919  0.42779  1.0000
  C   C22       1.0  0.23688  0.44656  0.35945  1.0000
  C   C23       1.0  0.21463  0.42888  0.29163  1.0000
  C   C24       1.0  0.19880  0.39645  0.29126  1.0000
  H   H7        1.0  0.23871  0.30583  0.50340  1.0000
  H   H8        1.0  0.20953  0.33084  0.50365  1.0000
  H   H9        1.0  0.20242  0.32411  0.21698  1.0000
  H   H10       1.0  0.22834  0.29570  0.21592  1.0000
  H   H11       1.0  0.14777  0.31047  0.23164  1.0000
  H   H12       1.0  0.09319  0.28280  0.23438  1.0000
  H   H13       1.0  0.22933  0.38581  0.48117  1.0000
  H   H14       1.0  0.25777  0.43979  0.47766  1.0000
  H   H15       1.0  0.20907  0.43933  0.24136  1.0000
  H   H16       1.0  0.18314  0.38496  0.24060  1.0000
  H   H17       1.0  0.14950  0.34503  0.49509  1.0000
  H   H18       1.0  0.09465  0.31853  0.49713  1.0000
  N   N2        1.0  0.35507  0.18083  0.36128  1.0000
  C   C25       1.0  0.33852  0.19721  0.36065  1.0000
  C   C26       1.0  0.33878  0.14797  0.36035  1.0000
  C   C27       1.0  0.38795  0.19712  0.36357  1.0000
  C   C28       1.0  0.40431  0.21515  0.43990  1.0000
  C   C29       1.0  0.43674  0.23165  0.44103  1.0000
  C   C30       1.0  0.45437  0.23092  0.36604  1.0000
  C   C31       1.0  0.43760  0.21265  0.28992  1.0000
  C   C32       1.0  0.40524  0.19630  0.28849  1.0000
  C   C33       1.0  0.31698  0.19279  0.42949  1.0000
  C   C34       1.0  0.30042  0.20858  0.42777  1.0000
  C   C35       1.0  0.30518  0.23072  0.35946  1.0000
  C   C36       1.0  0.32743  0.23527  0.29165  1.0000
  C   C37       1.0  0.34326  0.21868  0.29126  1.0000
  C   C38       1.0  0.32825  0.13104  0.44239  1.0000
  C   C39       1.0  0.31134  0.09868  0.44166  1.0000
  C   C40       1.0  0.30498  0.08122  0.35955  1.0000
  C   C41       1.0  0.31646  0.09885  0.27785  1.0000
  C   C42       1.0  0.33243  0.13126  0.27790  1.0000
  H   H19       1.0  0.28429  0.20305  0.47767  1.0000
  H   H20       1.0  0.31272  0.17751  0.48118  1.0000
  H   H21       1.0  0.35891  0.22285  0.24061  1.0000
  H   H22       1.0  0.33300  0.25130  0.24138  1.0000
  H   H23       1.0  0.39255  0.21654  0.49512  1.0000
  H   H24       1.0  0.44741  0.24490  0.49715  1.0000
  H   H25       1.0  0.33248  0.14233  0.50363  1.0000
  H   H26       1.0  0.30331  0.08815  0.50337  1.0000
  H   H27       1.0  0.31376  0.08839  0.21593  1.0000
  H   H28       1.0  0.33967  0.14271  0.21698  1.0000
  H   H29       1.0  0.39429  0.18375  0.23162  1.0000
  H   H30       1.0  0.44887  0.21066  0.23435  1.0000
  C   C43       1.0  0.27413  0.25075  0.43920  1.0000
  C   C44       1.0  0.25728  0.26628  0.43883  1.0000
  C   C45       1.0  0.25413  0.28078  0.35935  1.0000
  C   C46       1.0  0.28838  0.24745  0.35935  1.0000
  H   H31       1.0  0.24693  0.26636  0.49889  1.0000
  H   H32       1.0  0.27596  0.24206  0.50056  1.0000
  C   C47       1.0  0.28474  0.03002  0.43885  1.0000
  C   C48       1.0  0.26791  0.49764  0.43921  1.0000
  C   C49       1.0  0.25368  0.48009  0.35934  1.0000
  C   C50       1.0  0.28793  0.04767  0.35933  1.0000
  H   H33       1.0  0.26604  0.48712  0.50060  1.0000
  H   H34       1.0  0.29506  0.04044  0.49895  1.0000
  C   C51       1.0  0.50482  0.25130  0.44713  1.0000
  C   C52       1.0  0.03724  0.26751  0.44713  1.0000
  C   C53       1.0  0.05445  0.28131  0.36660  1.0000
  C   C54       1.0  0.48760  0.24788  0.36660  1.0000
  H   H35       1.0  0.04823  0.26836  0.50696  1.0000
  H   H36       1.0  0.49383  0.24116  0.50696  1.0000
  C   C55       1.0  0.26886  0.77797  0.27986  1.0000
  C   C56       1.0  0.28491  0.76160  0.27954  1.0000
  H   H37       1.0  0.26851  0.78819  0.21981  1.0000
  H   H38       1.0  0.29381  0.75996  0.21831  1.0000
  C   C57       1.0  0.25718  0.99771  0.27948  1.0000
  C   C58       1.0  0.27322  0.53012  0.27982  1.0000
  H   H39       1.0  0.24831  0.98717  0.21825  1.0000
  H   H40       1.0  0.27359  0.54069  0.21976  1.0000
  C   C59       1.0  0.03721  0.77808  0.28623  1.0000
  C   C60       1.0  0.50483  0.76189  0.28624  1.0000
  H   H41       1.0  0.04817  0.78816  0.22629  1.0000
  H   H42       1.0  0.49388  0.76101  0.22630  1.0000
  N   N3        1.0  0.18698  0.84678  0.36127  1.0000
  C   C61       1.0  0.20327  0.83023  0.36035  1.0000
  C   C62       1.0  0.20353  0.87972  0.36064  1.0000
  C   C63       1.0  0.15410  0.83021  0.36357  1.0000
  C   C64       1.0  0.13681  0.81208  0.28851  1.0000
  C   C65       1.0  0.10444  0.79607  0.28992  1.0000
  C   C66       1.0  0.08768  0.79759  0.36603  1.0000
  C   C67       1.0  0.10531  0.81596  0.44099  1.0000
  C   C68       1.0  0.13774  0.83188  0.43987  1.0000
  C   C69       1.0  0.21378  0.82381  0.44240  1.0000
  C   C70       1.0  0.23069  0.80835  0.44168  1.0000
  C   C71       1.0  0.23708  0.79728  0.35956  1.0000
  C   C72       1.0  0.22562  0.80345  0.27785  1.0000
  C   C73       1.0  0.20965  0.81989  0.27790  1.0000
  C   C74       1.0  0.22506  0.89684  0.42950  1.0000
  C   C75       1.0  0.24162  0.92919  0.42779  1.0000
  C   C76       1.0  0.23687  0.94656  0.35944  1.0000
  C   C77       1.0  0.21463  0.92888  0.29163  1.0000
  C   C78       1.0  0.19880  0.89645  0.29125  1.0000
  H   H43       1.0  0.23870  0.80583  0.50340  1.0000
  H   H44       1.0  0.20952  0.83083  0.50365  1.0000
  H   H45       1.0  0.20242  0.82411  0.21697  1.0000
  H   H46       1.0  0.22834  0.79571  0.21591  1.0000
  H   H47       1.0  0.14776  0.81046  0.23165  1.0000
  H   H48       1.0  0.09318  0.78279  0.23438  1.0000
  H   H49       1.0  0.22932  0.88581  0.48118  1.0000
  H   H50       1.0  0.25776  0.93979  0.47766  1.0000
  H   H51       1.0  0.20907  0.93933  0.24134  1.0000
  H   H52       1.0  0.18314  0.88496  0.24059  1.0000
  H   H53       1.0  0.14950  0.84504  0.49508  1.0000
  H   H54       1.0  0.09464  0.81854  0.49711  1.0000
  N   N4        1.0  0.35507  0.68083  0.36128  1.0000
  C   C79       1.0  0.33852  0.69721  0.36065  1.0000
  C   C80       1.0  0.33877  0.64797  0.36035  1.0000
  C   C81       1.0  0.38794  0.69712  0.36357  1.0000
  C   C82       1.0  0.40431  0.71516  0.43988  1.0000
  C   C83       1.0  0.43673  0.73166  0.44101  1.0000
  C   C84       1.0  0.45436  0.73093  0.36604  1.0000
  C   C85       1.0  0.43760  0.71265  0.28993  1.0000
  C   C86       1.0  0.40523  0.69630  0.28850  1.0000
  C   C87       1.0  0.31697  0.69279  0.42949  1.0000
  C   C88       1.0  0.30041  0.70858  0.42777  1.0000
  C   C89       1.0  0.30517  0.73071  0.35945  1.0000
  C   C90       1.0  0.32742  0.73528  0.29165  1.0000
  C   C91       1.0  0.34326  0.71869  0.29126  1.0000
  C   C92       1.0  0.32825  0.63105  0.44240  1.0000
  C   C93       1.0  0.31134  0.59868  0.44167  1.0000
  C   C94       1.0  0.30497  0.58122  0.35955  1.0000
  C   C95       1.0  0.31645  0.59885  0.27785  1.0000
  C   C96       1.0  0.33242  0.63126  0.27790  1.0000
  H   H55       1.0  0.28428  0.70305  0.47766  1.0000
  H   H56       1.0  0.31271  0.67750  0.48117  1.0000
  H   H57       1.0  0.35891  0.72285  0.24062  1.0000
  H   H58       1.0  0.33300  0.75130  0.24138  1.0000
  H   H59       1.0  0.39255  0.71655  0.49509  1.0000
  H   H60       1.0  0.44740  0.74491  0.49713  1.0000
  H   H61       1.0  0.33248  0.64233  0.50364  1.0000
  H   H62       1.0  0.30331  0.58815  0.50337  1.0000
  H   H63       1.0  0.31375  0.58839  0.21593  1.0000
  H   H64       1.0  0.33966  0.64271  0.21698  1.0000
  H   H65       1.0  0.39429  0.68374  0.23164  1.0000
  H   H66       1.0  0.44886  0.71065  0.23436  1.0000
  C   C97       1.0  0.27412  0.75074  0.43920  1.0000
  C   C98       1.0  0.25727  0.76628  0.43883  1.0000
  C   C99       1.0  0.25412  0.78078  0.35934  1.0000
  C   C100      1.0  0.28837  0.74745  0.35935  1.0000
  H   H67       1.0  0.24692  0.76635  0.49889  1.0000
  H   H68       1.0  0.27595  0.74206  0.50056  1.0000
  C   C101      1.0  0.28475  0.53002  0.43885  1.0000
  C   C102      1.0  0.26790  0.99764  0.43921  1.0000
  C   C103      1.0  0.25368  0.98009  0.35933  1.0000
  C   C104      1.0  0.28793  0.54768  0.35933  1.0000
  H   H69       1.0  0.26602  0.98712  0.50060  1.0000
  H   H70       1.0  0.29507  0.54045  0.49894  1.0000
  C   C105      1.0  0.50481  0.75131  0.44713  1.0000
  C   C106      1.0  0.03723  0.76752  0.44713  1.0000
  C   C107      1.0  0.05445  0.78131  0.36659  1.0000
  C   C108      1.0  0.48760  0.74789  0.36659  1.0000
  H   H71       1.0  0.04823  0.76838  0.50696  1.0000
  H   H72       1.0  0.49382  0.74118  0.50697  1.0000
  C   C109      1.0  0.76887  0.27797  0.27986  1.0000
  C   C110      1.0  0.78492  0.26160  0.27954  1.0000
  H   H73       1.0  0.76852  0.28819  0.21982  1.0000
  H   H74       1.0  0.79382  0.25996  0.21832  1.0000
  C   C111      1.0  0.75717  0.49771  0.27949  1.0000
  C   C112      1.0  0.77324  0.03012  0.27981  1.0000
  H   H75       1.0  0.74830  0.48717  0.21826  1.0000
  H   H76       1.0  0.77361  0.04069  0.21974  1.0000
  C   C113      1.0  0.53722  0.27808  0.28624  1.0000
  C   C114      1.0  0.00483  0.26189  0.28625  1.0000
  H   H77       1.0  0.54817  0.28817  0.22631  1.0000
  H   H78       1.0  0.99388  0.26103  0.22631  1.0000
  N   N5        1.0  0.68698  0.34678  0.36128  1.0000
  C   C115      1.0  0.70328  0.33022  0.36036  1.0000
  C   C116      1.0  0.70353  0.37972  0.36065  1.0000
  C   C117      1.0  0.65411  0.33020  0.36357  1.0000
  C   C118      1.0  0.63682  0.31208  0.28851  1.0000
  C   C119      1.0  0.60445  0.29608  0.28992  1.0000
  C   C120      1.0  0.58769  0.29759  0.36603  1.0000
  C   C121      1.0  0.60532  0.31596  0.44100  1.0000
  C   C122      1.0  0.63774  0.33188  0.43988  1.0000
  C   C123      1.0  0.71379  0.32381  0.44240  1.0000
  C   C124      1.0  0.73070  0.30835  0.44168  1.0000
  C   C125      1.0  0.73709  0.29729  0.35956  1.0000
  C   C126      1.0  0.72562  0.30345  0.27785  1.0000
  C   C127      1.0  0.70966  0.31989  0.27790  1.0000
  C   C128      1.0  0.72507  0.39684  0.42951  1.0000
  C   C129      1.0  0.74163  0.42919  0.42779  1.0000
  C   C130      1.0  0.73688  0.44656  0.35945  1.0000
  C   C131      1.0  0.71463  0.42888  0.29163  1.0000
  C   C132      1.0  0.69880  0.39645  0.29126  1.0000
  H   H79       1.0  0.73871  0.30583  0.50340  1.0000
  H   H80       1.0  0.70953  0.33084  0.50365  1.0000
  H   H81       1.0  0.70242  0.32411  0.21698  1.0000
  H   H82       1.0  0.72834  0.29570  0.21592  1.0000
  H   H83       1.0  0.64777  0.31047  0.23164  1.0000
  H   H84       1.0  0.59319  0.28280  0.23438  1.0000
  H   H85       1.0  0.72933  0.38581  0.48117  1.0000
  H   H86       1.0  0.75777  0.43979  0.47766  1.0000
  H   H87       1.0  0.70906  0.43933  0.24136  1.0000
  H   H88       1.0  0.68315  0.38496  0.24060  1.0000
  H   H89       1.0  0.64950  0.34503  0.49509  1.0000
  H   H90       1.0  0.59465  0.31853  0.49713  1.0000
  N   N6        1.0  0.85507  0.18083  0.36128  1.0000
  C   C133      1.0  0.83852  0.19721  0.36065  1.0000
  C   C134      1.0  0.83878  0.14797  0.36035  1.0000
  C   C135      1.0  0.88795  0.19712  0.36357  1.0000
  C   C136      1.0  0.90431  0.21515  0.43990  1.0000
  C   C137      1.0  0.93674  0.23165  0.44103  1.0000
  C   C138      1.0  0.95437  0.23092  0.36604  1.0000
  C   C139      1.0  0.93760  0.21265  0.28992  1.0000
  C   C140      1.0  0.90524  0.19630  0.28849  1.0000
  C   C141      1.0  0.81698  0.19279  0.42949  1.0000
  C   C142      1.0  0.80042  0.20858  0.42777  1.0000
  C   C143      1.0  0.80518  0.23072  0.35946  1.0000
  C   C144      1.0  0.82743  0.23527  0.29165  1.0000
  C   C145      1.0  0.84326  0.21868  0.29126  1.0000
  C   C146      1.0  0.82825  0.13104  0.44239  1.0000
  C   C147      1.0  0.81134  0.09868  0.44166  1.0000
  C   C148      1.0  0.80498  0.08122  0.35955  1.0000
  C   C149      1.0  0.81646  0.09885  0.27785  1.0000
  C   C150      1.0  0.83243  0.13126  0.27790  1.0000
  H   H91       1.0  0.78429  0.20305  0.47767  1.0000
  H   H92       1.0  0.81272  0.17751  0.48118  1.0000
  H   H93       1.0  0.85892  0.22285  0.24061  1.0000
  H   H94       1.0  0.83300  0.25130  0.24138  1.0000
  H   H95       1.0  0.89255  0.21654  0.49512  1.0000
  H   H96       1.0  0.94741  0.24490  0.49715  1.0000
  H   H97       1.0  0.83248  0.14233  0.50363  1.0000
  H   H98       1.0  0.80331  0.08815  0.50337  1.0000
  H   H99       1.0  0.81376  0.08839  0.21593  1.0000
  H   H100      1.0  0.83967  0.14271  0.21698  1.0000
  H   H101      1.0  0.89429  0.18375  0.23162  1.0000
  H   H102      1.0  0.94887  0.21066  0.23435  1.0000
  C   C151      1.0  0.77413  0.25075  0.43920  1.0000
  C   C152      1.0  0.75728  0.26628  0.43883  1.0000
  C   C153      1.0  0.75413  0.28078  0.35935  1.0000
  C   C154      1.0  0.78838  0.24745  0.35935  1.0000
  H   H103      1.0  0.74693  0.26636  0.49889  1.0000
  H   H104      1.0  0.77596  0.24206  0.50056  1.0000
  C   C155      1.0  0.78474  0.03002  0.43885  1.0000
  C   C156      1.0  0.76791  0.49764  0.43921  1.0000
  C   C157      1.0  0.75368  0.48009  0.35934  1.0000
  C   C158      1.0  0.78794  0.04767  0.35933  1.0000
  H   H105      1.0  0.76604  0.48712  0.50060  1.0000
  H   H106      1.0  0.79506  0.04044  0.49895  1.0000
  C   C159      1.0  0.00482  0.25130  0.44713  1.0000
  C   C160      1.0  0.53724  0.26751  0.44713  1.0000
  C   C161      1.0  0.55445  0.28131  0.36660  1.0000
  C   C162      1.0  0.98760  0.24788  0.36660  1.0000
  H   H107      1.0  0.54823  0.26836  0.50696  1.0000
  H   H108      1.0  0.99383  0.24116  0.50696  1.0000
  C   C163      1.0  0.76887  0.77797  0.27986  1.0000
  C   C164      1.0  0.78492  0.76160  0.27954  1.0000
  H   H109      1.0  0.76851  0.78819  0.21981  1.0000
  H   H110      1.0  0.79381  0.75996  0.21831  1.0000
  C   C165      1.0  0.75718  0.99771  0.27948  1.0000
  C   C166      1.0  0.77323  0.53012  0.27982  1.0000
  H   H111      1.0  0.74831  0.98717  0.21825  1.0000
  H   H112      1.0  0.77359  0.54069  0.21976  1.0000
  C   C167      1.0  0.53721  0.77808  0.28623  1.0000
  C   C168      1.0  0.00483  0.76189  0.28624  1.0000
  H   H113      1.0  0.54817  0.78816  0.22629  1.0000
  H   H114      1.0  0.99388  0.76101  0.22630  1.0000
  N   N7        1.0  0.68698  0.84678  0.36127  1.0000
  C   C169      1.0  0.70327  0.83023  0.36035  1.0000
  C   C170      1.0  0.70353  0.87972  0.36064  1.0000
  C   C171      1.0  0.65410  0.83021  0.36357  1.0000
  C   C172      1.0  0.63681  0.81208  0.28851  1.0000
  C   C173      1.0  0.60445  0.79607  0.28992  1.0000
  C   C174      1.0  0.58768  0.79759  0.36603  1.0000
  C   C175      1.0  0.60531  0.81596  0.44099  1.0000
  C   C176      1.0  0.63774  0.83188  0.43987  1.0000
  C   C177      1.0  0.71379  0.82381  0.44240  1.0000
  C   C178      1.0  0.73069  0.80835  0.44168  1.0000
  C   C179      1.0  0.73708  0.79728  0.35956  1.0000
  C   C180      1.0  0.72562  0.80345  0.27785  1.0000
  C   C181      1.0  0.70965  0.81989  0.27790  1.0000
  C   C182      1.0  0.72506  0.89684  0.42950  1.0000
  C   C183      1.0  0.74162  0.92919  0.42779  1.0000
  C   C184      1.0  0.73687  0.94656  0.35944  1.0000
  C   C185      1.0  0.71463  0.92888  0.29163  1.0000
  C   C186      1.0  0.69879  0.89645  0.29125  1.0000
  H   H115      1.0  0.73870  0.80583  0.50340  1.0000
  H   H116      1.0  0.70952  0.83083  0.50365  1.0000
  H   H117      1.0  0.70242  0.82411  0.21697  1.0000
  H   H118      1.0  0.72834  0.79571  0.21591  1.0000
  H   H119      1.0  0.64776  0.81046  0.23165  1.0000
  H   H120      1.0  0.59318  0.78279  0.23438  1.0000
  H   H121      1.0  0.72932  0.88581  0.48118  1.0000
  H   H122      1.0  0.75776  0.93979  0.47766  1.0000
  H   H123      1.0  0.70907  0.93933  0.24134  1.0000
  H   H124      1.0  0.68314  0.88496  0.24059  1.0000
  H   H125      1.0  0.64950  0.84504  0.49508  1.0000
  H   H126      1.0  0.59464  0.81854  0.49711  1.0000
  N   N8        1.0  0.85507  0.68083  0.36128  1.0000
  C   C187      1.0  0.83852  0.69721  0.36065  1.0000
  C   C188      1.0  0.83878  0.64797  0.36035  1.0000
  C   C189      1.0  0.88794  0.69712  0.36357  1.0000
  C   C190      1.0  0.90431  0.71516  0.43988  1.0000
  C   C191      1.0  0.93673  0.73166  0.44101  1.0000
  C   C192      1.0  0.95436  0.73093  0.36604  1.0000
  C   C193      1.0  0.93760  0.71265  0.28993  1.0000
  C   C194      1.0  0.90523  0.69630  0.28850  1.0000
  C   C195      1.0  0.81697  0.69279  0.42949  1.0000
  C   C196      1.0  0.80041  0.70858  0.42777  1.0000
  C   C197      1.0  0.80517  0.73071  0.35945  1.0000
  C   C198      1.0  0.82742  0.73528  0.29165  1.0000
  C   C199      1.0  0.84326  0.71869  0.29126  1.0000
  C   C200      1.0  0.82825  0.63105  0.44240  1.0000
  C   C201      1.0  0.81134  0.59868  0.44167  1.0000
  C   C202      1.0  0.80497  0.58122  0.35955  1.0000
  C   C203      1.0  0.81645  0.59885  0.27785  1.0000
  C   C204      1.0  0.83242  0.63126  0.27790  1.0000
  H   H127      1.0  0.78428  0.70305  0.47766  1.0000
  H   H128      1.0  0.81271  0.67750  0.48117  1.0000
  H   H129      1.0  0.85891  0.72285  0.24062  1.0000
  H   H130      1.0  0.83300  0.75130  0.24138  1.0000
  H   H131      1.0  0.89255  0.71655  0.49509  1.0000
  H   H132      1.0  0.94740  0.74491  0.49713  1.0000
  H   H133      1.0  0.83248  0.64233  0.50364  1.0000
  H   H134      1.0  0.80331  0.58815  0.50337  1.0000
  H   H135      1.0  0.81375  0.58839  0.21593  1.0000
  H   H136      1.0  0.83965  0.64271  0.21698  1.0000
  H   H137      1.0  0.89429  0.68374  0.23164  1.0000
  H   H138      1.0  0.94886  0.71065  0.23436  1.0000
  C   C205      1.0  0.77412  0.75074  0.43920  1.0000
  C   C206      1.0  0.75727  0.76628  0.43883  1.0000
  C   C207      1.0  0.75412  0.78078  0.35934  1.0000
  C   C208      1.0  0.78837  0.74745  0.35935  1.0000
  H   H139      1.0  0.74692  0.76635  0.49889  1.0000
  H   H140      1.0  0.77595  0.74206  0.50056  1.0000
  C   C209      1.0  0.78475  0.53002  0.43885  1.0000
  C   C210      1.0  0.76790  0.99764  0.43921  1.0000
  C   C211      1.0  0.75368  0.98009  0.35933  1.0000
  C   C212      1.0  0.78793  0.54768  0.35933  1.0000
  H   H141      1.0  0.76602  0.98712  0.50060  1.0000
  H   H142      1.0  0.79507  0.54045  0.49894  1.0000
  C   C213      1.0  0.00481  0.75131  0.44713  1.0000
  C   C214      1.0  0.53723  0.76752  0.44713  1.0000
  C   C215      1.0  0.55444  0.78131  0.36659  1.0000
  C   C216      1.0  0.98760  0.74789  0.36659  1.0000
  H   H143      1.0  0.54822  0.76838  0.50696  1.0000
  H   H144      1.0  0.99382  0.74118  0.50697  1.0000
