data_image0
_chemical_formula_structural       C16H16CNCNCNHCH2CH2CHCNCNCNHCH2CH2CHC3NC3NC5NC5NC36H26N5C2H3CHNC2H3CH
_chemical_formula_sum              "C86 H62 N16"
_cell_length_a       34.263
_cell_length_b       34.261
_cell_length_c       14.7019
_cell_angle_alpha    90
_cell_angle_beta     90
_cell_angle_gamma    89.934

_space_group_name_H-M_alt    "P 1"
_space_group_IT_number       1

loop_
  _space_group_symop_operation_xyz
  'x, y, z'

loop_
  _atom_site_type_symbol
  _atom_site_label
  _atom_site_symmetry_multiplicity
  _atom_site_fract_x
  _atom_site_fract_y
  _atom_site_fract_z
  _atom_site_occupancy
  C   C1        1.0  0.17957  0.00915  0.28781  1.0000
  C   C2        1.0  0.22072  0.00922  0.28647  1.0000
  C   C3        1.0  0.34716  0.03222  0.30117  1.0000
  C   C4        1.0  0.30600  0.03207  0.30311  1.0000
  C   C5        1.0  0.02144  0.17559  0.29653  1.0000
  C   C6        1.0  0.02154  0.21674  0.29828  1.0000
  C   C7        1.0  0.99870  0.30212  0.30957  1.0000
  C   C8        1.0  0.99817  0.34327  0.31136  1.0000
  C   C9        1.0  0.80690  0.01706  0.29915  1.0000
  C   C10       1.0  0.84806  0.01651  0.29742  1.0000
  C   C11       1.0  0.72135  0.99501  0.31022  1.0000
  C   C12       1.0  0.68019  0.99475  0.31210  1.0000
  C   C13       1.0  0.01421  0.84408  0.28820  1.0000
  C   C14       1.0  0.01423  0.80293  0.28671  1.0000
  C   C15       1.0  0.03626  0.67625  0.30085  1.0000
  C   C16       1.0  0.03645  0.71740  0.30299  1.0000
  H   H1        1.0  0.05336  0.66216  0.25410  1.0000
  H   H2        1.0  0.05421  0.73177  0.25823  1.0000
  H   H3        1.0  0.01395  0.78932  0.22478  1.0000
  H   H4        1.0  0.01449  0.85901  0.22788  1.0000
  H   H5        1.0  0.86217  0.02111  0.23698  1.0000
  H   H6        1.0  0.79253  0.02270  0.23960  1.0000
  H   H7        1.0  0.02614  0.16153  0.23608  1.0000
  H   H8        1.0  0.02695  0.23117  0.23869  1.0000
  H   H9        1.0  0.98518  0.35804  0.25896  1.0000
  H   H10       1.0  0.98578  0.28842  0.25561  1.0000
  H   H11       1.0  0.29149  0.04971  0.25826  1.0000
  H   H12       1.0  0.36110  0.04944  0.25446  1.0000
  H   H13       1.0  0.23437  0.00906  0.22460  1.0000
  H   H14       1.0  0.16469  0.00955  0.22744  1.0000
  H   H15       1.0  0.73496  0.98209  0.25610  1.0000
  H   H16       1.0  0.66534  0.98196  0.25963  1.0000
  C   C17       1.0  0.01575  0.46896  0.34922  1.0000
  N   N1        1.0  0.00996  0.53604  0.30569  1.0000
  C   C18       1.0  0.01184  0.49786  0.28005  1.0000
  N   N2        1.0  0.01086  0.49190  0.19086  1.0000
  C   C19       1.0  0.99321  0.46573  0.14389  1.0000
  N   N3        1.0  0.99778  0.46563  0.05026  1.0000
  H   H17       1.0  0.97666  0.44556  0.17377  1.0000
  C   C20       1.0  0.02345  0.43321  0.01883  1.0000
  H   H18       1.0  0.05182  0.43461  0.05267  1.0000
  H   H19       1.0  0.01038  0.40470  0.03243  1.0000
  C   C21       1.0  0.95977  0.46768  0.00130  1.0000
  H   H20       1.0  0.94330  0.49343  0.02257  1.0000
  H   H21       1.0  0.94205  0.44169  0.01399  1.0000
  C   C22       1.0  0.02046  0.42922  0.33254  1.0000
  H   H22       1.0  0.03068  0.42080  0.27237  1.0000
  C   C23       1.0  0.55466  0.01314  0.35057  1.0000
  N   N4        1.0  0.48766  0.00725  0.30659  1.0000
  C   C24       1.0  0.52584  0.00939  0.28117  1.0000
  N   N5        1.0  0.53186  0.00873  0.19196  1.0000
  C   C25       1.0  0.55845  0.99184  0.14466  1.0000
  N   N6        1.0  0.55840  0.99665  0.05110  1.0000
  H   H23       1.0  0.57906  0.97569  0.17423  1.0000
  C   C26       1.0  0.58988  0.02349  0.02010  1.0000
  H   H24       1.0  0.58743  0.05172  0.05433  1.0000
  H   H25       1.0  0.61884  0.01136  0.03360  1.0000
  C   C27       1.0  0.55778  0.95870  0.00165  1.0000
  H   H26       1.0  0.53261  0.94133  0.02254  1.0000
  H   H27       1.0  0.58437  0.94183  0.01431  1.0000
  C   C28       1.0  0.59438  0.01804  0.33429  1.0000
  H   H28       1.0  0.60280  0.02900  0.27486  1.0000
  C   C29       1.0  0.08653  0.90763  0.37176  1.0000
  C   C30       1.0  0.11518  0.93598  0.37147  1.0000
  C   C31       1.0  0.09711  0.97257  0.37240  1.0000
  N   N7        1.0  0.05822  0.96491  0.37331  1.0000
  C   C32       1.0  0.05013  0.92610  0.37280  1.0000
  C   C33       1.0  0.01346  0.90645  0.37304  1.0000
  C   C34       1.0  0.97658  0.92560  0.37399  1.0000
  N   N8        1.0  0.96911  0.96442  0.37529  1.0000
  C   C35       1.0  0.93036  0.97229  0.37557  1.0000
  C   C36       1.0  0.91177  0.93603  0.37416  1.0000
  C   C37       1.0  0.94015  0.90736  0.37334  1.0000
  C   C38       1.0  0.91158  0.00937  0.37635  1.0000
  C   C39       1.0  0.93169  0.04582  0.37623  1.0000
  N   N9        1.0  0.97059  0.05349  0.37537  1.0000
  C   C40       1.0  0.97869  0.09231  0.37595  1.0000
  C   C41       1.0  0.94229  0.11076  0.37680  1.0000
  C   C42       1.0  0.91364  0.08242  0.37746  1.0000
  C   C43       1.0  0.01536  0.11200  0.37552  1.0000
  C   C44       1.0  0.05223  0.09283  0.37447  1.0000
  N   N10       1.0  0.05966  0.05400  0.37335  1.0000
  C   C45       1.0  0.09840  0.04611  0.37321  1.0000
  C   C46       1.0  0.11705  0.08233  0.37433  1.0000
  C   C47       1.0  0.08870  0.11102  0.37538  1.0000
  C   C48       1.0  0.11716  0.00903  0.37239  1.0000
  C   C49       1.0  0.15898  0.00851  0.37102  1.0000
  C   C50       1.0  0.24292  0.00866  0.36795  1.0000
  C   C51       1.0  0.22184  0.00789  0.45102  1.0000
  C   C52       1.0  0.18068  0.00788  0.45270  1.0000
  C   C53       1.0  0.28497  0.00895  0.36637  1.0000
  C   C54       1.0  0.30727  0.98598  0.42761  1.0000
  C   C55       1.0  0.34844  0.98620  0.42595  1.0000
  C   C56       1.0  0.36910  0.00963  0.36305  1.0000
  C   C57       1.0  0.01527  0.15386  0.37691  1.0000
  C   C58       1.0  0.01535  0.23789  0.38005  1.0000
  C   C59       1.0  0.00911  0.21565  0.46019  1.0000
  C   C60       1.0  0.00917  0.17450  0.45887  1.0000
  C   C61       1.0  0.01521  0.28000  0.38161  1.0000
  C   C62       1.0  0.01422  0.36403  0.38550  1.0000
  C   C63       1.0  0.03013  0.34243  0.45824  1.0000
  C   C64       1.0  0.03103  0.30128  0.45578  1.0000
  C   C65       1.0  0.86973  0.00996  0.37774  1.0000
  C   C66       1.0  0.84903  0.00393  0.45962  1.0000
  C   C67       1.0  0.80788  0.00437  0.46095  1.0000
  C   C68       1.0  0.78569  0.01097  0.38086  1.0000
  C   C69       1.0  0.74358  0.01120  0.38241  1.0000
  C   C70       1.0  0.65954  0.01075  0.38652  1.0000
  C   C71       1.0  0.68124  0.02640  0.45936  1.0000
  C   C72       1.0  0.72240  0.02702  0.45679  1.0000
  C   C73       1.0  0.01357  0.86462  0.37148  1.0000
  C   C74       1.0  0.01292  0.84286  0.45308  1.0000
  C   C75       1.0  0.01355  0.78068  0.36810  1.0000
  C   C76       1.0  0.01287  0.80170  0.45125  1.0000
  C   C77       1.0  0.01351  0.73862  0.36635  1.0000
  C   C78       1.0  0.99033  0.71652  0.42744  1.0000
  C   C79       1.0  0.99021  0.67535  0.42561  1.0000
  C   C80       1.0  0.01348  0.65449  0.36263  1.0000
  H   H29       1.0  0.97246  0.66072  0.46986  1.0000
  H   H30       1.0  0.97241  0.73027  0.47297  1.0000
  H   H31       1.0  0.01309  0.78717  0.51202  1.0000
  H   H32       1.0  0.01258  0.85689  0.51455  1.0000
  H   H33       1.0  0.09192  0.87829  0.37114  1.0000
  H   H34       1.0  0.14447  0.93028  0.37064  1.0000
  H   H35       1.0  0.03850  0.98485  0.37406  1.0000
  H   H36       1.0  0.99031  0.03355  0.37454  1.0000
  H   H37       1.0  0.93464  0.87805  0.37195  1.0000
  H   H38       1.0  0.88241  0.93079  0.37332  1.0000
  H   H39       1.0  0.86384  0.99893  0.51896  1.0000
  H   H40       1.0  0.79424  0.99892  0.52150  1.0000
  H   H41       1.0  0.88437  0.08818  0.37859  1.0000
  H   H42       1.0  0.93686  0.14010  0.37716  1.0000
  H   H43       1.0  0.14642  0.08753  0.37503  1.0000
  H   H44       1.0  0.09427  0.14031  0.37702  1.0000
  H   H45       1.0  0.00448  0.15964  0.51828  1.0000
  H   H46       1.0  0.00367  0.22925  0.52081  1.0000
  H   H47       1.0  0.04382  0.28698  0.50909  1.0000
  H   H48       1.0  0.04159  0.35661  0.51338  1.0000
  H   H49       1.0  0.16661  0.00768  0.51412  1.0000
  H   H50       1.0  0.23633  0.00825  0.51185  1.0000
  H   H51       1.0  0.36322  0.96860  0.47034  1.0000
  H   H52       1.0  0.29367  0.96797  0.47314  1.0000
  H   H53       1.0  0.73677  0.03959  0.51024  1.0000
  H   H54       1.0  0.66714  0.03780  0.51470  1.0000
  N   N11       1.0  0.40809  0.01077  0.35649  1.0000
  N   N12       1.0  0.01430  0.61550  0.35593  1.0000
  N   N13       1.0  0.62069  0.00892  0.39326  1.0000
  N   N14       1.0  0.01230  0.40289  0.39218  1.0000
  N   N15       1.0  0.01644  0.48185  0.43682  1.0000
  C   C81       1.0  0.01373  0.51995  0.46139  1.0000
  C   C82       1.0  0.01071  0.54888  0.39332  1.0000
  H   H55       1.0  0.01457  0.52707  0.52890  1.0000
  H   H56       1.0  0.02870  0.43572  0.61249  1.0000
  H   H57       1.0  0.96462  0.47008  0.59485  1.0000
  C   C83       1.0  0.00792  0.58833  0.41466  1.0000
  H   H58       1.0  0.00179  0.59575  0.47850  1.0000
  N   N16       1.0  0.54167  0.01351  0.43811  1.0000
  C   C84       1.0  0.50356  0.01057  0.46243  1.0000
  C   C85       1.0  0.47473  0.00764  0.39416  1.0000
  H   H59       1.0  0.49638  0.01118  0.52991  1.0000
  H   H60       1.0  0.58721  0.02884  0.61383  1.0000
  H   H61       1.0  0.55530  0.96362  0.59525  1.0000
  C   C86       1.0  0.43528  0.00456  0.41531  1.0000
  H   H62       1.0  0.42787  0.99832  0.47908  1.0000
