data_image0
_chemical_formula_structural       C3HNCNC3HC3HNCNC3HC3HC2HNC3HC2HN3C3OCOH3NCNCO2HNC2O2HCH2C2N2C2HCHC2HCHC3OC4OH4N2CNCO2HCNC2O2HCH2C2N2C2HCHNHC4OCOH3NC3O2HCHNC2O2HCHC2HC2HN3C2HCHC2HCHC4OC4OH4N2C3O2HCHCNC2O2HCHC2HC2HN3C2HCHNH
_chemical_formula_sum              "C104 H56 N32 O24"
_cell_length_a       31.2534
_cell_length_b       31.2534
_cell_length_c       14.8543
_cell_angle_alpha    90
_cell_angle_beta     90
_cell_angle_gamma    90

_space_group_name_H-M_alt    "P 1"
_space_group_IT_number       1

loop_
  _space_group_symop_operation_xyz
  'x, y, z'

loop_
  _atom_site_type_symbol
  _atom_site_label
  _atom_site_symmetry_multiplicity
  _atom_site_fract_x
  _atom_site_fract_y
  _atom_site_fract_z
  _atom_site_occupancy
  C   C1        1.0  0.48351  0.02628  0.32367  1.0000
  C   C2        1.0  0.43878  0.01671  0.32348  1.0000
  C   C3        1.0  0.40626  0.04824  0.32361  1.0000
  H   H1        1.0  0.07146  0.03380  0.32301  1.0000
  N   N1        1.0  0.36365  0.03971  0.32327  1.0000
  C   C4        1.0  0.29489  0.00501  0.32201  1.0000
  N   N2        1.0  0.27506  0.04384  0.32450  1.0000
  C   C5        1.0  0.23197  0.04926  0.32496  1.0000
  C   C6        1.0  0.20530  0.01289  0.32293  1.0000
  C   C7        1.0  0.16041  0.01583  0.32333  1.0000
  H   H2        1.0  0.14610  0.04523  0.32495  1.0000
  C   C8        1.0  0.98352  0.02628  0.32367  1.0000
  C   C9        1.0  0.93878  0.01671  0.32348  1.0000
  C   C10       1.0  0.90626  0.04824  0.32361  1.0000
  H   H3        1.0  0.57146  0.03380  0.32301  1.0000
  N   N3        1.0  0.86365  0.03971  0.32327  1.0000
  C   C11       1.0  0.79489  0.00501  0.32201  1.0000
  N   N4        1.0  0.77506  0.04384  0.32450  1.0000
  C   C12       1.0  0.73197  0.04926  0.32496  1.0000
  C   C13       1.0  0.70530  0.01289  0.32293  1.0000
  C   C14       1.0  0.66041  0.01583  0.32333  1.0000
  H   H4        1.0  0.64610  0.04523  0.32495  1.0000
  C   C15       1.0  0.01630  0.49350  0.32362  1.0000
  C   C16       1.0  0.04160  0.24161  0.32080  1.0000
  C   C17       1.0  0.00629  0.16981  0.32315  1.0000
  H   H5        1.0  0.03519  0.15460  0.32239  1.0000
  C   C18       1.0  0.00670  0.44874  0.32368  1.0000
  C   C19       1.0  0.03824  0.41627  0.32317  1.0000
  H   H6        1.0  0.02380  0.08131  0.32428  1.0000
  N   N5        1.0  0.02974  0.37368  0.32310  1.0000
  C   C20       1.0  0.01630  0.99350  0.32362  1.0000
  C   C21       1.0  0.04160  0.74161  0.32080  1.0000
  C   C22       1.0  0.00629  0.66982  0.32315  1.0000
  H   H7        1.0  0.03519  0.65460  0.32239  1.0000
  C   C23       1.0  0.00670  0.94874  0.32368  1.0000
  C   C24       1.0  0.03824  0.91627  0.32317  1.0000
  H   H8        1.0  0.02380  0.58132  0.32428  1.0000
  N   N6        1.0  0.02974  0.87368  0.32310  1.0000
  N   N7        1.0  0.03570  0.28479  0.32112  1.0000
  N   N8        1.0  0.03570  0.78479  0.32112  1.0000
  C   C25       1.0  0.08172  0.42808  0.32325  1.0000
  C   C26       1.0  0.09352  0.47156  0.32289  1.0000
  C   C27       1.0  0.06105  0.50310  0.32333  1.0000
  O   O1        1.0  0.11263  0.39717  0.32133  1.0000
  C   C28       1.0  0.41808  0.09172  0.32337  1.0000
  O   O2        1.0  0.38717  0.12262  0.32482  1.0000
  H   H9        1.0  0.11933  0.39053  0.38450  1.0000
  H   H10       1.0  0.38064  0.12922  0.26155  1.0000
  H   H11       1.0  0.42848  0.48600  0.32333  1.0000
  N   N9        1.0  0.13612  0.48006  0.32261  1.0000
  C   C29       1.0  0.00479  0.21490  0.32283  1.0000
  N   N10       1.0  0.53570  0.28479  0.32112  1.0000
  C   C30       1.0  0.08316  0.22621  0.31575  1.0000
  O   O3        1.0  0.10948  0.24141  0.36751  1.0000
  O   O4        1.0  0.09784  0.21326  0.24340  1.0000
  H   H12       1.0  0.08232  0.20441  0.19704  1.0000
  N   N11       1.0  0.22500  0.47410  0.32024  1.0000
  C   C31       1.0  0.26819  0.96820  0.31985  1.0000
  C   C32       1.0  0.28359  0.92665  0.31467  1.0000
  O   O5        1.0  0.26837  0.90029  0.36630  1.0000
  O   O6        1.0  0.29657  0.91203  0.24229  1.0000
  H   H13       1.0  0.30543  0.92759  0.19600  1.0000
  C   C33       1.0  0.33998  0.00351  0.32236  1.0000
  H   H14       1.0  0.35519  0.97461  0.32154  1.0000
  H   H15       1.0  0.47600  0.43834  0.32387  1.0000
  C   C34       1.0  0.46156  0.10353  0.32394  1.0000
  C   C35       1.0  0.49308  0.07102  0.32389  1.0000
  N   N12       1.0  0.47009  0.14614  0.32380  1.0000
  N   N13       1.0  0.96596  0.23473  0.32519  1.0000
  C   C36       1.0  0.46054  0.27782  0.32562  1.0000
  C   C37       1.0  0.49691  0.30449  0.32367  1.0000
  H   H16       1.0  0.43027  0.29017  0.32749  1.0000
  C   C38       1.0  0.49397  0.34939  0.32397  1.0000
  H   H17       1.0  0.46456  0.36369  0.32548  1.0000
  C   C39       1.0  0.23197  0.54926  0.32496  1.0000
  C   C40       1.0  0.20530  0.51289  0.32293  1.0000
  H   H18       1.0  0.21963  0.57953  0.32695  1.0000
  C   C41       1.0  0.16041  0.51583  0.32333  1.0000
  H   H19       1.0  0.14610  0.54523  0.32495  1.0000
  C   C42       1.0  0.08172  0.92808  0.32325  1.0000
  C   C43       1.0  0.09352  0.97156  0.32289  1.0000
  C   C44       1.0  0.06105  0.00310  0.32333  1.0000
  O   O7        1.0  0.11263  0.89717  0.32133  1.0000
  C   C45       1.0  0.48351  0.52628  0.32367  1.0000
  C   C46       1.0  0.43878  0.51671  0.32348  1.0000
  C   C47       1.0  0.40626  0.54824  0.32361  1.0000
  C   C48       1.0  0.41808  0.59172  0.32337  1.0000
  O   O8        1.0  0.38717  0.62262  0.32482  1.0000
  H   H20       1.0  0.11933  0.89053  0.38450  1.0000
  H   H21       1.0  0.38064  0.62922  0.26155  1.0000
  H   H22       1.0  0.07146  0.53380  0.32301  1.0000
  H   H23       1.0  0.42848  0.98600  0.32333  1.0000
  N   N14       1.0  0.36365  0.53971  0.32327  1.0000
  N   N15       1.0  0.13612  0.98006  0.32261  1.0000
  C   C49       1.0  0.00479  0.71490  0.32283  1.0000
  N   N16       1.0  0.53570  0.78479  0.32112  1.0000
  C   C50       1.0  0.08316  0.72620  0.31575  1.0000
  O   O9        1.0  0.10948  0.74140  0.36751  1.0000
  O   O10       1.0  0.09784  0.71326  0.24340  1.0000
  H   H24       1.0  0.08232  0.70441  0.19704  1.0000
  C   C51       1.0  0.29489  0.50501  0.32201  1.0000
  N   N17       1.0  0.22500  0.97410  0.32024  1.0000
  C   C52       1.0  0.26819  0.46820  0.31985  1.0000
  C   C53       1.0  0.28359  0.42664  0.31467  1.0000
  O   O11       1.0  0.26837  0.40029  0.36630  1.0000
  O   O12       1.0  0.29657  0.41203  0.24229  1.0000
  H   H25       1.0  0.30543  0.42758  0.19600  1.0000
  C   C54       1.0  0.33998  0.50351  0.32236  1.0000
  H   H26       1.0  0.35519  0.47461  0.32154  1.0000
  H   H27       1.0  0.47600  0.93834  0.32387  1.0000
  C   C55       1.0  0.46156  0.60353  0.32394  1.0000
  C   C56       1.0  0.49308  0.57102  0.32389  1.0000
  N   N18       1.0  0.47009  0.64614  0.32380  1.0000
  N   N19       1.0  0.96596  0.73474  0.32519  1.0000
  C   C57       1.0  0.46054  0.77782  0.32562  1.0000
  C   C58       1.0  0.49691  0.80449  0.32367  1.0000
  H   H28       1.0  0.43027  0.79017  0.32749  1.0000
  C   C59       1.0  0.49397  0.84939  0.32397  1.0000
  H   H29       1.0  0.46456  0.86369  0.32548  1.0000
  N   N20       1.0  0.27506  0.54383  0.32450  1.0000
  H   H30       1.0  0.21963  0.07953  0.32695  1.0000
  C   C60       1.0  0.51630  0.49350  0.32362  1.0000
  C   C61       1.0  0.58172  0.42808  0.32325  1.0000
  C   C62       1.0  0.59353  0.47156  0.32289  1.0000
  C   C63       1.0  0.56106  0.50310  0.32333  1.0000
  O   O13       1.0  0.61263  0.39717  0.32133  1.0000
  C   C64       1.0  0.91808  0.09172  0.32337  1.0000
  O   O14       1.0  0.88717  0.12262  0.32482  1.0000
  H   H31       1.0  0.61933  0.39053  0.38450  1.0000
  H   H32       1.0  0.88064  0.12922  0.26155  1.0000
  H   H33       1.0  0.92848  0.48600  0.32333  1.0000
  N   N21       1.0  0.63612  0.48006  0.32261  1.0000
  C   C65       1.0  0.50479  0.21490  0.32283  1.0000
  C   C66       1.0  0.54160  0.24161  0.32080  1.0000
  C   C67       1.0  0.58316  0.22621  0.31575  1.0000
  O   O15       1.0  0.60948  0.24141  0.36751  1.0000
  O   O16       1.0  0.59784  0.21326  0.24340  1.0000
  H   H34       1.0  0.58232  0.20441  0.19704  1.0000
  C   C68       1.0  0.50629  0.16981  0.32315  1.0000
  H   H35       1.0  0.53519  0.15460  0.32239  1.0000
  N   N22       1.0  0.72500  0.47410  0.32024  1.0000
  C   C69       1.0  0.76819  0.96820  0.31985  1.0000
  C   C70       1.0  0.78359  0.92665  0.31467  1.0000
  O   O17       1.0  0.76837  0.90029  0.36630  1.0000
  O   O18       1.0  0.79657  0.91203  0.24229  1.0000
  H   H36       1.0  0.80543  0.92759  0.19600  1.0000
  C   C71       1.0  0.83998  0.00351  0.32236  1.0000
  H   H37       1.0  0.85519  0.97461  0.32154  1.0000
  C   C72       1.0  0.50670  0.44874  0.32368  1.0000
  C   C73       1.0  0.53824  0.41627  0.32317  1.0000
  H   H38       1.0  0.97600  0.43834  0.32387  1.0000
  C   C74       1.0  0.96156  0.10353  0.32394  1.0000
  C   C75       1.0  0.99308  0.07102  0.32389  1.0000
  H   H39       1.0  0.52380  0.08131  0.32428  1.0000
  N   N23       1.0  0.97009  0.14614  0.32380  1.0000
  N   N24       1.0  0.52974  0.37368  0.32310  1.0000
  N   N25       1.0  0.46596  0.23473  0.32519  1.0000
  C   C76       1.0  0.96054  0.27782  0.32562  1.0000
  C   C77       1.0  0.99691  0.30449  0.32367  1.0000
  H   H40       1.0  0.93027  0.29017  0.32749  1.0000
  C   C78       1.0  0.99397  0.34939  0.32397  1.0000
  H   H41       1.0  0.96456  0.36369  0.32548  1.0000
  C   C79       1.0  0.73197  0.54926  0.32496  1.0000
  C   C80       1.0  0.70530  0.51289  0.32293  1.0000
  H   H42       1.0  0.71963  0.57953  0.32695  1.0000
  C   C81       1.0  0.66041  0.51583  0.32333  1.0000
  H   H43       1.0  0.64610  0.54523  0.32495  1.0000
  C   C82       1.0  0.51630  0.99350  0.32362  1.0000
  C   C83       1.0  0.58172  0.92808  0.32325  1.0000
  C   C84       1.0  0.59353  0.97156  0.32289  1.0000
  C   C85       1.0  0.56106  0.00310  0.32333  1.0000
  O   O19       1.0  0.61263  0.89717  0.32133  1.0000
  C   C86       1.0  0.98352  0.52628  0.32367  1.0000
  C   C87       1.0  0.93878  0.51671  0.32348  1.0000
  C   C88       1.0  0.90626  0.54824  0.32361  1.0000
  C   C89       1.0  0.91808  0.59172  0.32337  1.0000
  O   O20       1.0  0.88717  0.62262  0.32482  1.0000
  H   H44       1.0  0.61933  0.89053  0.38450  1.0000
  H   H45       1.0  0.88064  0.62922  0.26155  1.0000
  H   H46       1.0  0.57146  0.53380  0.32301  1.0000
  H   H47       1.0  0.92848  0.98600  0.32333  1.0000
  N   N26       1.0  0.86365  0.53971  0.32327  1.0000
  N   N27       1.0  0.63612  0.98006  0.32261  1.0000
  C   C90       1.0  0.50479  0.71490  0.32283  1.0000
  C   C91       1.0  0.54160  0.74161  0.32080  1.0000
  C   C92       1.0  0.58316  0.72620  0.31575  1.0000
  O   O21       1.0  0.60948  0.74140  0.36751  1.0000
  O   O22       1.0  0.59784  0.71326  0.24340  1.0000
  H   H48       1.0  0.58232  0.70441  0.19704  1.0000
  C   C93       1.0  0.50629  0.66982  0.32315  1.0000
  H   H49       1.0  0.53519  0.65460  0.32239  1.0000
  C   C94       1.0  0.79489  0.50501  0.32201  1.0000
  N   N28       1.0  0.72500  0.97410  0.32024  1.0000
  C   C95       1.0  0.76819  0.46820  0.31985  1.0000
  C   C96       1.0  0.78359  0.42664  0.31467  1.0000
  O   O23       1.0  0.76837  0.40029  0.36630  1.0000
  O   O24       1.0  0.79657  0.41203  0.24229  1.0000
  H   H50       1.0  0.80543  0.42758  0.19600  1.0000
  C   C97       1.0  0.83998  0.50351  0.32236  1.0000
  H   H51       1.0  0.85519  0.47461  0.32154  1.0000
  C   C98       1.0  0.50670  0.94874  0.32368  1.0000
  C   C99       1.0  0.53824  0.91627  0.32317  1.0000
  H   H52       1.0  0.97600  0.93834  0.32387  1.0000
  C   C100      1.0  0.96156  0.60353  0.32394  1.0000
  C   C101      1.0  0.99308  0.57102  0.32389  1.0000
  H   H53       1.0  0.52380  0.58132  0.32428  1.0000
  N   N29       1.0  0.97009  0.64614  0.32380  1.0000
  N   N30       1.0  0.52974  0.87368  0.32310  1.0000
  N   N31       1.0  0.46596  0.73474  0.32519  1.0000
  C   C102      1.0  0.96054  0.77782  0.32562  1.0000
  C   C103      1.0  0.99691  0.80449  0.32367  1.0000
  H   H54       1.0  0.93027  0.79017  0.32749  1.0000
  C   C104      1.0  0.99397  0.84939  0.32397  1.0000
  H   H55       1.0  0.96456  0.86369  0.32548  1.0000
  N   N32       1.0  0.77506  0.54383  0.32450  1.0000
  H   H56       1.0  0.71963  0.07953  0.32695  1.0000
