data_image0
_chemical_formula_structural       C3H2C5NC2NH2C4NC2NH2C4NC2NH2C2H2C2H2C2H2C20H13C24H15C24H15C24H15C2H2C2H2C2H2C4NC2NH2C4NC2NH2C4NC2NH2
_chemical_formula_sum              "C144 H84 N12"
_cell_length_a       45.8081
_cell_length_b       45.8082
_cell_length_c       14.9547
_cell_angle_alpha    90
_cell_angle_beta     90
_cell_angle_gamma    120

_space_group_name_H-M_alt    "P 1"
_space_group_IT_number       1

loop_
  _space_group_symop_operation_xyz
  'x, y, z'

loop_
  _atom_site_type_symbol
  _atom_site_label
  _atom_site_symmetry_multiplicity
  _atom_site_fract_x
  _atom_site_fract_y
  _atom_site_fract_z
  _atom_site_occupancy
  C   C1        1.0  0.01167  0.03266  0.34608  1.0000
  C   C2        1.0  0.03030  0.01558  0.34449  1.0000
  C   C3        1.0  0.01178  0.97988  0.34011  1.0000
  H   H1        1.0  0.02440  0.05830  0.35345  1.0000
  H   H2        1.0  0.02467  0.96700  0.33963  1.0000
  C   C4        1.0  0.06662  0.03392  0.34564  1.0000
  C   C5        1.0  0.24817  0.12407  0.33620  1.0000
  C   C6        1.0  0.22935  0.11553  0.25548  1.0000
  C   C7        1.0  0.19341  0.09751  0.25681  1.0000
  C   C8        1.0  0.17545  0.08758  0.33892  1.0000
  N   N1        1.0  0.17702  0.08949  0.17669  1.0000
  C   C9        1.0  0.19288  0.09795  0.09645  1.0000
  C   C10       1.0  0.22822  0.11565  0.09515  1.0000
  N   N2        1.0  0.24490  0.12350  0.17420  1.0000
  H   H3        1.0  0.17928  0.09132  0.03848  1.0000
  H   H4        1.0  0.24123  0.12233  0.03622  1.0000
  C   C11       1.0  0.86696  0.12421  0.33319  1.0000
  C   C12       1.0  0.87695  0.11569  0.25193  1.0000
  C   C13       1.0  0.89482  0.09762  0.25225  1.0000
  C   C14       1.0  0.90305  0.08760  0.33388  1.0000
  N   N3        1.0  0.90292  0.08964  0.17171  1.0000
  C   C15       1.0  0.89527  0.09817  0.09191  1.0000
  C   C16       1.0  0.87765  0.11590  0.09158  1.0000
  N   N4        1.0  0.86911  0.12373  0.17109  1.0000
  H   H5        1.0  0.90204  0.09157  0.03357  1.0000
  H   H6        1.0  0.87117  0.12265  0.03301  1.0000
  C   C17       1.0  0.86692  0.74347  0.33174  1.0000
  C   C18       1.0  0.87666  0.76150  0.24977  1.0000
  C   C19       1.0  0.89446  0.79744  0.24860  1.0000
  C   C20       1.0  0.90295  0.81619  0.32947  1.0000
  N   N5        1.0  0.90222  0.81301  0.16734  1.0000
  C   C21       1.0  0.89434  0.79634  0.08825  1.0000
  C   C22       1.0  0.87685  0.76099  0.08945  1.0000
  N   N6        1.0  0.86861  0.74512  0.16965  1.0000
  H   H7        1.0  0.90087  0.80935  0.02933  1.0000
  H   H8        1.0  0.87022  0.74740  0.03147  1.0000
  C   C23       1.0  0.58430  0.14674  0.25668  1.0000
  C   C24       1.0  0.55362  0.14686  0.25664  1.0000
  H   H9        1.0  0.54649  0.15357  0.19885  1.0000
  H   H10       1.0  0.59819  0.15350  0.19897  1.0000
  C   C25       1.0  0.84469  0.43807  0.26329  1.0000
  C   C26       1.0  0.84468  0.40734  0.26334  1.0000
  H   H11       1.0  0.83819  0.39355  0.20545  1.0000
  H   H12       1.0  0.83817  0.44532  0.20537  1.0000
  C   C27       1.0  0.55316  0.40722  0.26055  1.0000
  C   C28       1.0  0.58387  0.43799  0.25940  1.0000
  H   H13       1.0  0.59742  0.44497  0.20113  1.0000
  H   H14       1.0  0.54568  0.39321  0.20305  1.0000
  C   C29       1.0  0.97603  0.01557  0.34078  1.0000
  C   C30       1.0  0.97607  0.96135  0.33627  1.0000
  C   C31       1.0  0.95892  0.97992  0.33544  1.0000
  C   C32       1.0  0.08514  0.06441  0.29720  1.0000
  C   C33       1.0  0.12063  0.08217  0.29618  1.0000
  C   C34       1.0  0.13932  0.07001  0.34259  1.0000
  C   C35       1.0  0.12103  0.03985  0.39214  1.0000
  C   C36       1.0  0.08548  0.02220  0.39351  1.0000
  C   C37       1.0  0.95793  0.03375  0.34008  1.0000
  C   C38       1.0  0.97006  0.06427  0.29177  1.0000
  C   C39       1.0  0.95229  0.08200  0.29037  1.0000
  C   C40       1.0  0.92142  0.06985  0.33669  1.0000
  C   C41       1.0  0.90938  0.03959  0.38587  1.0000
  C   C42       1.0  0.92723  0.02192  0.38737  1.0000
  C   C43       1.0  0.95779  0.92507  0.33381  1.0000
  C   C44       1.0  0.92755  0.90617  0.38306  1.0000
  C   C45       1.0  0.90967  0.87066  0.38166  1.0000
  C   C46       1.0  0.92123  0.85236  0.33095  1.0000
  C   C47       1.0  0.95160  0.87110  0.28246  1.0000
  C   C48       1.0  0.96937  0.90662  0.28357  1.0000
  H   H15       1.0  0.96226  0.10409  0.25517  1.0000
  H   H16       1.0  0.99182  0.07373  0.25532  1.0000
  H   H17       1.0  0.88711  0.02982  0.42017  1.0000
  H   H18       1.0  0.91763  0.00034  0.42465  1.0000
  H   H19       1.0  0.91838  0.91812  0.42208  1.0000
  H   H20       1.0  0.88779  0.85823  0.41764  1.0000
  H   H21       1.0  0.99082  0.91890  0.24590  1.0000
  H   H22       1.0  0.96132  0.85898  0.24626  1.0000
  H   H23       1.0  0.07350  0.00068  0.43085  1.0000
  H   H24       1.0  0.13347  0.03006  0.42649  1.0000
  H   H25       1.0  0.13275  0.10416  0.26073  1.0000
  H   H26       1.0  0.07296  0.07380  0.26010  1.0000
  H   H27       1.0  0.93327  0.96716  0.32820  1.0000
  C   C49       1.0  0.44737  0.25117  0.33030  1.0000
  C   C50       1.0  0.41175  0.23286  0.33200  1.0000
  C   C51       1.0  0.39324  0.19705  0.32979  1.0000
  C   C52       1.0  0.41177  0.17976  0.32673  1.0000
  C   C53       1.0  0.44742  0.19718  0.32611  1.0000
  C   C54       1.0  0.46449  0.23277  0.32500  1.0000
  C   C55       1.0  0.35697  0.17902  0.33320  1.0000
  C   C56       1.0  0.33795  0.19079  0.28644  1.0000
  C   C57       1.0  0.30247  0.17317  0.28876  1.0000
  C   C58       1.0  0.28431  0.14268  0.33702  1.0000
  C   C59       1.0  0.30315  0.13109  0.38515  1.0000
  C   C60       1.0  0.33868  0.14888  0.38324  1.0000
  C   C61       1.0  0.46637  0.28706  0.33882  1.0000
  C   C62       1.0  0.46072  0.30869  0.28298  1.0000
  C   C63       1.0  0.48261  0.34394  0.28521  1.0000
  C   C64       1.0  0.51033  0.35868  0.34476  1.0000
  C   C65       1.0  0.51525  0.33701  0.40233  1.0000
  C   C66       1.0  0.49357  0.30199  0.39995  1.0000
  C   C67       1.0  0.46655  0.18035  0.33292  1.0000
  C   C68       1.0  0.49321  0.19194  0.39562  1.0000
  C   C69       1.0  0.51489  0.17861  0.39791  1.0000
  C   C70       1.0  0.51040  0.15251  0.33909  1.0000
  C   C71       1.0  0.48319  0.14015  0.27790  1.0000
  C   C72       1.0  0.46137  0.15361  0.27548  1.0000
  H   H28       1.0  0.47869  0.35876  0.24123  1.0000
  H   H29       1.0  0.44182  0.29883  0.23643  1.0000
  H   H30       1.0  0.53572  0.34636  0.44397  1.0000
  H   H31       1.0  0.49863  0.28734  0.44166  1.0000
  H   H32       1.0  0.49790  0.21116  0.43876  1.0000
  H   H33       1.0  0.53497  0.18931  0.44090  1.0000
  H   H34       1.0  0.44278  0.14496  0.22810  1.0000
  H   H35       1.0  0.47956  0.12176  0.23305  1.0000
  H   H36       1.0  0.35108  0.13960  0.41994  1.0000
  H   H37       1.0  0.29109  0.10912  0.42088  1.0000
  H   H38       1.0  0.28994  0.18287  0.25428  1.0000
  H   H39       1.0  0.34974  0.21215  0.24827  1.0000
  H   H40       1.0  0.39920  0.24598  0.33911  1.0000
  H   H41       1.0  0.49030  0.24572  0.32173  1.0000
  H   H42       1.0  0.39920  0.15397  0.32659  1.0000
  C   C73       1.0  0.74072  0.19708  0.32630  1.0000
  C   C74       1.0  0.75902  0.17973  0.32682  1.0000
  C   C75       1.0  0.79484  0.19710  0.32971  1.0000
  C   C76       1.0  0.81207  0.23292  0.33191  1.0000
  C   C77       1.0  0.79468  0.25113  0.33025  1.0000
  C   C78       1.0  0.75915  0.23267  0.32505  1.0000
  C   C79       1.0  0.81316  0.17917  0.33274  1.0000
  C   C80       1.0  0.80145  0.14902  0.38263  1.0000
  C   C81       1.0  0.81920  0.13123  0.38380  1.0000
  C   C82       1.0  0.84948  0.14285  0.33502  1.0000
  C   C83       1.0  0.86172  0.17339  0.28705  1.0000
  C   C84       1.0  0.84386  0.19100  0.28546  1.0000
  C   C85       1.0  0.70477  0.18019  0.33326  1.0000
  C   C86       1.0  0.68322  0.15344  0.27582  1.0000
  C   C87       1.0  0.64795  0.14000  0.27816  1.0000
  C   C88       1.0  0.63306  0.15229  0.33946  1.0000
  C   C89       1.0  0.65468  0.17839  0.39833  1.0000
  C   C90       1.0  0.68968  0.19174  0.39603  1.0000
  C   C91       1.0  0.81148  0.28700  0.33900  1.0000
  C   C92       1.0  0.79921  0.30178  0.40059  1.0000
  C   C93       1.0  0.81253  0.33679  0.40350  1.0000
  C   C94       1.0  0.83910  0.35857  0.34606  1.0000
  C   C95       1.0  0.85208  0.34399  0.28598  1.0000
  C   C96       1.0  0.83871  0.30875  0.28313  1.0000
  H   H43       1.0  0.63320  0.12163  0.23327  1.0000
  H   H44       1.0  0.69318  0.14486  0.22830  1.0000
  H   H45       1.0  0.64530  0.18910  0.44127  1.0000
  H   H46       1.0  0.70422  0.21097  0.43914  1.0000
  H   H47       1.0  0.77952  0.28704  0.44223  1.0000
  H   H48       1.0  0.80139  0.34603  0.44543  1.0000
  H   H49       1.0  0.84780  0.29898  0.23647  1.0000
  H   H50       1.0  0.87082  0.35892  0.24216  1.0000
  H   H51       1.0  0.85332  0.21237  0.24739  1.0000
  H   H52       1.0  0.88386  0.18310  0.25213  1.0000
  H   H53       1.0  0.80935  0.10922  0.41932  1.0000
  H   H54       1.0  0.77983  0.13969  0.41965  1.0000
  H   H55       1.0  0.74586  0.15394  0.32675  1.0000
  H   H56       1.0  0.74625  0.24557  0.32188  1.0000
  H   H57       1.0  0.83774  0.24609  0.33895  1.0000
  C   C97       1.0  0.79464  0.54425  0.32990  1.0000
  C   C98       1.0  0.81202  0.57985  0.33229  1.0000
  C   C99       1.0  0.79481  0.59846  0.32993  1.0000
  C   C100      1.0  0.75899  0.57999  0.32647  1.0000
  C   C101      1.0  0.74070  0.54434  0.32541  1.0000
  C   C102      1.0  0.75914  0.52720  0.32395  1.0000
  C   C103      1.0  0.81318  0.63474  0.33316  1.0000
  C   C104      1.0  0.84424  0.65357  0.28737  1.0000
  C   C105      1.0  0.86212  0.68904  0.28864  1.0000
  C   C106      1.0  0.84954  0.70739  0.33483  1.0000
  C   C107      1.0  0.81894  0.68882  0.38235  1.0000
  C   C108      1.0  0.80118  0.65328  0.38147  1.0000
  C   C109      1.0  0.81143  0.52518  0.33873  1.0000
  C   C110      1.0  0.83875  0.53074  0.28315  1.0000
  C   C111      1.0  0.85211  0.50885  0.28600  1.0000
  C   C112      1.0  0.83907  0.48124  0.34593  1.0000
  C   C113      1.0  0.81236  0.47635  0.40299  1.0000
  C   C114      1.0  0.79903  0.49803  0.40000  1.0000
  C   C115      1.0  0.70476  0.52522  0.33272  1.0000
  C   C116      1.0  0.68987  0.49863  0.39566  1.0000
  C   C117      1.0  0.65489  0.47696  0.39871  1.0000
  C   C118      1.0  0.63309  0.48139  0.34043  1.0000
  C   C119      1.0  0.64777  0.50848  0.27884  1.0000
  C   C120      1.0  0.68304  0.53032  0.27571  1.0000
  H   H58       1.0  0.87094  0.51275  0.24242  1.0000
  H   H59       1.0  0.84792  0.54966  0.23667  1.0000
  H   H60       1.0  0.80116  0.45591  0.44471  1.0000
  H   H61       1.0  0.77925  0.49300  0.44138  1.0000
  H   H62       1.0  0.70453  0.49404  0.43860  1.0000
  H   H63       1.0  0.64565  0.45696  0.44191  1.0000
  H   H64       1.0  0.69285  0.54886  0.22818  1.0000
  H   H65       1.0  0.63286  0.51207  0.23439  1.0000
  H   H66       1.0  0.77929  0.64106  0.41739  1.0000
  H   H67       1.0  0.80887  0.70108  0.41650  1.0000
  H   H68       1.0  0.88443  0.70142  0.25447  1.0000
  H   H69       1.0  0.85392  0.64164  0.25017  1.0000
  H   H70       1.0  0.83765  0.59229  0.34002  1.0000
  H   H71       1.0  0.74626  0.50140  0.32043  1.0000
  H   H72       1.0  0.74580  0.59258  0.32637  1.0000
  C   C121      1.0  0.19449  0.09564  0.41880  1.0000
  C   C122      1.0  0.22999  0.11346  0.41749  1.0000
  H   H73       1.0  0.24254  0.11932  0.47730  1.0000
  H   H74       1.0  0.18259  0.08925  0.47953  1.0000
  C   C123      1.0  0.89238  0.09566  0.41433  1.0000
  C   C124      1.0  0.87476  0.11353  0.41400  1.0000
  H   H75       1.0  0.86832  0.11941  0.47416  1.0000
  H   H76       1.0  0.89807  0.08921  0.47474  1.0000
  C   C125      1.0  0.89254  0.79787  0.41066  1.0000
  C   C126      1.0  0.87492  0.76238  0.41181  1.0000
  H   H77       1.0  0.86861  0.75038  0.47242  1.0000
  H   H78       1.0  0.89842  0.81032  0.47061  1.0000
  C   C127      1.0  0.53548  0.14260  0.33676  1.0000
  C   C128      1.0  0.54763  0.13536  0.41615  1.0000
  C   C129      1.0  0.57868  0.13531  0.41624  1.0000
  C   C130      1.0  0.59811  0.14248  0.33694  1.0000
  N   N7        1.0  0.58981  0.12983  0.49558  1.0000
  C   C131      1.0  0.57287  0.12426  0.57380  1.0000
  C   C132      1.0  0.54227  0.12432  0.57371  1.0000
  N   N8        1.0  0.53098  0.12993  0.49541  1.0000
  H   H79       1.0  0.58244  0.12043  0.63143  1.0000
  H   H80       1.0  0.52884  0.12051  0.63127  1.0000
  C   C133      1.0  0.84888  0.39349  0.34358  1.0000
  C   C134      1.0  0.85591  0.41281  0.42303  1.0000
  C   C135      1.0  0.85588  0.44386  0.42299  1.0000
  C   C136      1.0  0.84885  0.45612  0.34350  1.0000
  N   N9        1.0  0.86118  0.46044  0.50232  1.0000
  C   C137      1.0  0.86666  0.44906  0.58064  1.0000
  C   C138      1.0  0.86671  0.41846  0.58067  1.0000
  N   N10       1.0  0.86124  0.40158  0.50240  1.0000
  H   H81       1.0  0.87040  0.46245  0.63825  1.0000
  H   H82       1.0  0.87046  0.40884  0.63832  1.0000
  C   C139      1.0  0.59810  0.45632  0.33904  1.0000
  C   C140      1.0  0.57908  0.44432  0.41909  1.0000
  C   C141      1.0  0.54807  0.41319  0.42030  1.0000
  C   C142      1.0  0.53549  0.39359  0.34140  1.0000
  N   N11       1.0  0.53187  0.40219  0.50020  1.0000
  C   C143      1.0  0.54357  0.41935  0.57800  1.0000
  C   C144      1.0  0.57411  0.45005  0.57681  1.0000
  N   N12       1.0  0.59061  0.46120  0.49794  1.0000
  H   H83       1.0  0.53045  0.40990  0.63607  1.0000
  H   H84       1.0  0.58396  0.46367  0.63401  1.0000
