data_image0
_chemical_formula_structural       C3HNO2NC3HNO2NC3HONCNC3H2CNC2HC2NC2H2C3HNO2NC3HNO2NC3HNON2ONCHN2OC3HNO2NC3HNO2NC3HNO2N2CNCHCNCHC2HCNCNCNC3H3C3HNO2NC3HNO2NC3HNO2N
_chemical_formula_sum              "C60 H24 N36 O24"
_cell_length_a       34.6082
_cell_length_b       34.6083
_cell_length_c       14.4416
_cell_angle_alpha    90
_cell_angle_beta     90
_cell_angle_gamma    120

_space_group_name_H-M_alt    "P 1"
_space_group_IT_number       1

loop_
  _space_group_symop_operation_xyz
  'x, y, z'

loop_
  _atom_site_type_symbol
  _atom_site_label
  _atom_site_symmetry_multiplicity
  _atom_site_fract_x
  _atom_site_fract_y
  _atom_site_fract_z
  _atom_site_occupancy
  C   C1        1.0  0.18994  0.09461  0.36100  1.0000
  C   C2        1.0  0.21542  0.09482  0.28396  1.0000
  C   C3        1.0  0.26275  0.11860  0.28879  1.0000
  H   H1        1.0  0.28063  0.11836  0.23248  1.0000
  N   N1        1.0  0.19270  0.07145  0.20298  1.0000
  O   O1        1.0  0.20251  0.09741  0.13503  1.0000
  O   O2        1.0  0.20177  0.04155  0.18289  1.0000
  N   N2        1.0  0.14519  0.06927  0.35907  1.0000
  C   C4        1.0  0.94614  0.10496  0.36146  1.0000
  C   C5        1.0  0.94631  0.13062  0.28481  1.0000
  C   C6        1.0  0.92255  0.15419  0.28971  1.0000
  H   H2        1.0  0.92306  0.17259  0.23367  1.0000
  N   N3        1.0  0.97003  0.13164  0.20412  1.0000
  O   O3        1.0  0.94438  0.11584  0.13562  1.0000
  O   O4        1.0  0.00005  0.17069  0.18497  1.0000
  N   N4        1.0  0.97145  0.08551  0.35947  1.0000
  C   C7        1.0  0.64892  0.19763  0.35774  1.0000
  C   C8        1.0  0.63265  0.20738  0.27630  1.0000
  C   C9        1.0  0.59186  0.20763  0.27928  1.0000
  H   H3        1.0  0.58140  0.21667  0.22101  1.0000
  O   O5        1.0  0.63722  0.19143  0.13009  1.0000
  N   N5        1.0  0.69066  0.20535  0.35875  1.0000
  C   C10       1.0  0.06915  0.04684  0.37864  1.0000
  N   N6        1.0  0.03871  0.06096  0.37941  1.0000
  C   C11       1.0  0.99386  0.03187  0.37870  1.0000
  C   C12       1.0  0.11448  0.07782  0.38432  1.0000
  C   C13       1.0  0.96288  0.04622  0.38449  1.0000
  H   H4        1.0  0.93253  0.02482  0.40813  1.0000
  H   H5        1.0  0.12344  0.10815  0.40811  1.0000
  C   C14       1.0  0.47134  0.21440  0.37741  1.0000
  N   N7        1.0  0.42592  0.19533  0.38030  1.0000
  C   C15       1.0  0.35986  0.20322  0.38854  1.0000
  C   C16       1.0  0.49348  0.19022  0.37704  1.0000
  H   H6        1.0  0.47681  0.15759  0.38913  1.0000
  C   C17       1.0  0.75457  0.20130  0.38321  1.0000
  C   C18       1.0  0.82002  0.19476  0.38445  1.0000
  N   N8        1.0  0.77470  0.17617  0.38655  1.0000
  C   C19       1.0  0.83755  0.16632  0.38877  1.0000
  C   C20       1.0  0.70875  0.18292  0.38771  1.0000
  H   H7        1.0  0.69004  0.15270  0.41474  1.0000
  H   H8        1.0  0.81672  0.13458  0.40534  1.0000
  C   C21       1.0  0.28583  0.14248  0.36875  1.0000
  C   C22       1.0  0.26034  0.14167  0.44661  1.0000
  C   C23       1.0  0.21298  0.11802  0.44162  1.0000
  H   H9        1.0  0.19505  0.11680  0.49902  1.0000
  N   N9        1.0  0.28282  0.16336  0.52903  1.0000
  O   O6        1.0  0.27418  0.19327  0.55182  1.0000
  O   O7        1.0  0.27251  0.13629  0.59502  1.0000
  N   N10       1.0  0.33069  0.16257  0.36822  1.0000
  C   C24       1.0  0.89831  0.15302  0.36936  1.0000
  C   C25       1.0  0.89873  0.12793  0.44684  1.0000
  C   C26       1.0  0.92237  0.10422  0.44179  1.0000
  H   H10       1.0  0.92331  0.08721  0.49894  1.0000
  N   N11       1.0  0.87667  0.12832  0.52901  1.0000
  O   O8        1.0  0.84663  0.08967  0.55082  1.0000
  O   O9        1.0  0.90344  0.14473  0.59559  1.0000
  N   N12       1.0  0.87825  0.17782  0.36891  1.0000
  C   C27       1.0  0.56725  0.19915  0.36204  1.0000
  C   C28       1.0  0.58424  0.19086  0.44433  1.0000
  C   C29       1.0  0.62448  0.18940  0.44089  1.0000
  H   H11       1.0  0.63773  0.18558  0.50125  1.0000
  N   N13       1.0  0.56234  0.18757  0.52919  1.0000
  O   O10       1.0  0.55068  0.15099  0.56858  1.0000
  N   N14       1.0  0.53595  0.21070  0.36366  1.0000
  N   N15       1.0  0.65847  0.21822  0.19431  1.0000
  O   O11       1.0  0.67031  0.25712  0.16743  1.0000
  N   N16       1.0  0.49610  0.25965  0.37915  1.0000
  C   C30       1.0  0.40584  0.22079  0.38408  1.0000
  H   H12       1.0  0.34893  0.22398  0.40562  1.0000
  N   N17       1.0  0.78119  0.24620  0.37965  1.0000
  N   N18       1.0  0.84550  0.24031  0.38091  1.0000
  O   O12       1.0  0.58703  0.21860  0.58349  1.0000
  C   C31       1.0  0.93588  0.85081  0.36113  1.0000
  C   C32       1.0  0.91173  0.82532  0.28313  1.0000
  C   C33       1.0  0.88814  0.77799  0.28801  1.0000
  H   H13       1.0  0.87084  0.76008  0.23099  1.0000
  N   N19       1.0  0.91221  0.84801  0.20120  1.0000
  O   O13       1.0  0.92933  0.83822  0.13501  1.0000
  O   O14       1.0  0.87354  0.83891  0.17829  1.0000
  N   N20       1.0  0.95523  0.89554  0.35909  1.0000
  C   C34       1.0  0.84334  0.46109  0.35799  1.0000
  C   C35       1.0  0.83326  0.43493  0.27669  1.0000
  C   C36       1.0  0.83295  0.39387  0.27962  1.0000
  H   H14       1.0  0.82370  0.37428  0.22146  1.0000
  N   N21       1.0  0.82215  0.44980  0.19488  1.0000
  O   O15       1.0  0.78314  0.42273  0.16860  1.0000
  O   O16       1.0  0.84870  0.45520  0.13023  1.0000
  N   N22       1.0  0.83570  0.49517  0.35906  1.0000
  C   C37       1.0  0.57982  0.39190  0.35760  1.0000
  C   C38       1.0  0.60594  0.40812  0.27626  1.0000
  C   C39       1.0  0.64700  0.44887  0.27934  1.0000
  H   H15       1.0  0.66656  0.45930  0.22115  1.0000
  N   N23       1.0  0.59103  0.38228  0.19429  1.0000
  O   O17       1.0  0.61809  0.37039  0.16766  1.0000
  O   O18       1.0  0.58559  0.40353  0.12992  1.0000
  N   N24       1.0  0.54576  0.35018  0.35851  1.0000
  N   N25       1.0  0.97975  0.98732  0.37953  1.0000
  C   C40       1.0  0.00883  0.97155  0.37878  1.0000
  N   N26       1.0  0.05339  0.00199  0.37947  1.0000
  C   C41       1.0  0.99445  0.92622  0.38459  1.0000
  H   H16       1.0  0.01576  0.91724  0.40866  1.0000
  C   C42       1.0  0.47782  0.28626  0.38294  1.0000
  N   N27       1.0  0.43256  0.26611  0.38636  1.0000
  C   C43       1.0  0.50526  0.33207  0.38764  1.0000
  H   H17       1.0  0.49378  0.35075  0.41495  1.0000
  C   C44       1.0  0.82643  0.26667  0.37809  1.0000
  C   C45       1.0  0.85063  0.31299  0.37790  1.0000
  H   H18       1.0  0.88319  0.32894  0.39077  1.0000
  C   C46       1.0  0.83961  0.56305  0.38377  1.0000
  N   N28       1.0  0.79471  0.54472  0.37968  1.0000
  C   C47       1.0  0.77419  0.56944  0.37796  1.0000
  N   N29       1.0  0.80049  0.61486  0.38123  1.0000
  C   C48       1.0  0.84602  0.63498  0.38534  1.0000
  N   N30       1.0  0.86468  0.60830  0.38760  1.0000
  C   C49       1.0  0.87434  0.68095  0.39033  1.0000
  C   C50       1.0  0.85801  0.53562  0.38846  1.0000
  C   C51       1.0  0.72787  0.54727  0.37740  1.0000
  H   H19       1.0  0.71187  0.56390  0.38956  1.0000
  H   H20       1.0  0.88813  0.54709  0.41597  1.0000
  H   H21       1.0  0.90584  0.69190  0.40905  1.0000
  C   C52       1.0  0.88780  0.75494  0.36898  1.0000
  C   C53       1.0  0.91134  0.78045  0.44776  1.0000
  C   C54       1.0  0.93510  0.82781  0.44273  1.0000
  H   H22       1.0  0.95097  0.84578  0.50071  1.0000
  N   N31       1.0  0.90934  0.75799  0.53104  1.0000
  O   O19       1.0  0.94754  0.76666  0.55676  1.0000
  O   O20       1.0  0.89159  0.76829  0.59510  1.0000
  N   N32       1.0  0.86306  0.71008  0.36832  1.0000
  C   C55       1.0  0.84173  0.37785  0.36220  1.0000
  C   C56       1.0  0.85037  0.40328  0.44438  1.0000
  C   C57       1.0  0.85186  0.44499  0.44096  1.0000
  H   H23       1.0  0.85594  0.46217  0.50129  1.0000
  N   N33       1.0  0.85396  0.38480  0.52915  1.0000
  O   O21       1.0  0.89069  0.40975  0.56796  1.0000
  O   O22       1.0  0.82315  0.37858  0.58397  1.0000
  N   N34       1.0  0.83023  0.33501  0.36380  1.0000
  C   C58       1.0  0.66306  0.47351  0.36210  1.0000
  C   C59       1.0  0.63768  0.45657  0.44429  1.0000
  C   C60       1.0  0.59596  0.41636  0.44073  1.0000
  H   H24       1.0  0.57882  0.40314  0.50105  1.0000
  N   N35       1.0  0.65621  0.47849  0.52917  1.0000
  O   O23       1.0  0.63128  0.49020  0.56832  1.0000
  O   O24       1.0  0.66245  0.45379  0.58364  1.0000
  N   N36       1.0  0.70591  0.50481  0.36384  1.0000
