data_image0
_chemical_formula_structural       C6H6N2C6H6N2C3H2CHC3H2CHC3H2CHC12H5CNC2NHN2C12H5CNC2NHN2C3HOHCHC3HOHCHC3HOHCH
_chemical_formula_sum              "C66 H42 N12 O3"
_cell_length_a       37.107
_cell_length_b       37.107
_cell_length_c       14.7477
_cell_angle_alpha    90
_cell_angle_beta     90
_cell_angle_gamma    120

_space_group_name_H-M_alt    "P 1"
_space_group_IT_number       1

loop_
  _space_group_symop_operation_xyz
  'x, y, z'

loop_
  _atom_site_type_symbol
  _atom_site_label
  _atom_site_symmetry_multiplicity
  _atom_site_fract_x
  _atom_site_fract_y
  _atom_site_fract_z
  _atom_site_occupancy
  C   C1        1.0  0.38875  0.76273  0.35155  1.0000
  C   C2        1.0  0.19135  0.62834  0.34303  1.0000
  C   C3        1.0  0.23517  0.65071  0.34249  1.0000
  C   C4        1.0  0.36733  0.78519  0.36160  1.0000
  C   C5        1.0  0.38879  0.82903  0.36273  1.0000
  C   C6        1.0  0.43241  0.85212  0.35269  1.0000
  H   H1        1.0  0.17582  0.64448  0.33745  1.0000
  H   H2        1.0  0.24969  0.68232  0.33533  1.0000
  H   H3        1.0  0.33570  0.76990  0.36914  1.0000
  H   H4        1.0  0.37218  0.84406  0.37068  1.0000
  H   H5        1.0  0.37690  0.53561  0.33743  1.0000
  H   H6        1.0  0.33906  0.57164  0.33533  1.0000
  N   N1        1.0  0.32477  0.69549  0.35126  1.0000
  N   N2        1.0  0.45063  0.89352  0.35577  1.0000
  C   C7        1.0  0.63721  0.25438  0.34949  1.0000
  C   C8        1.0  0.83439  0.38920  0.35622  1.0000
  C   C9        1.0  0.79058  0.36672  0.35615  1.0000
  C   C10       1.0  0.65884  0.23199  0.34242  1.0000
  C   C11       1.0  0.63751  0.18815  0.34211  1.0000
  C   C12       1.0  0.59379  0.16495  0.34967  1.0000
  H   H7        1.0  0.84992  0.37301  0.36025  1.0000
  H   H8        1.0  0.77615  0.33502  0.36114  1.0000
  H   H9        1.0  0.69056  0.24735  0.33686  1.0000
  H   H10       1.0  0.65430  0.17320  0.33660  1.0000
  H   H11       1.0  0.64838  0.48119  0.36027  1.0000
  H   H12       1.0  0.68637  0.44541  0.36113  1.0000
  N   N3        1.0  0.70103  0.32176  0.34951  1.0000
  N   N4        1.0  0.57578  0.12352  0.34819  1.0000
  C   C13       1.0  0.48291  0.52221  0.34120  1.0000
  C   C14       1.0  0.47982  0.48881  0.28887  1.0000
  C   C15       1.0  0.50907  0.47540  0.29789  1.0000
  H   H13       1.0  0.50598  0.45168  0.25723  1.0000
  H   H14       1.0  0.45636  0.47407  0.24245  1.0000
  C   C16       1.0  0.45332  0.53462  0.33116  1.0000
  H   H15       1.0  0.42634  0.51502  0.30194  1.0000
  C   C17       1.0  0.49918  0.96498  0.34122  1.0000
  C   C18       1.0  0.53258  0.99529  0.28890  1.0000
  C   C19       1.0  0.54599  0.03793  0.29791  1.0000
  H   H16       1.0  0.56970  0.05856  0.25722  1.0000
  H   H17       1.0  0.54732  0.98656  0.24249  1.0000
  C   C20       1.0  0.48678  0.92298  0.33122  1.0000
  H   H18       1.0  0.50639  0.91559  0.30209  1.0000
  C   C21       1.0  0.05641  0.53847  0.34119  1.0000
  C   C22       1.0  0.02609  0.54156  0.28885  1.0000
  C   C23       1.0  0.98345  0.51232  0.29786  1.0000
  H   H19       1.0  0.96282  0.51538  0.25714  1.0000
  H   H20       1.0  0.03482  0.56500  0.24237  1.0000
  C   C24       1.0  0.09840  0.56806  0.33115  1.0000
  H   H21       1.0  0.10580  0.59505  0.30195  1.0000
  C   C25       1.0  0.25865  0.63030  0.35155  1.0000
  C   C26       1.0  0.39108  0.63263  0.35154  1.0000
  C   C27       1.0  0.23619  0.58641  0.36160  1.0000
  C   C28       1.0  0.19235  0.56403  0.36272  1.0000
  C   C29       1.0  0.16926  0.58456  0.35263  1.0000
  C   C30       1.0  0.45410  0.83003  0.34304  1.0000
  C   C31       1.0  0.43265  0.78621  0.34251  1.0000
  C   C32       1.0  0.43497  0.65405  0.36159  1.0000
  C   C33       1.0  0.45735  0.63259  0.36272  1.0000
  C   C34       1.0  0.43683  0.58898  0.35260  1.0000
  C   C35       1.0  0.39304  0.56729  0.34302  1.0000
  C   C36       1.0  0.37067  0.58874  0.34249  1.0000
  H   H22       1.0  0.17733  0.53239  0.37067  1.0000
  H   H23       1.0  0.44974  0.77169  0.33535  1.0000
  H   H24       1.0  0.48578  0.84556  0.33749  1.0000
  H   H25       1.0  0.45131  0.68568  0.36919  1.0000
  H   H26       1.0  0.48899  0.64921  0.37068  1.0000
  C   C37       1.0  0.36825  0.65430  0.35124  1.0000
  N   N5        1.0  0.38782  0.69661  0.35126  1.0000
  C   C38       1.0  0.36709  0.71823  0.35124  1.0000
  C   C39       1.0  0.30315  0.65313  0.35124  1.0000
  N   N6        1.0  0.32589  0.63356  0.35126  1.0000
  H   H27       1.0  0.25148  0.57007  0.36917  1.0000
  N   N7        1.0  0.46000  0.57075  0.35574  1.0000
  N   N8        1.0  0.12786  0.56138  0.35574  1.0000
  C   C40       1.0  0.76701  0.38711  0.34949  1.0000
  C   C41       1.0  0.63427  0.38417  0.34949  1.0000
  C   C42       1.0  0.78939  0.43113  0.34243  1.0000
  C   C43       1.0  0.83323  0.45364  0.34211  1.0000
  C   C44       1.0  0.85643  0.43311  0.34968  1.0000
  C   C45       1.0  0.57191  0.18699  0.35621  1.0000
  C   C46       1.0  0.59324  0.23080  0.35615  1.0000
  C   C47       1.0  0.59026  0.36254  0.34243  1.0000
  C   C48       1.0  0.56775  0.38387  0.34211  1.0000
  C   C49       1.0  0.58827  0.42759  0.34974  1.0000
  C   C50       1.0  0.63219  0.44947  0.35622  1.0000
  C   C51       1.0  0.65467  0.42814  0.35616  1.0000
  H   H28       1.0  0.84818  0.48538  0.33660  1.0000
  H   H29       1.0  0.57598  0.24524  0.36114  1.0000
  H   H30       1.0  0.54019  0.17147  0.36025  1.0000
  H   H31       1.0  0.57390  0.33082  0.33685  1.0000
  H   H32       1.0  0.53600  0.36708  0.33662  1.0000
  C   C52       1.0  0.65726  0.36266  0.34951  1.0000
  N   N9        1.0  0.63785  0.32036  0.34951  1.0000
  C   C53       1.0  0.65873  0.29887  0.34951  1.0000
  C   C54       1.0  0.72251  0.36413  0.34951  1.0000
  N   N10       1.0  0.69962  0.38354  0.34951  1.0000
  H   H33       1.0  0.77403  0.44749  0.33686  1.0000
  N   N11       1.0  0.56484  0.44560  0.34822  1.0000
  N   N12       1.0  0.89787  0.45655  0.34820  1.0000
  C   C55       1.0  0.54240  0.49464  0.36036  1.0000
  C   C56       1.0  0.54530  0.52778  0.41404  1.0000
  C   C57       1.0  0.51612  0.54134  0.40394  1.0000
  H   H34       1.0  0.51924  0.56532  0.44375  1.0000
  O   O1        1.0  0.57654  0.54824  0.47531  1.0000
  H   H35       1.0  0.56749  0.53164  0.53131  1.0000
  C   C58       1.0  0.57241  0.48263  0.36709  1.0000
  H   H36       1.0  0.60064  0.50350  0.38866  1.0000
  C   C59       1.0  0.52674  0.05204  0.36033  1.0000
  C   C60       1.0  0.49360  0.02179  0.41402  1.0000
  C   C61       1.0  0.48004  0.97906  0.40395  1.0000
  H   H37       1.0  0.45606  0.95820  0.44376  1.0000
  O   O2        1.0  0.47314  0.03259  0.47526  1.0000
  H   H38       1.0  0.48973  0.04014  0.53126  1.0000
  C   C62       1.0  0.53874  0.09405  0.36701  1.0000
  H   H39       1.0  0.51786  0.10141  0.38851  1.0000
  C   C63       1.0  0.96935  0.47899  0.36035  1.0000
  C   C64       1.0  0.99959  0.47610  0.41407  1.0000
  C   C65       1.0  0.04232  0.50528  0.40398  1.0000
  H   H40       1.0  0.06319  0.50217  0.44380  1.0000
  O   O3        1.0  0.98880  0.44487  0.47536  1.0000
  H   H41       1.0  0.98124  0.45392  0.53133  1.0000
  C   C66       1.0  0.92733  0.44897  0.36703  1.0000
  H   H42       1.0  0.91997  0.42073  0.38856  1.0000
