data_image0
_chemical_formula_structural       C2HC2HC4HC2N2C8HC7HCH4N3C8HC7HCH4N4C3H2CHC3H2CHC3H2C4H2CHC3H2CHC3H2CHC6H4N3C3NC2NHCH3CHC3NC2NHCH3CHC3NC2NHCH3CHC3NC2NHCH3CHC3NC2NHCH3CHC3NC2NHCH3CH
_chemical_formula_sum              "C114 H66 N24"
_cell_length_a       30.6703
_cell_length_b       30.6703
_cell_length_c       14.8614
_cell_angle_alpha    90.0004
_cell_angle_beta     89.9996
_cell_angle_gamma    120

_space_group_name_H-M_alt    "P 1"
_space_group_IT_number       1

loop_
  _space_group_symop_operation_xyz
  'x, y, z'

loop_
  _atom_site_type_symbol
  _atom_site_label
  _atom_site_symmetry_multiplicity
  _atom_site_fract_x
  _atom_site_fract_y
  _atom_site_fract_z
  _atom_site_occupancy
  C   C1        1.0  0.04901  0.55425  0.37019  1.0000
  C   C2        1.0  0.04824  0.46155  0.36552  1.0000
  H   H1        1.0  0.04767  0.42792  0.36763  1.0000
  C   C3        1.0  0.04870  0.60103  0.37017  1.0000
  C   C4        1.0  0.04946  0.69373  0.36545  1.0000
  H   H2        1.0  0.05004  0.72737  0.36755  1.0000
  C   C5        1.0  0.09508  0.50673  0.36997  1.0000
  C   C6        1.0  0.09529  0.55350  0.36887  1.0000
  C   C7        1.0  0.09571  0.69421  0.36678  1.0000
  C   C8        1.0  0.09508  0.64756  0.36779  1.0000
  H   H3        1.0  0.13299  0.79896  0.34534  1.0000
  C   C9        1.0  0.13993  0.60026  0.35760  1.0000
  C   C10       1.0  0.14007  0.64593  0.35896  1.0000
  N   N1        1.0  0.13542  0.49940  0.37776  1.0000
  N   N2        1.0  0.14077  0.73787  0.37098  1.0000
  C   C11       1.0  0.57224  0.60118  0.37019  1.0000
  C   C12       1.0  0.61876  0.60132  0.36779  1.0000
  C   C13       1.0  0.66541  0.64734  0.36681  1.0000
  C   C14       1.0  0.66494  0.69311  0.36549  1.0000
  C   C15       1.0  0.61976  0.69478  0.36989  1.0000
  C   C16       1.0  0.57299  0.64821  0.36888  1.0000
  C   C17       1.0  0.61713  0.55471  0.35891  1.0000
  C   C18       1.0  0.52623  0.64610  0.35773  1.0000
  H   H4        1.0  0.69857  0.72617  0.36760  1.0000
  C   C19       1.0  0.52545  0.55410  0.37020  1.0000
  C   C20       1.0  0.52470  0.50706  0.36885  1.0000
  C   C21       1.0  0.47793  0.46049  0.36993  1.0000
  C   C22       1.0  0.43275  0.46217  0.36563  1.0000
  C   C23       1.0  0.43228  0.50794  0.36692  1.0000
  C   C24       1.0  0.47892  0.55395  0.36791  1.0000
  C   C25       1.0  0.57146  0.50918  0.35752  1.0000
  H   H5        1.0  0.39912  0.42910  0.36766  1.0000
  C   C26       1.0  0.48056  0.60057  0.35904  1.0000
  H   H6        1.0  0.57346  0.47803  0.34153  1.0000
  H   H7        1.0  0.64929  0.55318  0.34871  1.0000
  H   H8        1.0  0.44840  0.60209  0.34880  1.0000
  H   H9        1.0  0.52422  0.67723  0.34152  1.0000
  N   N3        1.0  0.62709  0.74244  0.37773  1.0000
  N   N4        1.0  0.38861  0.50932  0.37114  1.0000
  N   N5        1.0  0.47060  0.41283  0.37775  1.0000
  C   C27       1.0  0.52531  0.07749  0.37040  1.0000
  C   C28       1.0  0.52517  0.12387  0.36797  1.0000
  C   C29       1.0  0.47916  0.12451  0.36691  1.0000
  C   C30       1.0  0.43339  0.07826  0.36562  1.0000
  C   C31       1.0  0.43171  0.03142  0.37006  1.0000
  C   C32       1.0  0.47828  0.03121  0.36910  1.0000
  C   C33       1.0  0.57179  0.16886  0.35913  1.0000
  C   C34       1.0  0.48040  0.98657  0.35785  1.0000
  H   H10       1.0  0.40033  0.07884  0.36757  1.0000
  C   C35       1.0  0.57240  0.07779  0.37042  1.0000
  C   C36       1.0  0.61943  0.12407  0.36909  1.0000
  C   C37       1.0  0.66600  0.12386  0.37011  1.0000
  C   C38       1.0  0.66432  0.07702  0.36575  1.0000
  C   C39       1.0  0.61856  0.03077  0.36702  1.0000
  C   C40       1.0  0.57254  0.03140  0.36807  1.0000
  C   C41       1.0  0.61732  0.16871  0.35778  1.0000
  H   H11       1.0  0.69739  0.07644  0.36762  1.0000
  C   C42       1.0  0.52592  0.98641  0.35926  1.0000
  H   H12       1.0  0.64845  0.20182  0.34150  1.0000
  H   H13       1.0  0.57331  0.20252  0.34866  1.0000
  H   H14       1.0  0.52440  0.95275  0.34878  1.0000
  H   H15       1.0  0.44927  0.95344  0.34156  1.0000
  N   N6        1.0  0.38404  0.99108  0.37779  1.0000
  N   N7        1.0  0.48055  0.16956  0.37106  1.0000
  N   N8        1.0  0.61717  0.98572  0.37120  1.0000
  N   N9        1.0  0.71366  0.16420  0.37783  1.0000
  C   C43       1.0  0.30151  0.49076  0.37765  1.0000
  C   C44       1.0  0.25117  0.45677  0.35169  1.0000
  C   C45       1.0  0.21273  0.46904  0.35968  1.0000
  H   H16       1.0  0.17732  0.44325  0.33833  1.0000
  H   H17       1.0  0.24197  0.42268  0.32399  1.0000
  C   C46       1.0  0.33854  0.47640  0.36540  1.0000
  H   H18       1.0  0.32754  0.44046  0.34538  1.0000
  C   C47       1.0  0.63574  0.91718  0.37770  1.0000
  C   C48       1.0  0.66973  0.90083  0.35173  1.0000
  C   C49       1.0  0.65747  0.85013  0.35971  1.0000
  H   H19       1.0  0.68325  0.84051  0.33833  1.0000
  H   H20       1.0  0.70381  0.92573  0.32401  1.0000
  C   C50       1.0  0.65009  0.96857  0.36544  1.0000
  H   H21       1.0  0.68603  0.99350  0.34543  1.0000
  C   C51       1.0  0.20931  0.82498  0.37756  1.0000
  C   C52       1.0  0.22567  0.87533  0.35165  1.0000
  C   C53       1.0  0.27636  0.91377  0.35968  1.0000
  H   H22       1.0  0.28598  0.94918  0.33835  1.0000
  H   H23       1.0  0.20076  0.88453  0.32394  1.0000
  C   C54       1.0  0.15794  0.78794  0.36521  1.0000
  C   C55       1.0  0.79620  0.66452  0.37755  1.0000
  C   C56       1.0  0.84654  0.69852  0.35164  1.0000
  C   C57       1.0  0.88498  0.68626  0.35965  1.0000
  H   H24       1.0  0.92039  0.71206  0.33833  1.0000
  H   H25       1.0  0.85574  0.73262  0.32395  1.0000
  C   C58       1.0  0.75915  0.67886  0.36522  1.0000
  H   H26       1.0  0.77016  0.71483  0.34537  1.0000
  C   C59       1.0  0.46198  0.23811  0.37758  1.0000
  C   C60       1.0  0.42799  0.25446  0.35164  1.0000
  C   C61       1.0  0.44023  0.30515  0.35969  1.0000
  H   H27       1.0  0.41443  0.31476  0.33837  1.0000
  H   H28       1.0  0.39388  0.22954  0.32400  1.0000
  C   C62       1.0  0.44765  0.18673  0.36526  1.0000
  H   H29       1.0  0.41168  0.16178  0.34539  1.0000
  C   C63       1.0  0.88839  0.33030  0.37758  1.0000
  C   C64       1.0  0.87204  0.27995  0.35168  1.0000
  C   C65       1.0  0.82134  0.24151  0.35970  1.0000
  H   H30       1.0  0.81173  0.20610  0.33839  1.0000
  H   H31       1.0  0.89695  0.27075  0.32399  1.0000
  C   C66       1.0  0.93977  0.36734  0.36524  1.0000
  H   H32       1.0  0.96472  0.35632  0.34539  1.0000
  C   C67       1.0  0.00262  0.50772  0.36783  1.0000
  C   C68       1.0  0.00199  0.46107  0.36682  1.0000
  C   C69       1.0  0.95764  0.50935  0.35894  1.0000
  C   C70       1.0  0.00242  0.60178  0.36885  1.0000
  C   C71       1.0  0.00262  0.64855  0.36986  1.0000
  C   C72       1.0  0.95776  0.55502  0.35773  1.0000
  H   H33       1.0  0.92464  0.55302  0.34142  1.0000
  H   H34       1.0  0.92396  0.47719  0.34868  1.0000
  H   H35       1.0  0.17375  0.67809  0.34869  1.0000
  H   H36       1.0  0.17307  0.60225  0.34154  1.0000
  N   N10       1.0  0.95694  0.41741  0.37101  1.0000
  N   N11       1.0  0.96228  0.65588  0.37768  1.0000
  N   N12       1.0  0.70908  0.64595  0.37099  1.0000
  C   C73       1.0  0.22227  0.51543  0.39687  1.0000
  C   C74       1.0  0.27235  0.54943  0.42522  1.0000
  C   C75       1.0  0.31144  0.53739  0.41574  1.0000
  N   N13       1.0  0.35781  0.57148  0.44789  1.0000
  C   C76       1.0  0.36972  0.61631  0.48612  1.0000
  C   C77       1.0  0.33133  0.62852  0.49255  1.0000
  N   N14       1.0  0.28474  0.59474  0.46272  1.0000
  H   H37       1.0  0.33766  0.66155  0.52073  1.0000
  C   C78       1.0  0.42089  0.65043  0.52025  1.0000
  H   H38       1.0  0.44467  0.63348  0.51411  1.0000
  H   H39       1.0  0.41923  0.65873  0.59116  1.0000
  H   H40       1.0  0.43799  0.68549  0.48207  1.0000
  C   C79       1.0  0.18396  0.52825  0.40460  1.0000
  H   H41       1.0  0.19279  0.56092  0.43694  1.0000
  C   C80       1.0  0.61107  0.81327  0.39688  1.0000
  C   C81       1.0  0.57707  0.82935  0.42525  1.0000
  C   C82       1.0  0.58910  0.88047  0.41577  1.0000
  N   N15       1.0  0.55501  0.89275  0.44793  1.0000
  C   C83       1.0  0.51017  0.85982  0.48615  1.0000
  C   C84       1.0  0.49798  0.80923  0.49259  1.0000
  N   N16       1.0  0.53175  0.79642  0.46273  1.0000
  H   H42       1.0  0.46493  0.78251  0.52071  1.0000
  C   C85       1.0  0.47605  0.87686  0.52027  1.0000
  H   H43       1.0  0.49299  0.91759  0.51414  1.0000
  H   H44       1.0  0.46773  0.86689  0.59117  1.0000
  H   H45       1.0  0.44099  0.85889  0.48208  1.0000
  C   C86       1.0  0.59825  0.76213  0.40460  1.0000
  H   H46       1.0  0.56557  0.73830  0.43690  1.0000
  C   C87       1.0  0.31322  0.90422  0.39684  1.0000
  C   C88       1.0  0.29713  0.85413  0.42516  1.0000
  C   C89       1.0  0.24601  0.81505  0.41564  1.0000
  N   N17       1.0  0.23373  0.76866  0.44776  1.0000
  C   C90       1.0  0.26665  0.75675  0.48598  1.0000
  C   C91       1.0  0.31724  0.79515  0.49247  1.0000
  N   N18       1.0  0.33006  0.84174  0.46265  1.0000
  H   H47       1.0  0.34395  0.78881  0.52059  1.0000
  C   C92       1.0  0.24960  0.70557  0.52007  1.0000
  H   H48       1.0  0.20887  0.68179  0.51392  1.0000
  H   H49       1.0  0.25957  0.70722  0.59097  1.0000
  H   H50       1.0  0.26758  0.68849  0.48186  1.0000
  C   C93       1.0  0.36435  0.94253  0.40461  1.0000
  H   H51       1.0  0.38818  0.93369  0.43692  1.0000
  C   C94       1.0  0.87544  0.63986  0.39680  1.0000
  C   C95       1.0  0.82534  0.60584  0.42512  1.0000
  C   C96       1.0  0.78626  0.61787  0.41559  1.0000
  N   N19       1.0  0.73988  0.58378  0.44773  1.0000
  C   C97       1.0  0.72797  0.53894  0.48595  1.0000
  C   C98       1.0  0.76635  0.52674  0.49236  1.0000
  N   N20       1.0  0.81296  0.56053  0.46259  1.0000
  H   H52       1.0  0.76003  0.49371  0.52059  1.0000
  C   C99       1.0  0.67680  0.50483  0.52009  1.0000
  H   H53       1.0  0.65302  0.52178  0.51396  1.0000
  H   H54       1.0  0.67847  0.49652  0.59099  1.0000
  H   H55       1.0  0.65970  0.46977  0.48189  1.0000
  C   C100      1.0  0.91374  0.62703  0.40453  1.0000
  H   H56       1.0  0.90490  0.59435  0.43683  1.0000
  C   C101      1.0  0.48663  0.34201  0.39685  1.0000
  C   C102      1.0  0.52064  0.32593  0.42517  1.0000
  C   C103      1.0  0.50862  0.27482  0.41565  1.0000
  N   N21       1.0  0.54272  0.26254  0.44777  1.0000
  C   C104      1.0  0.58756  0.29547  0.48598  1.0000
  C   C105      1.0  0.59974  0.34605  0.49246  1.0000
  N   N22       1.0  0.56596  0.35887  0.46264  1.0000
  H   H57       1.0  0.63280  0.37277  0.52058  1.0000
  C   C106      1.0  0.62169  0.27843  0.52008  1.0000
  H   H58       1.0  0.60475  0.23770  0.51395  1.0000
  H   H59       1.0  0.63002  0.28841  0.59098  1.0000
  H   H60       1.0  0.65675  0.29640  0.48187  1.0000
  C   C107      1.0  0.49945  0.39314  0.40459  1.0000
  H   H61       1.0  0.53213  0.41698  0.43690  1.0000
  C   C108      1.0  0.78449  0.25106  0.39685  1.0000
  C   C109      1.0  0.80057  0.30115  0.42516  1.0000
  C   C110      1.0  0.85169  0.34024  0.41563  1.0000
  N   N23       1.0  0.86397  0.38662  0.44774  1.0000
  C   C111      1.0  0.83104  0.39853  0.48596  1.0000
  C   C112      1.0  0.78046  0.36014  0.49240  1.0000
  N   N24       1.0  0.76764  0.31354  0.46262  1.0000
  H   H62       1.0  0.75375  0.36648  0.52057  1.0000
  C   C113      1.0  0.84809  0.44971  0.52005  1.0000
  H   H63       1.0  0.88882  0.47349  0.51392  1.0000
  H   H64       1.0  0.83812  0.44806  0.59095  1.0000
  H   H65       1.0  0.83013  0.46680  0.48183  1.0000
  C   C114      1.0  0.73336  0.21275  0.40461  1.0000
  H   H66       1.0  0.70952  0.22159  0.43692  1.0000
