data_image0
_chemical_formula_structural       C2HCHC3HNC2HCHCH3NC4NHC3H2NCHC8H4N2C6H6N2C6H6N2C6H6N2C6H6N2C6H6N2C2NO2CHC3HNO2CHC3HNO2CHC3HNO2C3HNO2CHC3HNO2CHC3HNO2CHC3HNO2CHC3HNO2CHC12H5CNC2NHN2C12H5CNC2NHN2C12H5CNC2NHN2C12H5CNC2NHN2C12H5CNC2NHN2CNO2C3HNO2CHC3HNO2CHC3HNO2CHC3HNO2CHC3HNO2CHC3HNO2CHC3HNO2CHC3HNO2CH
_chemical_formula_sum              "C198 H108 N54 O36"
_cell_length_a       77.0631
_cell_length_b       77.0631
_cell_length_c       14.9098
_cell_angle_alpha    90
_cell_angle_beta     90
_cell_angle_gamma    120

_space_group_name_H-M_alt    "P 1"
_space_group_IT_number       1

loop_
  _space_group_symop_operation_xyz
  'x, y, z'

loop_
  _atom_site_type_symbol
  _atom_site_label
  _atom_site_symmetry_multiplicity
  _atom_site_fract_x
  _atom_site_fract_y
  _atom_site_fract_z
  _atom_site_occupancy
  C   C1        1.0  0.09053  0.56036  0.34062  1.0000
  C   C2        1.0  0.11166  0.57108  0.34180  1.0000
  H   H1        1.0  0.08301  0.56805  0.34852  1.0000
  C   C3        1.0  0.01767  0.50850  0.26475  1.0000
  H   H2        1.0  0.02695  0.51255  0.21013  1.0000
  C   C4        1.0  0.11205  0.54026  0.31665  1.0000
  C   C5        1.0  0.09093  0.52956  0.31426  1.0000
  C   C6        1.0  0.07982  0.53937  0.32752  1.0000
  H   H3        1.0  0.08367  0.51441  0.30371  1.0000
  N   N1        1.0  0.05984  0.52835  0.32383  1.0000
  C   C7        1.0  0.02572  0.51676  0.34954  1.0000
  C   C8        1.0  0.01238  0.51118  0.42287  1.0000
  H   H4        1.0  0.01783  0.51692  0.48520  1.0000
  C   C9        1.0  0.04599  0.53052  0.36136  1.0000
  H   H5        1.0  0.04979  0.54186  0.40364  1.0000
  C   C10       1.0  0.17941  0.63744  0.33816  1.0000
  H   H6        1.0  0.11870  0.58622  0.35207  1.0000
  H   H7        1.0  0.16437  0.63158  0.34836  1.0000
  H   H8        1.0  0.16794  0.53577  0.28755  1.0000
  N   N2        1.0  0.15506  0.59262  0.32983  1.0000
  C   C11       1.0  0.12295  0.56129  0.33046  1.0000
  C   C12       1.0  0.17538  0.57221  0.34620  1.0000
  C   C13       1.0  0.17547  0.60323  0.33282  1.0000
  C   C14       1.0  0.14442  0.57211  0.33334  1.0000
  N   N3        1.0  0.15503  0.56229  0.34084  1.0000
  H   H9        1.0  0.11938  0.53241  0.30710  1.0000
  C   C15       1.0  0.18748  0.62459  0.32795  1.0000
  C   C16       1.0  0.19188  0.65851  0.33695  1.0000
  C   C17       1.0  0.21283  0.66736  0.32634  1.0000
  H   H10       1.0  0.18563  0.66739  0.34586  1.0000
  H   H11       1.0  0.19037  0.52259  0.29015  1.0000
  N   N4        1.0  0.22467  0.68727  0.32504  1.0000
  C   C18       1.0  0.23091  0.52877  0.31989  1.0000
  H   H12       1.0  0.22132  0.51967  0.27398  1.0000
  C   C19       1.0  0.18737  0.56299  0.35496  1.0000
  C   C20       1.0  0.22083  0.65463  0.31192  1.0000
  C   C21       1.0  0.20845  0.63374  0.31349  1.0000
  C   C22       1.0  0.20653  0.57366  0.39572  1.0000
  C   C23       1.0  0.21956  0.56589  0.39779  1.0000
  C   C24       1.0  0.21403  0.54724  0.35826  1.0000
  C   C25       1.0  0.19475  0.53615  0.31952  1.0000
  C   C26       1.0  0.18152  0.54385  0.31875  1.0000
  H   H13       1.0  0.21516  0.62532  0.30347  1.0000
  H   H14       1.0  0.23583  0.66050  0.30061  1.0000
  H   H15       1.0  0.21143  0.58749  0.42360  1.0000
  H   H16       1.0  0.23344  0.57434  0.42605  1.0000
  N   N5        1.0  0.18485  0.59243  0.34153  1.0000
  N   N6        1.0  0.22807  0.54206  0.35832  1.0000
  C   C27       1.0  0.38296  0.56438  0.32801  1.0000
  C   C28       1.0  0.44720  0.53166  0.34061  1.0000
  C   C29       1.0  0.43648  0.54207  0.34178  1.0000
  C   C30       1.0  0.37011  0.54344  0.33813  1.0000
  C   C31       1.0  0.34904  0.53485  0.33696  1.0000
  C   C32       1.0  0.34018  0.54694  0.32638  1.0000
  H   H17       1.0  0.43950  0.51645  0.34850  1.0000
  H   H18       1.0  0.42134  0.53397  0.35207  1.0000
  H   H19       1.0  0.37597  0.53427  0.34822  1.0000
  H   H20       1.0  0.34017  0.51972  0.34571  1.0000
  H   H21       1.0  0.48496  0.66927  0.29015  1.0000
  H   H22       1.0  0.47177  0.63366  0.28754  1.0000
  N   N7        1.0  0.41494  0.56394  0.32984  1.0000
  N   N8        1.0  0.32027  0.53887  0.32508  1.0000
  C   C33       1.0  0.44319  0.82008  0.32797  1.0000
  C   C34       1.0  0.47590  0.91703  0.34059  1.0000
  C   C35       1.0  0.46549  0.89590  0.34176  1.0000
  C   C36       1.0  0.46412  0.82816  0.33814  1.0000
  C   C37       1.0  0.47271  0.81568  0.33696  1.0000
  C   C38       1.0  0.46063  0.79474  0.32636  1.0000
  H   H23       1.0  0.49112  0.92455  0.34847  1.0000
  H   H24       1.0  0.47359  0.88885  0.35205  1.0000
  H   H25       1.0  0.47329  0.84320  0.34832  1.0000
  H   H26       1.0  0.48784  0.82194  0.34581  1.0000
  H   H27       1.0  0.33830  0.81715  0.28997  1.0000
  H   H28       1.0  0.37390  0.83959  0.28742  1.0000
  N   N9        1.0  0.44363  0.85249  0.32981  1.0000
  N   N10       1.0  0.46869  0.78290  0.32510  1.0000
  C   C39       1.0  0.82176  0.38186  0.32480  1.0000
  C   C40       1.0  0.91854  0.44604  0.32342  1.0000
  C   C41       1.0  0.89741  0.43539  0.32313  1.0000
  C   C42       1.0  0.82979  0.36904  0.33751  1.0000
  C   C43       1.0  0.81734  0.34797  0.33634  1.0000
  C   C44       1.0  0.79646  0.33910  0.32304  1.0000
  H   H29       1.0  0.92592  0.43821  0.31581  1.0000
  H   H30       1.0  0.89031  0.42020  0.31440  1.0000
  H   H31       1.0  0.84474  0.37492  0.35030  1.0000
  H   H32       1.0  0.82353  0.33911  0.34759  1.0000
  H   H33       1.0  0.81843  0.48359  0.29442  1.0000
  H   H34       1.0  0.84101  0.47060  0.29201  1.0000
  N   N11       1.0  0.85407  0.41388  0.32987  1.0000
  N   N12       1.0  0.78461  0.31919  0.32271  1.0000
  C   C45       1.0  0.62568  0.44137  0.32475  1.0000
  C   C46       1.0  0.56152  0.47398  0.32342  1.0000
  C   C47       1.0  0.57216  0.46350  0.32311  1.0000
  C   C48       1.0  0.63851  0.46223  0.33747  1.0000
  C   C49       1.0  0.65958  0.47084  0.33627  1.0000
  C   C50       1.0  0.66844  0.45883  0.32300  1.0000
  H   H35       1.0  0.56935  0.48919  0.31570  1.0000
  H   H36       1.0  0.58735  0.47159  0.31431  1.0000
  H   H37       1.0  0.63263  0.47130  0.35027  1.0000
  H   H38       1.0  0.66844  0.48589  0.34757  1.0000
  H   H39       1.0  0.52391  0.33632  0.29463  1.0000
  H   H40       1.0  0.53693  0.37190  0.29206  1.0000
  N   N13       1.0  0.59367  0.44167  0.32985  1.0000
  N   N14       1.0  0.68835  0.46688  0.32268  1.0000
  C   C51       1.0  0.56616  0.18580  0.32478  1.0000
  C   C52       1.0  0.53356  0.08902  0.32349  1.0000
  C   C53       1.0  0.54404  0.11015  0.32316  1.0000
  C   C54       1.0  0.54530  0.17776  0.33748  1.0000
  C   C55       1.0  0.53669  0.19022  0.33630  1.0000
  C   C56       1.0  0.54870  0.21110  0.32308  1.0000
  H   H41       1.0  0.51835  0.08164  0.31580  1.0000
  H   H42       1.0  0.53595  0.11725  0.31436  1.0000
  H   H43       1.0  0.53623  0.16282  0.35025  1.0000
  H   H44       1.0  0.52165  0.18403  0.34759  1.0000
  H   H45       1.0  0.67123  0.18910  0.29454  1.0000
  H   H46       1.0  0.63565  0.16652  0.29211  1.0000
  N   N15       1.0  0.56587  0.15348  0.32986  1.0000
  N   N16       1.0  0.54065  0.22295  0.32274  1.0000
  C   C57       1.0  0.98371  0.48918  0.32753  1.0000
  C   C58       1.0  0.99693  0.49484  0.25280  1.0000
  N   N17       1.0  0.98921  0.48694  0.16662  1.0000
  O   O1        1.0  0.99213  0.50055  0.11190  1.0000
  O   O2        1.0  0.99688  0.47714  0.13564  1.0000
  C   C59       1.0  0.96355  0.47479  0.31699  1.0000
  H   H47       1.0  0.96028  0.46178  0.28921  1.0000
  C   C60       1.0  0.51838  0.49602  0.32749  1.0000
  C   C61       1.0  0.51272  0.50359  0.25276  1.0000
  C   C62       1.0  0.49906  0.51066  0.26470  1.0000
  H   H48       1.0  0.49501  0.51589  0.21009  1.0000
  N   N18       1.0  0.52062  0.50377  0.16658  1.0000
  O   O3        1.0  0.50701  0.49308  0.11185  1.0000
  O   O4        1.0  0.53042  0.52124  0.13561  1.0000
  C   C63       1.0  0.53277  0.49025  0.31693  1.0000
  H   H49       1.0  0.54580  0.50001  0.28935  1.0000
  C   C64       1.0  0.51153  0.02385  0.32757  1.0000
  C   C65       1.0  0.50397  0.01063  0.25282  1.0000
  C   C66       1.0  0.49690  0.98989  0.26473  1.0000
  H   H50       1.0  0.49167  0.98062  0.21011  1.0000
  N   N19       1.0  0.50378  0.01835  0.16666  1.0000
  O   O5        1.0  0.51447  0.01544  0.11191  1.0000
  O   O6        1.0  0.48631  0.01068  0.13570  1.0000
  C   C67       1.0  0.51729  0.04400  0.31706  1.0000
  H   H51       1.0  0.50755  0.04727  0.28932  1.0000
  C   C68       1.0  0.24930  0.52985  0.33118  1.0000
  C   C69       1.0  0.26116  0.53158  0.25597  1.0000
  C   C70       1.0  0.28120  0.53577  0.26549  1.0000
  H   H52       1.0  0.25566  0.53099  0.19278  1.0000
  N   N20       1.0  0.29328  0.53899  0.18857  1.0000
  O   O7        1.0  0.29539  0.55364  0.14297  1.0000
  O   O8        1.0  0.28612  0.52374  0.13918  1.0000
  C   C71       1.0  0.47769  0.72093  0.33119  1.0000
  C   C72       1.0  0.47600  0.73109  0.25597  1.0000
  C   C73       1.0  0.47179  0.74692  0.26550  1.0000
  H   H53       1.0  0.47655  0.72615  0.19279  1.0000
  N   N21       1.0  0.46856  0.75577  0.18859  1.0000
  O   O9        1.0  0.45391  0.74322  0.14301  1.0000
  O   O10       1.0  0.48380  0.76387  0.13918  1.0000
  C   C74       1.0  0.47877  0.70363  0.31987  1.0000
  H   H54       1.0  0.48786  0.70313  0.27392  1.0000
  C   C75       1.0  0.28662  0.75825  0.33117  1.0000
  C   C76       1.0  0.27647  0.74639  0.25595  1.0000
  C   C77       1.0  0.26065  0.72634  0.26549  1.0000
  H   H55       1.0  0.28141  0.75188  0.19278  1.0000
  N   N22       1.0  0.25180  0.71426  0.18855  1.0000
  O   O11       1.0  0.26436  0.71218  0.14295  1.0000
  O   O12       1.0  0.24369  0.72140  0.13916  1.0000
  C   C78       1.0  0.30394  0.77662  0.31983  1.0000
  H   H56       1.0  0.30439  0.78624  0.27422  1.0000
  C   C79       1.0  0.75927  0.47587  0.33217  1.0000
  C   C80       1.0  0.74762  0.47424  0.25628  1.0000
  C   C81       1.0  0.72754  0.46997  0.26467  1.0000
  H   H57       1.0  0.75331  0.47494  0.19342  1.0000
  N   N23       1.0  0.71566  0.46685  0.18710  1.0000
  O   O13       1.0  0.71373  0.45229  0.14129  1.0000
  O   O14       1.0  0.72292  0.48217  0.13820  1.0000
  C   C82       1.0  0.77773  0.47704  0.32188  1.0000
  H   H58       1.0  0.78743  0.48631  0.27677  1.0000
  C   C83       1.0  0.53165  0.28490  0.33225  1.0000
  C   C84       1.0  0.53332  0.27489  0.25636  1.0000
  C   C85       1.0  0.53758  0.25907  0.26474  1.0000
  H   H59       1.0  0.53262  0.27988  0.19350  1.0000
  N   N24       1.0  0.54072  0.25033  0.18717  1.0000
  O   O15       1.0  0.55529  0.26296  0.14144  1.0000
  O   O16       1.0  0.52540  0.24228  0.13819  1.0000
  C   C86       1.0  0.53046  0.30216  0.32201  1.0000
  H   H60       1.0  0.52131  0.30266  0.27640  1.0000
  C   C87       1.0  0.72267  0.24826  0.33217  1.0000
  C   C88       1.0  0.73271  0.25990  0.25628  1.0000
  C   C89       1.0  0.74851  0.27999  0.26469  1.0000
  H   H61       1.0  0.72770  0.25422  0.19342  1.0000
  N   N25       1.0  0.75726  0.29186  0.18711  1.0000
  O   O17       1.0  0.74463  0.29379  0.14130  1.0000
  O   O18       1.0  0.76533  0.28461  0.13821  1.0000
  C   C90       1.0  0.70538  0.22981  0.32184  1.0000
  H   H62       1.0  0.70493  0.22011  0.27670  1.0000
  C   C91       1.0  0.44627  0.56316  0.33044  1.0000
  C   C92       1.0  0.44456  0.62587  0.35493  1.0000
  C   C93       1.0  0.46730  0.57328  0.31663  1.0000
  C   C94       1.0  0.47799  0.56286  0.31422  1.0000
  C   C95       1.0  0.46819  0.54195  0.32746  1.0000
  C   C96       1.0  0.35291  0.56767  0.31207  1.0000
  C   C97       1.0  0.37380  0.57619  0.31363  1.0000
  C   C98       1.0  0.43388  0.63435  0.39572  1.0000
  C   C99       1.0  0.44166  0.65515  0.39783  1.0000
  C   C100      1.0  0.46030  0.66827  0.35826  1.0000
  C   C101      1.0  0.47140  0.66009  0.31954  1.0000
  C   C102      1.0  0.46370  0.63915  0.31874  1.0000
  H   H63       1.0  0.49315  0.57075  0.30367  1.0000
  H   H64       1.0  0.38222  0.59132  0.30367  1.0000
  H   H65       1.0  0.34704  0.57681  0.30080  1.0000
  H   H66       1.0  0.42006  0.62543  0.42360  1.0000
  H   H67       1.0  0.43321  0.66060  0.42605  1.0000
  C   C103      1.0  0.43534  0.60466  0.34618  1.0000
  N   N26       1.0  0.41512  0.59390  0.34154  1.0000
  C   C104      1.0  0.40432  0.57372  0.33284  1.0000
  C   C105      1.0  0.43544  0.57380  0.33333  1.0000
  N   N27       1.0  0.44527  0.59423  0.34081  1.0000
  H   H68       1.0  0.47514  0.58846  0.30708  1.0000
  N   N28       1.0  0.46549  0.68750  0.35833  1.0000
  N   N29       1.0  0.47921  0.53299  0.32379  1.0000
  C   C106      1.0  0.44441  0.88460  0.33043  1.0000
  C   C107      1.0  0.38170  0.82019  0.35500  1.0000
  C   C108      1.0  0.43428  0.89551  0.31663  1.0000
  C   C109      1.0  0.44471  0.91662  0.31422  1.0000
  C   C110      1.0  0.46562  0.92773  0.32744  1.0000
  C   C111      1.0  0.43990  0.78674  0.31198  1.0000
  C   C112      1.0  0.43138  0.79911  0.31353  1.0000
  C   C113      1.0  0.37322  0.80104  0.39582  1.0000
  C   C114      1.0  0.35242  0.78800  0.39789  1.0000
  C   C115      1.0  0.33930  0.79350  0.35820  1.0000
  C   C116      1.0  0.34747  0.81278  0.31948  1.0000
  C   C117      1.0  0.36841  0.82603  0.31878  1.0000
  H   H69       1.0  0.43681  0.92389  0.30367  1.0000
  H   H70       1.0  0.41624  0.79239  0.30353  1.0000
  H   H71       1.0  0.43076  0.77173  0.30068  1.0000
  H   H72       1.0  0.38215  0.79614  0.42373  1.0000
  H   H73       1.0  0.34698  0.77411  0.42611  1.0000
  C   C118      1.0  0.40290  0.83217  0.34621  1.0000
  N   N30       1.0  0.41366  0.82271  0.34154  1.0000
  C   C119      1.0  0.43384  0.83209  0.33282  1.0000
  C   C120      1.0  0.43377  0.86313  0.33332  1.0000
  N   N31       1.0  0.41333  0.85253  0.34083  1.0000
  H   H74       1.0  0.41911  0.88818  0.30710  1.0000
  N   N32       1.0  0.32008  0.77945  0.35819  1.0000
  N   N33       1.0  0.47458  0.94772  0.32378  1.0000
  C   C121      1.0  0.88617  0.44523  0.33516  1.0000
  C   C122      1.0  0.82154  0.44317  0.35781  1.0000
  C   C123      1.0  0.89720  0.46630  0.34757  1.0000
  C   C124      1.0  0.91832  0.47695  0.34831  1.0000
  C   C125      1.0  0.92937  0.46706  0.33573  1.0000
  C   C126      1.0  0.78855  0.35180  0.30565  1.0000
  C   C127      1.0  0.80090  0.37269  0.30725  1.0000
  C   C128      1.0  0.80229  0.43230  0.39759  1.0000
  C   C129      1.0  0.78917  0.43997  0.39963  1.0000
  C   C130      1.0  0.79468  0.45869  0.36086  1.0000
  C   C131      1.0  0.81406  0.46999  0.32332  1.0000
  C   C132      1.0  0.82739  0.46240  0.32270  1.0000
  H   H75       1.0  0.92564  0.49213  0.35822  1.0000
  H   H76       1.0  0.79426  0.38112  0.29540  1.0000
  H   H77       1.0  0.77361  0.34589  0.29255  1.0000
  H   H78       1.0  0.79739  0.41840  0.42464  1.0000
  H   H79       1.0  0.77520  0.43137  0.42695  1.0000
  C   C133      1.0  0.83358  0.43405  0.34849  1.0000
  N   N34       1.0  0.82418  0.41386  0.34121  1.0000
  C   C134      1.0  0.83366  0.40319  0.33132  1.0000
  C   C135      1.0  0.86467  0.43435  0.33620  1.0000
  N   N35       1.0  0.85396  0.44405  0.34488  1.0000
  H   H80       1.0  0.88997  0.47424  0.35724  1.0000
  N   N36       1.0  0.78054  0.46374  0.36032  1.0000
  N   N37       1.0  0.94936  0.47816  0.33934  1.0000
  C   C136      1.0  0.56232  0.44243  0.33518  1.0000
  C   C137      1.0  0.56436  0.37984  0.35780  1.0000
  C   C138      1.0  0.54125  0.43239  0.34763  1.0000
  C   C139      1.0  0.53060  0.44286  0.34836  1.0000
  C   C140      1.0  0.54050  0.46380  0.33577  1.0000
  C   C141      1.0  0.65575  0.43822  0.30560  1.0000
  C   C142      1.0  0.63485  0.42968  0.30721  1.0000
  C   C143      1.0  0.57523  0.37146  0.39757  1.0000
  C   C144      1.0  0.56754  0.35067  0.39969  1.0000
  C   C145      1.0  0.54882  0.33747  0.36098  1.0000
  C   C146      1.0  0.53753  0.34555  0.32339  1.0000
  C   C147      1.0  0.54512  0.36647  0.32278  1.0000
  H   H81       1.0  0.51542  0.43500  0.35828  1.0000
  H   H82       1.0  0.62642  0.41462  0.29536  1.0000
  H   H83       1.0  0.66165  0.42918  0.29252  1.0000
  H   H84       1.0  0.58914  0.38045  0.42457  1.0000
  H   H85       1.0  0.57614  0.34530  0.42704  1.0000
  C   C148      1.0  0.57349  0.40101  0.34844  1.0000
  N   N38       1.0  0.59368  0.41179  0.34116  1.0000
  C   C149      1.0  0.60435  0.43194  0.33128  1.0000
  C   C150      1.0  0.57320  0.43180  0.33619  1.0000
  N   N39       1.0  0.56349  0.41139  0.34486  1.0000
  H   H86       1.0  0.53331  0.41722  0.35732  1.0000
  N   N40       1.0  0.54374  0.31827  0.36059  1.0000
  N   N41       1.0  0.52940  0.47269  0.33928  1.0000
  C   C151      1.0  0.56511  0.12138  0.33519  1.0000
  C   C152      1.0  0.62770  0.18602  0.35769  1.0000
  C   C153      1.0  0.57516  0.11035  0.34765  1.0000
  C   C154      1.0  0.56468  0.08923  0.34840  1.0000
  C   C155      1.0  0.54374  0.07819  0.33583  1.0000
  C   C156      1.0  0.56931  0.21901  0.30568  1.0000
  C   C157      1.0  0.57785  0.20665  0.30725  1.0000
  C   C158      1.0  0.63607  0.20528  0.39740  1.0000
  C   C159      1.0  0.65687  0.21839  0.39945  1.0000
  C   C160      1.0  0.67007  0.21287  0.36077  1.0000
  C   C161      1.0  0.66199  0.19349  0.32326  1.0000
  C   C162      1.0  0.64107  0.18016  0.32260  1.0000
  H   H87       1.0  0.57254  0.08191  0.35831  1.0000
  H   H88       1.0  0.59292  0.21330  0.29541  1.0000
  H   H89       1.0  0.57835  0.23395  0.29261  1.0000
  H   H90       1.0  0.62708  0.21018  0.42441  1.0000
  H   H91       1.0  0.66223  0.23236  0.42675  1.0000
  C   C163      1.0  0.60652  0.17397  0.34839  1.0000
  N   N42       1.0  0.59574  0.18338  0.34112  1.0000
  C   C164      1.0  0.57559  0.17389  0.33127  1.0000
  C   C165      1.0  0.57574  0.14288  0.33618  1.0000
  N   N43       1.0  0.59615  0.15360  0.34482  1.0000
  H   H92       1.0  0.59032  0.11759  0.35728  1.0000
  N   N44       1.0  0.68926  0.22701  0.36028  1.0000
  N   N45       1.0  0.53485  0.05820  0.33940  1.0000
  C   C166      1.0  0.99161  0.49739  0.41337  1.0000
  N   N46       1.0  0.97874  0.49149  0.48902  1.0000
  O   O19       1.0  0.97851  0.50618  0.52440  1.0000
  O   O20       1.0  0.98377  0.48307  0.54738  1.0000
  C   C167      1.0  0.49080  0.51046  0.34950  1.0000
  C   C168      1.0  0.49638  0.50269  0.42282  1.0000
  C   C169      1.0  0.51016  0.49571  0.41332  1.0000
  H   H93       1.0  0.49063  0.50240  0.48514  1.0000
  N   N47       1.0  0.51606  0.48873  0.48897  1.0000
  O   O21       1.0  0.50137  0.47381  0.52432  1.0000
  O   O22       1.0  0.52448  0.50217  0.54735  1.0000
  C   C170      1.0  0.47704  0.51696  0.36130  1.0000
  H   H94       1.0  0.46569  0.50942  0.40354  1.0000
  C   C171      1.0  0.49711  0.98184  0.34951  1.0000
  C   C172      1.0  0.50486  0.99517  0.42286  1.0000
  C   C173      1.0  0.51185  0.01594  0.41339  1.0000
  H   H95       1.0  0.50517  0.98972  0.48516  1.0000
  N   N48       1.0  0.51882  0.02881  0.48906  1.0000
  O   O23       1.0  0.53374  0.02904  0.52438  1.0000
  O   O24       1.0  0.50538  0.02378  0.54743  1.0000
  C   C174      1.0  0.49061  0.96157  0.36129  1.0000
  H   H96       1.0  0.49815  0.95777  0.40351  1.0000
  C   C175      1.0  0.28950  0.53782  0.35278  1.0000
  C   C176      1.0  0.27741  0.53538  0.42917  1.0000
  C   C177      1.0  0.25749  0.53131  0.41739  1.0000
  H   H97       1.0  0.24919  0.53028  0.47290  1.0000
  N   N49       1.0  0.28557  0.53765  0.51660  1.0000
  O   O25       1.0  0.27598  0.52195  0.56224  1.0000
  O   O26       1.0  0.28576  0.55194  0.55813  1.0000
  C   C178      1.0  0.31002  0.54575  0.36416  1.0000
  H   H98       1.0  0.31715  0.55815  0.40109  1.0000
  C   C179      1.0  0.46973  0.75317  0.35279  1.0000
  C   C180      1.0  0.47218  0.74352  0.42918  1.0000
  C   C181      1.0  0.47624  0.72767  0.41740  1.0000
  H   H99       1.0  0.47726  0.72039  0.47291  1.0000
  N   N50       1.0  0.46991  0.74941  0.51662  1.0000
  O   O27       1.0  0.48561  0.75552  0.56226  1.0000
  O   O28       1.0  0.45561  0.73531  0.55813  1.0000
  C   C182      1.0  0.46182  0.76577  0.36418  1.0000
  H   H100      1.0  0.44940  0.76048  0.40103  1.0000
  C   C183      1.0  0.25441  0.71804  0.35278  1.0000
  C   C184      1.0  0.26405  0.73013  0.42918  1.0000
  C   C185      1.0  0.27991  0.75005  0.41738  1.0000
  H   H101      1.0  0.28717  0.75835  0.47289  1.0000
  N   N51       1.0  0.25816  0.72197  0.51660  1.0000
  O   O29       1.0  0.25205  0.73156  0.56224  1.0000
  O   O30       1.0  0.27226  0.72178  0.55812  1.0000
  C   C186      1.0  0.24181  0.69752  0.36406  1.0000
  H   H102      1.0  0.24708  0.69038  0.40100  1.0000
  C   C187      1.0  0.71899  0.46776  0.35149  1.0000
  C   C188      1.0  0.73086  0.47012  0.42859  1.0000
  C   C189      1.0  0.75083  0.47424  0.41792  1.0000
  H   H103      1.0  0.75898  0.47523  0.47389  1.0000
  N   N52       1.0  0.72245  0.46772  0.51554  1.0000
  O   O31       1.0  0.73189  0.48337  0.56165  1.0000
  O   O32       1.0  0.72219  0.45340  0.55711  1.0000
  C   C190      1.0  0.69844  0.45981  0.36165  1.0000
  H   H104      1.0  0.69117  0.44725  0.39751  1.0000
  C   C191      1.0  0.53977  0.25272  0.35155  1.0000
  C   C192      1.0  0.53740  0.26222  0.42863  1.0000
  C   C193      1.0  0.53325  0.27805  0.41798  1.0000
  H   H105      1.0  0.53226  0.28522  0.47397  1.0000
  N   N53       1.0  0.53979  0.25621  0.51558  1.0000
  O   O33       1.0  0.52413  0.24998  0.56165  1.0000
  O   O34       1.0  0.55410  0.27026  0.55721  1.0000
  C   C194      1.0  0.54772  0.24012  0.36171  1.0000
  H   H106      1.0  0.56027  0.24541  0.39761  1.0000
  C   C195      1.0  0.75485  0.28855  0.35150  1.0000
  C   C196      1.0  0.74532  0.27668  0.42857  1.0000
  C   C197      1.0  0.72949  0.25670  0.41791  1.0000
  H   H107      1.0  0.72230  0.24856  0.47388  1.0000
  N   N54       1.0  0.75132  0.28509  0.51552  1.0000
  O   O35       1.0  0.75753  0.27566  0.56170  1.0000
  O   O36       1.0  0.73725  0.28535  0.55703  1.0000
  C   C198      1.0  0.76744  0.30910  0.36164  1.0000
  H   H108      1.0  0.76215  0.31636  0.39749  1.0000
