data_image0
_chemical_formula_structural       C3H2C2HC2O2C4HC5HOHOHNHC4HC5HOHOHNHC3HC4H2C2O2CNC2HNHNHCNC2HNHNHC3H2C2HC2O2C4HC5HOHOHNHC4HC5HOHOHNHC3HC4H2C2O2CNC2HNHNHCNC2HNHNHC3H2C2HC2O2C4HC5HOHOHNHC4HC5HOHOHNHC3HC4H2C2O2CNC2HNHNHCNC2HNHNHC3H2C2HC2O2C4HC5HOHOHNHC4HC5HOHOHNHC3HC4H2C2O2CNC2HNHNHCNC2HNHNH
_chemical_formula_sum              "C160 H88 O32 N32"
_cell_length_a       38.7168
_cell_length_b       38.7168
_cell_length_c       15.052
_cell_angle_alpha    90
_cell_angle_beta     90
_cell_angle_gamma    90

_space_group_name_H-M_alt    "P 1"
_space_group_IT_number       1

loop_
  _space_group_symop_operation_xyz
  'x, y, z'

loop_
  _atom_site_type_symbol
  _atom_site_label
  _atom_site_symmetry_multiplicity
  _atom_site_fract_x
  _atom_site_fract_y
  _atom_site_fract_z
  _atom_site_occupancy
  C   C1        1.0  0.49131  0.44969  0.33741  1.0000
  C   C2        1.0  0.46588  0.42362  0.34537  1.0000
  C   C3        1.0  0.43107  0.43433  0.34338  1.0000
  H   H1        1.0  0.01642  0.44189  0.33581  1.0000
  H   H2        1.0  0.41225  0.41588  0.34635  1.0000
  C   C4        1.0  0.02784  0.07219  0.29474  1.0000
  C   C5        1.0  0.00249  0.04595  0.29853  1.0000
  H   H3        1.0  0.47941  0.05127  0.26896  1.0000
  C   C6        1.0  0.02140  0.10567  0.26012  1.0000
  C   C7        1.0  0.47320  0.38780  0.35392  1.0000
  O   O1        1.0  0.04961  0.12446  0.23625  1.0000
  O   O2        1.0  0.44664  0.36752  0.38187  1.0000
  C   C8        1.0  0.00581  0.33666  0.31698  1.0000
  C   C9        1.0  0.00004  0.26489  0.29063  1.0000
  C   C10       1.0  0.01642  0.28513  0.22423  1.0000
  C   C11       1.0  0.01980  0.32107  0.23974  1.0000
  H   H4        1.0  0.02916  0.33656  0.19021  1.0000
  C   C12       1.0  0.99426  0.22937  0.27742  1.0000
  C   C13       1.0  0.00294  0.17673  0.19367  1.0000
  C   C14       1.0  0.00651  0.21299  0.19930  1.0000
  C   C15       1.0  0.02282  0.23303  0.13264  1.0000
  C   C16       1.0  0.02738  0.26898  0.14461  1.0000
  H   H5        1.0  0.01277  0.16397  0.13982  1.0000
  O   O3        1.0  0.03506  0.21808  0.05702  1.0000
  H   H6        1.0  0.01577  0.21817  0.01449  1.0000
  O   O4        1.0  0.04360  0.28744  0.07985  1.0000
  H   H7        1.0  0.02543  0.29491  0.03842  1.0000
  N   N1        1.0  0.00217  0.37183  0.32155  1.0000
  H   H8        1.0  0.01629  0.38557  0.28127  1.0000
  C   C17       1.0  0.15635  0.99430  0.37175  1.0000
  C   C18       1.0  0.22800  0.00292  0.34794  1.0000
  C   C19       1.0  0.20883  0.98492  0.28212  1.0000
  C   C20       1.0  0.17312  0.97989  0.29679  1.0000
  H   H9        1.0  0.15845  0.96884  0.24789  1.0000
  C   C21       1.0  0.26359  0.00893  0.33647  1.0000
  C   C22       1.0  0.31680  0.99954  0.25580  1.0000
  C   C23       1.0  0.28056  0.99628  0.25958  1.0000
  C   C24       1.0  0.26136  0.97931  0.19245  1.0000
  C   C25       1.0  0.22559  0.97372  0.20363  1.0000
  H   H10       1.0  0.32993  0.98920  0.20314  1.0000
  O   O5        1.0  0.27702  0.96670  0.11818  1.0000
  H   H11       1.0  0.27715  0.98572  0.07489  1.0000
  O   O6        1.0  0.20801  0.95631  0.13927  1.0000
  H   H12       1.0  0.19996  0.97386  0.09682  1.0000
  N   N2        1.0  0.12108  0.99598  0.37304  1.0000
  H   H13       1.0  0.10901  0.97958  0.33473  1.0000
  C   C26       1.0  0.48321  0.48562  0.33279  1.0000
  C   C27       1.0  0.42086  0.46908  0.33382  1.0000
  C   C28       1.0  0.44737  0.49414  0.33184  1.0000
  H   H14       1.0  0.43992  0.01932  0.32952  1.0000
  C   C29       1.0  0.00942  0.01185  0.32979  1.0000
  C   C30       1.0  0.04387  0.00546  0.35886  1.0000
  C   C31       1.0  0.06949  0.03145  0.36171  1.0000
  C   C32       1.0  0.06084  0.06435  0.32856  1.0000
  H   H15       1.0  0.04993  0.48248  0.38808  1.0000
  H   H16       1.0  0.07940  0.08317  0.32808  1.0000
  C   C33       1.0  0.10347  0.02560  0.39332  1.0000
  C   C34       1.0  0.38527  0.47695  0.32344  1.0000
  O   O7        1.0  0.36370  0.44974  0.30893  1.0000
  O   O8        1.0  0.12137  0.05395  0.42021  1.0000
  C   C35       1.0  0.99335  0.31404  0.38360  1.0000
  N   N3        1.0  0.99017  0.27986  0.36793  1.0000
  C   C36       1.0  0.97210  0.17603  0.33310  1.0000
  C   C37       1.0  0.98751  0.15728  0.26296  1.0000
  H   H17       1.0  0.98517  0.32314  0.44368  1.0000
  N   N4        1.0  0.97722  0.21052  0.33965  1.0000
  H   H18       1.0  0.46115  0.16359  0.38594  1.0000
  N   N5        1.0  0.99036  0.12217  0.27006  1.0000
  H   H19       1.0  0.47368  0.11080  0.30880  1.0000
  C   C38       1.0  0.17765  0.00981  0.43693  1.0000
  N   N6        1.0  0.21190  0.01382  0.42290  1.0000
  C   C39       1.0  0.31691  0.02995  0.39588  1.0000
  C   C40       1.0  0.33586  0.01386  0.32723  1.0000
  H   H20       1.0  0.16748  0.01917  0.49470  1.0000
  N   N7        1.0  0.28219  0.02573  0.39983  1.0000
  H   H21       1.0  0.32923  0.54043  0.44953  1.0000
  N   N8        1.0  0.37063  0.00878  0.33574  1.0000
  H   H22       1.0  0.38321  0.52469  0.37401  1.0000
  C   C41       1.0  0.49131  0.94969  0.33741  1.0000
  C   C42       1.0  0.46588  0.92362  0.34537  1.0000
  C   C43       1.0  0.43107  0.93434  0.34338  1.0000
  H   H23       1.0  0.01642  0.94189  0.33581  1.0000
  H   H24       1.0  0.41225  0.91587  0.34635  1.0000
  C   C44       1.0  0.02784  0.57219  0.29474  1.0000
  C   C45       1.0  0.00249  0.54595  0.29853  1.0000
  H   H25       1.0  0.47941  0.55127  0.26896  1.0000
  C   C46       1.0  0.02140  0.60567  0.26012  1.0000
  C   C47       1.0  0.47320  0.88780  0.35392  1.0000
  O   O9        1.0  0.04961  0.62446  0.23625  1.0000
  O   O10       1.0  0.44664  0.86752  0.38187  1.0000
  C   C48       1.0  0.00581  0.83666  0.31698  1.0000
  C   C49       1.0  0.00004  0.76489  0.29063  1.0000
  C   C50       1.0  0.01642  0.78514  0.22423  1.0000
  C   C51       1.0  0.01980  0.82107  0.23974  1.0000
  H   H26       1.0  0.02916  0.83656  0.19021  1.0000
  C   C52       1.0  0.99426  0.72937  0.27742  1.0000
  C   C53       1.0  0.00294  0.67673  0.19367  1.0000
  C   C54       1.0  0.00651  0.71299  0.19930  1.0000
  C   C55       1.0  0.02282  0.73303  0.13264  1.0000
  C   C56       1.0  0.02738  0.76899  0.14461  1.0000
  H   H27       1.0  0.01277  0.66397  0.13982  1.0000
  O   O11       1.0  0.03506  0.71808  0.05702  1.0000
  H   H28       1.0  0.01577  0.71817  0.01449  1.0000
  O   O12       1.0  0.04360  0.78744  0.07985  1.0000
  H   H29       1.0  0.02543  0.79491  0.03842  1.0000
  N   N9        1.0  0.00217  0.87183  0.32155  1.0000
  H   H30       1.0  0.01629  0.88557  0.28127  1.0000
  C   C57       1.0  0.15635  0.49430  0.37175  1.0000
  C   C58       1.0  0.22800  0.50292  0.34794  1.0000
  C   C59       1.0  0.20883  0.48492  0.28212  1.0000
  C   C60       1.0  0.17312  0.47989  0.29679  1.0000
  H   H31       1.0  0.15845  0.46884  0.24789  1.0000
  C   C61       1.0  0.26359  0.50893  0.33647  1.0000
  C   C62       1.0  0.31680  0.49955  0.25580  1.0000
  C   C63       1.0  0.28056  0.49627  0.25958  1.0000
  C   C64       1.0  0.26136  0.47931  0.19245  1.0000
  C   C65       1.0  0.22559  0.47372  0.20363  1.0000
  H   H32       1.0  0.32993  0.48919  0.20314  1.0000
  O   O13       1.0  0.27702  0.46670  0.11818  1.0000
  H   H33       1.0  0.27715  0.48572  0.07489  1.0000
  O   O14       1.0  0.20801  0.45631  0.13927  1.0000
  H   H34       1.0  0.19996  0.47386  0.09682  1.0000
  N   N10       1.0  0.12108  0.49598  0.37304  1.0000
  H   H35       1.0  0.10901  0.47958  0.33473  1.0000
  C   C66       1.0  0.48321  0.98562  0.33279  1.0000
  C   C67       1.0  0.42086  0.96908  0.33382  1.0000
  C   C68       1.0  0.44737  0.99414  0.33184  1.0000
  H   H36       1.0  0.43992  0.51932  0.32952  1.0000
  C   C69       1.0  0.00942  0.51185  0.32979  1.0000
  C   C70       1.0  0.04387  0.50546  0.35886  1.0000
  C   C71       1.0  0.06949  0.53145  0.36171  1.0000
  C   C72       1.0  0.06084  0.56435  0.32856  1.0000
  H   H37       1.0  0.04993  0.98248  0.38808  1.0000
  H   H38       1.0  0.07940  0.58317  0.32808  1.0000
  C   C73       1.0  0.10347  0.52560  0.39332  1.0000
  C   C74       1.0  0.38527  0.97696  0.32344  1.0000
  O   O15       1.0  0.36370  0.94974  0.30893  1.0000
  O   O16       1.0  0.12137  0.55395  0.42021  1.0000
  C   C75       1.0  0.99335  0.81404  0.38360  1.0000
  N   N11       1.0  0.99017  0.77986  0.36793  1.0000
  C   C76       1.0  0.97210  0.67603  0.33310  1.0000
  C   C77       1.0  0.98751  0.65728  0.26296  1.0000
  H   H39       1.0  0.98517  0.82314  0.44368  1.0000
  N   N12       1.0  0.97722  0.71052  0.33965  1.0000
  H   H40       1.0  0.46115  0.66359  0.38594  1.0000
  N   N13       1.0  0.99036  0.62217  0.27006  1.0000
  H   H41       1.0  0.47368  0.61080  0.30880  1.0000
  C   C78       1.0  0.17765  0.50981  0.43693  1.0000
  N   N14       1.0  0.21190  0.51383  0.42290  1.0000
  C   C79       1.0  0.31691  0.52995  0.39588  1.0000
  C   C80       1.0  0.33586  0.51385  0.32723  1.0000
  H   H42       1.0  0.16748  0.51917  0.49470  1.0000
  N   N15       1.0  0.28219  0.52573  0.39983  1.0000
  H   H43       1.0  0.32923  0.04043  0.44953  1.0000
  N   N16       1.0  0.37063  0.50878  0.33574  1.0000
  H   H44       1.0  0.38321  0.02469  0.37401  1.0000
  C   C81       1.0  0.99131  0.44969  0.33741  1.0000
  C   C82       1.0  0.96588  0.42362  0.34537  1.0000
  C   C83       1.0  0.93107  0.43433  0.34338  1.0000
  H   H45       1.0  0.51642  0.44189  0.33581  1.0000
  H   H46       1.0  0.91225  0.41588  0.34635  1.0000
  C   C84       1.0  0.52784  0.07219  0.29474  1.0000
  C   C85       1.0  0.50249  0.04595  0.29853  1.0000
  H   H47       1.0  0.97941  0.05127  0.26896  1.0000
  C   C86       1.0  0.52140  0.10567  0.26012  1.0000
  C   C87       1.0  0.97321  0.38780  0.35392  1.0000
  O   O17       1.0  0.54961  0.12446  0.23625  1.0000
  O   O18       1.0  0.94663  0.36752  0.38187  1.0000
  C   C88       1.0  0.50581  0.33666  0.31698  1.0000
  C   C89       1.0  0.50004  0.26489  0.29063  1.0000
  C   C90       1.0  0.51643  0.28513  0.22423  1.0000
  C   C91       1.0  0.51980  0.32107  0.23974  1.0000
  H   H48       1.0  0.52916  0.33656  0.19021  1.0000
  C   C92       1.0  0.49426  0.22937  0.27742  1.0000
  C   C93       1.0  0.50294  0.17673  0.19367  1.0000
  C   C94       1.0  0.50651  0.21299  0.19930  1.0000
  C   C95       1.0  0.52282  0.23303  0.13264  1.0000
  C   C96       1.0  0.52738  0.26898  0.14461  1.0000
  H   H49       1.0  0.51276  0.16397  0.13982  1.0000
  O   O19       1.0  0.53506  0.21808  0.05702  1.0000
  H   H50       1.0  0.51577  0.21817  0.01449  1.0000
  O   O20       1.0  0.54360  0.28744  0.07985  1.0000
  H   H51       1.0  0.52543  0.29491  0.03842  1.0000
  N   N17       1.0  0.50217  0.37183  0.32155  1.0000
  H   H52       1.0  0.51629  0.38557  0.28127  1.0000
  C   C97       1.0  0.65636  0.99430  0.37175  1.0000
  C   C98       1.0  0.72800  0.00292  0.34794  1.0000
  C   C99       1.0  0.70883  0.98492  0.28212  1.0000
  C   C100      1.0  0.67312  0.97989  0.29679  1.0000
  H   H53       1.0  0.65845  0.96884  0.24789  1.0000
  C   C101      1.0  0.76359  0.00893  0.33647  1.0000
  C   C102      1.0  0.81680  0.99954  0.25580  1.0000
  C   C103      1.0  0.78056  0.99628  0.25958  1.0000
  C   C104      1.0  0.76136  0.97931  0.19245  1.0000
  C   C105      1.0  0.72559  0.97372  0.20363  1.0000
  H   H54       1.0  0.82993  0.98920  0.20314  1.0000
  O   O21       1.0  0.77702  0.96670  0.11818  1.0000
  H   H55       1.0  0.77714  0.98572  0.07489  1.0000
  O   O22       1.0  0.70801  0.95631  0.13927  1.0000
  H   H56       1.0  0.69996  0.97386  0.09682  1.0000
  N   N18       1.0  0.62108  0.99598  0.37304  1.0000
  H   H57       1.0  0.60901  0.97958  0.33473  1.0000
  C   C106      1.0  0.98321  0.48562  0.33279  1.0000
  C   C107      1.0  0.92087  0.46908  0.33382  1.0000
  C   C108      1.0  0.94737  0.49414  0.33184  1.0000
  H   H58       1.0  0.93992  0.01932  0.32952  1.0000
  C   C109      1.0  0.50942  0.01185  0.32979  1.0000
  C   C110      1.0  0.54387  0.00546  0.35886  1.0000
  C   C111      1.0  0.56949  0.03145  0.36171  1.0000
  C   C112      1.0  0.56084  0.06435  0.32856  1.0000
  H   H59       1.0  0.54993  0.48248  0.38808  1.0000
  H   H60       1.0  0.57940  0.08317  0.32808  1.0000
  C   C113      1.0  0.60347  0.02560  0.39332  1.0000
  C   C114      1.0  0.88527  0.47695  0.32344  1.0000
  O   O23       1.0  0.86370  0.44974  0.30893  1.0000
  O   O24       1.0  0.62137  0.05395  0.42021  1.0000
  C   C115      1.0  0.49335  0.31404  0.38360  1.0000
  N   N19       1.0  0.49017  0.27986  0.36793  1.0000
  C   C116      1.0  0.47210  0.17603  0.33310  1.0000
  C   C117      1.0  0.48751  0.15728  0.26296  1.0000
  H   H61       1.0  0.48517  0.32314  0.44368  1.0000
  N   N20       1.0  0.47722  0.21052  0.33965  1.0000
  H   H62       1.0  0.96115  0.16359  0.38594  1.0000
  N   N21       1.0  0.49036  0.12217  0.27006  1.0000
  H   H63       1.0  0.97368  0.11080  0.30880  1.0000
  C   C118      1.0  0.67765  0.00981  0.43693  1.0000
  N   N22       1.0  0.71191  0.01382  0.42290  1.0000
  C   C119      1.0  0.81692  0.02995  0.39588  1.0000
  C   C120      1.0  0.83586  0.01386  0.32723  1.0000
  H   H64       1.0  0.66748  0.01917  0.49470  1.0000
  N   N23       1.0  0.78219  0.02573  0.39983  1.0000
  H   H65       1.0  0.82923  0.54043  0.44953  1.0000
  N   N24       1.0  0.87063  0.00878  0.33574  1.0000
  H   H66       1.0  0.88321  0.52469  0.37401  1.0000
  C   C121      1.0  0.99131  0.94969  0.33741  1.0000
  C   C122      1.0  0.96588  0.92362  0.34537  1.0000
  C   C123      1.0  0.93107  0.93434  0.34338  1.0000
  H   H67       1.0  0.51642  0.94189  0.33581  1.0000
  H   H68       1.0  0.91225  0.91587  0.34635  1.0000
  C   C124      1.0  0.52784  0.57219  0.29474  1.0000
  C   C125      1.0  0.50249  0.54595  0.29853  1.0000
  H   H69       1.0  0.97941  0.55127  0.26896  1.0000
  C   C126      1.0  0.52140  0.60567  0.26012  1.0000
  C   C127      1.0  0.97321  0.88780  0.35392  1.0000
  O   O25       1.0  0.54961  0.62446  0.23625  1.0000
  O   O26       1.0  0.94663  0.86752  0.38187  1.0000
  C   C128      1.0  0.50581  0.83666  0.31698  1.0000
  C   C129      1.0  0.50004  0.76489  0.29063  1.0000
  C   C130      1.0  0.51643  0.78514  0.22423  1.0000
  C   C131      1.0  0.51980  0.82107  0.23974  1.0000
  H   H70       1.0  0.52916  0.83656  0.19021  1.0000
  C   C132      1.0  0.49426  0.72937  0.27742  1.0000
  C   C133      1.0  0.50294  0.67673  0.19367  1.0000
  C   C134      1.0  0.50651  0.71299  0.19930  1.0000
  C   C135      1.0  0.52282  0.73303  0.13264  1.0000
  C   C136      1.0  0.52738  0.76899  0.14461  1.0000
  H   H71       1.0  0.51276  0.66397  0.13982  1.0000
  O   O27       1.0  0.53506  0.71808  0.05702  1.0000
  H   H72       1.0  0.51577  0.71817  0.01449  1.0000
  O   O28       1.0  0.54360  0.78744  0.07985  1.0000
  H   H73       1.0  0.52543  0.79491  0.03842  1.0000
  N   N25       1.0  0.50217  0.87183  0.32155  1.0000
  H   H74       1.0  0.51629  0.88557  0.28127  1.0000
  C   C137      1.0  0.65636  0.49430  0.37175  1.0000
  C   C138      1.0  0.72800  0.50292  0.34794  1.0000
  C   C139      1.0  0.70883  0.48492  0.28212  1.0000
  C   C140      1.0  0.67312  0.47989  0.29679  1.0000
  H   H75       1.0  0.65845  0.46884  0.24789  1.0000
  C   C141      1.0  0.76359  0.50893  0.33647  1.0000
  C   C142      1.0  0.81680  0.49955  0.25580  1.0000
  C   C143      1.0  0.78056  0.49627  0.25958  1.0000
  C   C144      1.0  0.76136  0.47931  0.19245  1.0000
  C   C145      1.0  0.72559  0.47372  0.20363  1.0000
  H   H76       1.0  0.82993  0.48919  0.20314  1.0000
  O   O29       1.0  0.77702  0.46670  0.11818  1.0000
  H   H77       1.0  0.77714  0.48572  0.07489  1.0000
  O   O30       1.0  0.70801  0.45631  0.13927  1.0000
  H   H78       1.0  0.69996  0.47386  0.09682  1.0000
  N   N26       1.0  0.62108  0.49598  0.37304  1.0000
  H   H79       1.0  0.60901  0.47958  0.33473  1.0000
  C   C146      1.0  0.98321  0.98562  0.33279  1.0000
  C   C147      1.0  0.92087  0.96908  0.33382  1.0000
  C   C148      1.0  0.94737  0.99414  0.33184  1.0000
  H   H80       1.0  0.93992  0.51932  0.32952  1.0000
  C   C149      1.0  0.50942  0.51185  0.32979  1.0000
  C   C150      1.0  0.54387  0.50546  0.35886  1.0000
  C   C151      1.0  0.56949  0.53145  0.36171  1.0000
  C   C152      1.0  0.56084  0.56435  0.32856  1.0000
  H   H81       1.0  0.54993  0.98248  0.38808  1.0000
  H   H82       1.0  0.57940  0.58317  0.32808  1.0000
  C   C153      1.0  0.60347  0.52560  0.39332  1.0000
  C   C154      1.0  0.88527  0.97696  0.32344  1.0000
  O   O31       1.0  0.86370  0.94974  0.30893  1.0000
  O   O32       1.0  0.62137  0.55395  0.42021  1.0000
  C   C155      1.0  0.49335  0.81404  0.38360  1.0000
  N   N27       1.0  0.49017  0.77986  0.36793  1.0000
  C   C156      1.0  0.47210  0.67603  0.33310  1.0000
  C   C157      1.0  0.48751  0.65728  0.26296  1.0000
  H   H83       1.0  0.48517  0.82314  0.44368  1.0000
  N   N28       1.0  0.47722  0.71052  0.33965  1.0000
  H   H84       1.0  0.96115  0.66359  0.38594  1.0000
  N   N29       1.0  0.49036  0.62217  0.27006  1.0000
  H   H85       1.0  0.97368  0.61080  0.30880  1.0000
  C   C158      1.0  0.67765  0.50981  0.43693  1.0000
  N   N30       1.0  0.71191  0.51383  0.42290  1.0000
  C   C159      1.0  0.81692  0.52995  0.39588  1.0000
  C   C160      1.0  0.83586  0.51385  0.32723  1.0000
  H   H86       1.0  0.66748  0.51917  0.49470  1.0000
  N   N31       1.0  0.78219  0.52573  0.39983  1.0000
  H   H87       1.0  0.82923  0.04043  0.44953  1.0000
  N   N32       1.0  0.87063  0.50878  0.33574  1.0000
  H   H88       1.0  0.88321  0.02469  0.37401  1.0000
