data_image0
_chemical_formula_structural       C3H2C5NOCHC4NOCHC4NOCHC2NOCHC2NOCHC2NOCHC20H13C24H15C24H15C24H15C2NOCHC2NOCHC2NOCHC4NOCHC4NOCHC4NOCH
_chemical_formula_sum              "C144 H72 N12 O12"
_cell_length_a       45.9462
_cell_length_b       45.9461
_cell_length_c       14.9584
_cell_angle_alpha    90
_cell_angle_beta     90
_cell_angle_gamma    120

_space_group_name_H-M_alt    "P 1"
_space_group_IT_number       1

loop_
  _space_group_symop_operation_xyz
  'x, y, z'

loop_
  _atom_site_type_symbol
  _atom_site_label
  _atom_site_symmetry_multiplicity
  _atom_site_fract_x
  _atom_site_fract_y
  _atom_site_fract_z
  _atom_site_occupancy
  C   C1        1.0  0.01102  0.03244  0.33006  1.0000
  C   C2        1.0  0.02933  0.01520  0.32521  1.0000
  C   C3        1.0  0.01060  0.97960  0.32222  1.0000
  H   H1        1.0  0.02378  0.05811  0.33469  1.0000
  H   H2        1.0  0.02325  0.96670  0.31428  1.0000
  C   C4        1.0  0.06551  0.03314  0.32441  1.0000
  C   C5        1.0  0.24738  0.12539  0.33056  1.0000
  C   C6        1.0  0.22879  0.12190  0.25172  1.0000
  C   C7        1.0  0.19360  0.10386  0.25085  1.0000
  C   C8        1.0  0.17404  0.08803  0.32782  1.0000
  N   N1        1.0  0.18413  0.10469  0.16715  1.0000
  O   O1        1.0  0.24147  0.13379  0.16878  1.0000
  C   C9        1.0  0.21258  0.12262  0.12057  1.0000
  H   H3        1.0  0.21265  0.12773  0.05413  1.0000
  C   C10       1.0  0.86664  0.12344  0.33341  1.0000
  C   C11       1.0  0.87068  0.10833  0.25523  1.0000
  C   C12       1.0  0.88852  0.09099  0.25635  1.0000
  C   C13       1.0  0.90347  0.08711  0.33473  1.0000
  N   N2        1.0  0.88729  0.07947  0.17394  1.0000
  O   O2        1.0  0.85915  0.10870  0.17150  1.0000
  C   C14       1.0  0.86984  0.09008  0.12551  1.0000
  H   H4        1.0  0.86459  0.08434  0.05938  1.0000
  C   C15       1.0  0.86581  0.74333  0.32483  1.0000
  C   C16       1.0  0.86957  0.76223  0.24662  1.0000
  C   C17       1.0  0.88693  0.79741  0.24765  1.0000
  C   C18       1.0  0.90207  0.81649  0.32586  1.0000
  N   N3        1.0  0.88595  0.80725  0.16447  1.0000
  O   O3        1.0  0.85701  0.74986  0.16397  1.0000
  C   C19       1.0  0.86837  0.77901  0.11675  1.0000
  H   H5        1.0  0.86299  0.77928  0.05063  1.0000
  C   C20       1.0  0.58813  0.15478  0.25787  1.0000
  C   C21       1.0  0.55784  0.15515  0.25694  1.0000
  N   N4        1.0  0.55586  0.16729  0.17769  1.0000
  O   O4        1.0  0.60539  0.16704  0.17992  1.0000
  C   C22       1.0  0.58355  0.17320  0.13283  1.0000
  H   H6        1.0  0.58885  0.18338  0.07015  1.0000
  C   C23       1.0  0.83831  0.43426  0.25304  1.0000
  C   C24       1.0  0.83688  0.40311  0.25528  1.0000
  N   N5        1.0  0.82468  0.38837  0.17670  1.0000
  O   O5        1.0  0.82647  0.43886  0.17383  1.0000
  C   C25       1.0  0.82002  0.41037  0.12880  1.0000
  H   H7        1.0  0.80919  0.40473  0.06688  1.0000
  C   C26       1.0  0.55018  0.41067  0.29017  1.0000
  C   C27       1.0  0.58120  0.44067  0.28740  1.0000
  N   N6        1.0  0.58688  0.45041  0.20229  1.0000
  O   O6        1.0  0.53675  0.40121  0.20686  1.0000
  C   C28       1.0  0.56007  0.42735  0.15693  1.0000
  H   H8        1.0  0.55680  0.42962  0.09045  1.0000
  C   C29       1.0  0.97549  0.01533  0.33261  1.0000
  C   C30       1.0  0.97501  0.96118  0.32658  1.0000
  C   C31       1.0  0.95806  0.97978  0.33210  1.0000
  C   C32       1.0  0.08418  0.06417  0.27887  1.0000
  C   C33       1.0  0.11957  0.08212  0.28020  1.0000
  C   C34       1.0  0.13805  0.06972  0.32625  1.0000
  C   C35       1.0  0.11949  0.03856  0.37099  1.0000
  C   C36       1.0  0.08410  0.02082  0.37054  1.0000
  C   C37       1.0  0.95775  0.03353  0.33447  1.0000
  C   C38       1.0  0.96557  0.05985  0.27292  1.0000
  C   C39       1.0  0.94766  0.07732  0.27277  1.0000
  C   C40       1.0  0.92158  0.06942  0.33501  1.0000
  C   C41       1.0  0.91393  0.04336  0.39718  1.0000
  C   C42       1.0  0.93152  0.02554  0.39642  1.0000
  C   C43       1.0  0.95681  0.92501  0.32580  1.0000
  C   C44       1.0  0.92590  0.90654  0.27967  1.0000
  C   C45       1.0  0.90793  0.87115  0.28009  1.0000
  C   C46       1.0  0.92018  0.85249  0.32590  1.0000
  C   C47       1.0  0.95117  0.87087  0.37153  1.0000
  C   C48       1.0  0.96894  0.90625  0.37189  1.0000
  H   H9        1.0  0.95419  0.09624  0.22728  1.0000
  H   H10       1.0  0.98403  0.06612  0.22609  1.0000
  H   H11       1.0  0.89496  0.03664  0.44264  1.0000
  H   H12       1.0  0.92523  0.00687  0.44255  1.0000
  H   H13       1.0  0.91615  0.91870  0.24404  1.0000
  H   H14       1.0  0.88537  0.85912  0.24733  1.0000
  H   H15       1.0  0.99083  0.91820  0.40768  1.0000
  H   H16       1.0  0.96147  0.85863  0.40432  1.0000
  H   H17       1.0  0.07203  0.99888  0.40606  1.0000
  H   H18       1.0  0.13160  0.02817  0.40401  1.0000
  H   H19       1.0  0.13171  0.10481  0.24811  1.0000
  H   H20       1.0  0.07217  0.07408  0.24328  1.0000
  H   H21       1.0  0.93237  0.96721  0.33545  1.0000
  C   C49       1.0  0.44643  0.25042  0.34157  1.0000
  C   C50       1.0  0.41087  0.23262  0.33955  1.0000
  C   C51       1.0  0.39200  0.19702  0.33134  1.0000
  C   C52       1.0  0.41000  0.17935  0.32601  1.0000
  C   C53       1.0  0.44543  0.19625  0.32894  1.0000
  C   C54       1.0  0.46298  0.23163  0.33324  1.0000
  C   C55       1.0  0.35586  0.17932  0.33205  1.0000
  C   C56       1.0  0.33747  0.19213  0.28723  1.0000
  C   C57       1.0  0.30207  0.17469  0.28739  1.0000
  C   C58       1.0  0.28337  0.14347  0.33175  1.0000
  C   C59       1.0  0.30167  0.13066  0.37680  1.0000
  C   C60       1.0  0.33705  0.14826  0.37736  1.0000
  C   C61       1.0  0.46602  0.28598  0.35602  1.0000
  C   C62       1.0  0.46022  0.30936  0.30912  1.0000
  C   C63       1.0  0.48281  0.34428  0.31614  1.0000
  C   C64       1.0  0.51204  0.35716  0.37008  1.0000
  C   C65       1.0  0.51697  0.33357  0.41893  1.0000
  C   C66       1.0  0.49415  0.29900  0.41382  1.0000
  C   C67       1.0  0.46400  0.17910  0.33505  1.0000
  C   C68       1.0  0.48697  0.18684  0.40631  1.0000
  C   C69       1.0  0.50976  0.17494  0.40683  1.0000
  C   C70       1.0  0.51018  0.15447  0.33676  1.0000
  C   C71       1.0  0.48618  0.14552  0.26742  1.0000
  C   C72       1.0  0.46324  0.15749  0.26676  1.0000
  H   H22       1.0  0.47812  0.36025  0.27933  1.0000
  H   H23       1.0  0.44048  0.30109  0.26552  1.0000
  H   H24       1.0  0.53832  0.34095  0.45560  1.0000
  H   H25       1.0  0.49938  0.28326  0.45009  1.0000
  H   H26       1.0  0.48859  0.20281  0.45635  1.0000
  H   H27       1.0  0.52746  0.18322  0.45649  1.0000
  H   H28       1.0  0.44752  0.15209  0.21311  1.0000
  H   H29       1.0  0.48600  0.13114  0.21496  1.0000
  H   H30       1.0  0.34895  0.13809  0.41240  1.0000
  H   H31       1.0  0.28941  0.10792  0.40864  1.0000
  H   H32       1.0  0.29006  0.18535  0.25515  1.0000
  H   H33       1.0  0.34971  0.21423  0.25243  1.0000
  H   H34       1.0  0.39855  0.24579  0.34861  1.0000
  H   H35       1.0  0.48874  0.24397  0.33218  1.0000
  H   H36       1.0  0.39726  0.15368  0.32161  1.0000
  C   C73       1.0  0.74035  0.19558  0.34210  1.0000
  C   C74       1.0  0.75859  0.17836  0.33696  1.0000
  C   C75       1.0  0.79427  0.19578  0.33235  1.0000
  C   C76       1.0  0.81130  0.23150  0.33157  1.0000
  C   C77       1.0  0.79383  0.24947  0.33794  1.0000
  C   C78       1.0  0.75842  0.23103  0.34187  1.0000
  C   C79       1.0  0.81253  0.17788  0.33156  1.0000
  C   C80       1.0  0.80041  0.14708  0.28502  1.0000
  C   C81       1.0  0.81795  0.12923  0.28601  1.0000
  C   C82       1.0  0.84868  0.14149  0.33275  1.0000
  C   C83       1.0  0.86096  0.17234  0.37880  1.0000
  C   C84       1.0  0.84320  0.18996  0.37874  1.0000
  C   C85       1.0  0.70462  0.17859  0.34827  1.0000
  C   C86       1.0  0.68410  0.15611  0.28083  1.0000
  C   C87       1.0  0.64930  0.14445  0.27865  1.0000
  C   C88       1.0  0.63391  0.15443  0.34449  1.0000
  C   C89       1.0  0.65437  0.17572  0.41403  1.0000
  C   C90       1.0  0.68906  0.18751  0.41603  1.0000
  C   C91       1.0  0.81060  0.28524  0.34243  1.0000
  C   C92       1.0  0.80214  0.30105  0.41062  1.0000
  C   C93       1.0  0.81449  0.33584  0.40917  1.0000
  C   C94       1.0  0.83590  0.35618  0.33970  1.0000
  C   C95       1.0  0.84537  0.34056  0.27325  1.0000
  C   C96       1.0  0.83310  0.30563  0.27487  1.0000
  H   H37       1.0  0.63541  0.12947  0.22659  1.0000
  H   H38       1.0  0.69468  0.15000  0.22917  1.0000
  H   H39       1.0  0.64467  0.18475  0.46095  1.0000
  H   H40       1.0  0.70319  0.20421  0.46504  1.0000
  H   H41       1.0  0.78564  0.28710  0.46018  1.0000
  H   H42       1.0  0.80589  0.34577  0.45665  1.0000
  H   H43       1.0  0.83913  0.29496  0.22330  1.0000
  H   H44       1.0  0.86051  0.35439  0.22138  1.0000
  H   H45       1.0  0.85286  0.21168  0.41515  1.0000
  H   H46       1.0  0.88335  0.18266  0.41234  1.0000
  H   H47       1.0  0.80761  0.10672  0.25303  1.0000
  H   H48       1.0  0.77863  0.13731  0.24882  1.0000
  H   H49       1.0  0.74553  0.15268  0.34065  1.0000
  H   H50       1.0  0.74541  0.24380  0.34363  1.0000
  H   H51       1.0  0.83697  0.24486  0.32769  1.0000
  C   C97       1.0  0.79848  0.54689  0.32223  1.0000
  C   C98       1.0  0.81488  0.58232  0.31966  1.0000
  C   C99       1.0  0.79641  0.59951  0.32116  1.0000
  C   C100      1.0  0.76080  0.58025  0.32602  1.0000
  C   C101      1.0  0.74355  0.54469  0.32780  1.0000
  C   C102      1.0  0.76304  0.52876  0.32253  1.0000
  C   C103      1.0  0.81354  0.63544  0.32199  1.0000
  C   C104      1.0  0.83964  0.65443  0.26031  1.0000
  C   C105      1.0  0.85661  0.68981  0.26090  1.0000
  C   C106      1.0  0.84846  0.70752  0.32408  1.0000
  C   C107      1.0  0.82260  0.68861  0.38634  1.0000
  C   C108      1.0  0.80531  0.65322  0.38491  1.0000
  C   C109      1.0  0.81600  0.52878  0.33124  1.0000
  C   C110      1.0  0.83797  0.52941  0.26420  1.0000
  C   C111      1.0  0.84954  0.50617  0.26585  1.0000
  C   C112      1.0  0.83977  0.48189  0.33477  1.0000
  C   C113      1.0  0.81910  0.48257  0.40395  1.0000
  C   C114      1.0  0.80758  0.50567  0.40245  1.0000
  C   C115      1.0  0.70793  0.52461  0.34050  1.0000
  C   C116      1.0  0.69499  0.49666  0.39892  1.0000
  C   C117      1.0  0.66041  0.47422  0.40584  1.0000
  C   C118      1.0  0.63673  0.47939  0.35835  1.0000
  C   C119      1.0  0.64949  0.50802  0.30220  1.0000
  C   C120      1.0  0.68444  0.53028  0.29357  1.0000
  H   H52       1.0  0.86410  0.50621  0.21401  1.0000
  H   H53       1.0  0.84378  0.54516  0.21044  1.0000
  H   H54       1.0  0.81002  0.46458  0.45287  1.0000
  H   H55       1.0  0.79113  0.50397  0.45119  1.0000
  H   H56       1.0  0.71074  0.49159  0.43565  1.0000
  H   H57       1.0  0.65295  0.45322  0.44422  1.0000
  H   H58       1.0  0.69262  0.54994  0.24976  1.0000
  H   H59       1.0  0.63339  0.51276  0.26618  1.0000
  H   H60       1.0  0.78695  0.64051  0.43159  1.0000
  H   H61       1.0  0.81574  0.70049  0.43259  1.0000
  H   H62       1.0  0.87547  0.70256  0.21546  1.0000
  H   H63       1.0  0.84623  0.64261  0.21319  1.0000
  H   H64       1.0  0.84061  0.59569  0.32140  1.0000
  H   H65       1.0  0.75113  0.50302  0.32133  1.0000
  H   H66       1.0  0.74719  0.59232  0.32994  1.0000
  C   C121      1.0  0.19265  0.09153  0.40670  1.0000
  C   C122      1.0  0.22784  0.10955  0.40756  1.0000
  N   N7        1.0  0.23734  0.10857  0.49112  1.0000
  O   O7        1.0  0.18000  0.07954  0.48960  1.0000
  C   C123      1.0  0.20890  0.09061  0.53772  1.0000
  H   H67       1.0  0.20884  0.08536  0.60405  1.0000
  C   C124      1.0  0.89935  0.10198  0.41300  1.0000
  C   C125      1.0  0.88172  0.11953  0.41181  1.0000
  N   N8        1.0  0.88259  0.13034  0.49496  1.0000
  O   O8        1.0  0.91199  0.10234  0.49565  1.0000
  C   C126      1.0  0.90024  0.11980  0.54286  1.0000
  H   H68       1.0  0.90588  0.12580  0.60873  1.0000
  C   C127      1.0  0.89820  0.79744  0.40413  1.0000
  C   C128      1.0  0.88062  0.76225  0.40318  1.0000
  N   N9        1.0  0.88216  0.75208  0.48552  1.0000
  O   O9        1.0  0.90987  0.80946  0.48769  1.0000
  C   C129      1.0  0.89948  0.78021  0.53379  1.0000
  H   H69       1.0  0.90490  0.77983  0.59982  1.0000
  C   C130      1.0  0.53673  0.14690  0.33287  1.0000
  C   C131      1.0  0.54744  0.13678  0.40971  1.0000
  C   C132      1.0  0.57810  0.13728  0.41141  1.0000
  C   C133      1.0  0.59996  0.14708  0.33683  1.0000
  N   N10       1.0  0.58209  0.12913  0.49417  1.0000
  O   O10       1.0  0.53205  0.12841  0.49115  1.0000
  C   C134      1.0  0.55455  0.12355  0.53931  1.0000
  H   H70       1.0  0.55136  0.11763  0.60575  1.0000
  C   C135      1.0  0.84422  0.39045  0.33317  1.0000
  C   C136      1.0  0.85458  0.41196  0.40863  1.0000
  C   C137      1.0  0.85528  0.44273  0.40702  1.0000
  C   C138      1.0  0.84633  0.45466  0.33043  1.0000
  N   N11       1.0  0.86333  0.45547  0.48924  1.0000
  O   O11       1.0  0.86204  0.40516  0.49151  1.0000
  C   C139      1.0  0.86773  0.43330  0.53714  1.0000
  H   H71       1.0  0.87321  0.43639  0.60385  1.0000
  C   C140      1.0  0.60180  0.45457  0.36386  1.0000
  C   C141      1.0  0.58726  0.43810  0.44561  1.0000
  C   C142      1.0  0.55681  0.40774  0.44803  1.0000
  C   C143      1.0  0.53785  0.39187  0.37023  1.0000
  N   N12       1.0  0.55251  0.39681  0.53217  1.0000
  O   O12       1.0  0.60191  0.44646  0.52795  1.0000
  C   C144      1.0  0.57905  0.42007  0.57780  1.0000
  H   H72       1.0  0.58363  0.41653  0.64242  1.0000
