data_image0
_chemical_formula_structural       CHC2H3C2HNC2HCHCHNC3NHC3H4C6NC2NC6H6N2C6H6N2CNC6H6N2C6H6N2C3HCH3CHC3HCH3CHC3H2CHC3H2CHC3H2CHC3H2CHC3H2CHC3H2CHC3H4NC12H5CNC2NHN2C12H5CNC2NHN2C5H4NC12H5CNC2NHN2C12H5CNC2NHN2C3H2CHC3H2CHC3HCH3CHC3HCH3CHC3HCH3CHC3HCH3CHC3HCH3CHC3HCH3CHC5H6NC2HCHC7HCNC2NHNCH
_chemical_formula_sum              "C207 H144 N36"
_cell_length_a       76.9872
_cell_length_b       76.9872
_cell_length_c       14.9196
_cell_angle_alpha    90
_cell_angle_beta     90
_cell_angle_gamma    120

_space_group_name_H-M_alt    "P 1"
_space_group_IT_number       1

loop_
  _space_group_symop_operation_xyz
  'x, y, z'

loop_
  _atom_site_type_symbol
  _atom_site_label
  _atom_site_symmetry_multiplicity
  _atom_site_fract_x
  _atom_site_fract_y
  _atom_site_fract_z
  _atom_site_occupancy
  C   C1        1.0  0.09019  0.56037  0.35386  1.0000
  H   H1        1.0  0.08285  0.56829  0.35983  1.0000
  C   C2        1.0  0.01687  0.50687  0.25908  1.0000
  C   C3        1.0  0.02965  0.51072  0.17823  1.0000
  H   H2        1.0  0.02103  0.50252  0.11930  1.0000
  H   H3        1.0  0.04074  0.50615  0.19105  1.0000
  H   H4        1.0  0.03740  0.52667  0.16188  1.0000
  C   C4        1.0  0.09029  0.52925  0.33316  1.0000
  C   C5        1.0  0.07930  0.53929  0.34319  1.0000
  H   H5        1.0  0.08292  0.51401  0.32439  1.0000
  N   N1        1.0  0.05932  0.52822  0.33825  1.0000
  C   C6        1.0  0.02490  0.51714  0.34162  1.0000
  C   C7        1.0  0.01166  0.51333  0.41439  1.0000
  H   H6        1.0  0.01695  0.52064  0.47423  1.0000
  C   C8        1.0  0.04493  0.53182  0.35274  1.0000
  H   H7        1.0  0.04797  0.54526  0.37429  1.0000
  C   C9        1.0  0.11134  0.57095  0.35463  1.0000
  H   H8        1.0  0.11849  0.58620  0.36188  1.0000
  N   N2        1.0  0.15471  0.59229  0.34835  1.0000
  C   C10       1.0  0.12252  0.56098  0.34464  1.0000
  C   C11       1.0  0.11142  0.53984  0.33423  1.0000
  C   C12       1.0  0.14403  0.57179  0.34336  1.0000
  N   N3        1.0  0.15467  0.56199  0.33542  1.0000
  H   H9        1.0  0.11862  0.53180  0.32612  1.0000
  C   C13       1.0  0.18708  0.62430  0.35136  1.0000
  C   C14       1.0  0.17881  0.63706  0.34357  1.0000
  C   C15       1.0  0.19117  0.65816  0.34514  1.0000
  H   H10       1.0  0.16370  0.63111  0.33514  1.0000
  H   H11       1.0  0.18475  0.66695  0.33831  1.0000
  H   H12       1.0  0.18888  0.52121  0.38182  1.0000
  H   H13       1.0  0.16677  0.53479  0.38439  1.0000
  C   C16       1.0  0.18698  0.56257  0.32282  1.0000
  C   C17       1.0  0.20815  0.63360  0.36351  1.0000
  C   C18       1.0  0.20649  0.57343  0.28542  1.0000
  C   C19       1.0  0.19366  0.53508  0.35490  1.0000
  C   C20       1.0  0.18062  0.54304  0.35570  1.0000
  C   C21       1.0  0.17506  0.57189  0.33141  1.0000
  N   N4        1.0  0.18454  0.59213  0.33727  1.0000
  C   C22       1.0  0.17514  0.60292  0.34620  1.0000
  C   C23       1.0  0.21219  0.66717  0.35358  1.0000
  N   N5        1.0  0.22383  0.68713  0.35585  1.0000
  C   C24       1.0  0.38240  0.56409  0.35139  1.0000
  C   C25       1.0  0.44632  0.53112  0.35386  1.0000
  C   C26       1.0  0.43574  0.54169  0.35463  1.0000
  C   C27       1.0  0.36963  0.54306  0.34355  1.0000
  C   C28       1.0  0.34853  0.53432  0.34510  1.0000
  C   C29       1.0  0.33953  0.54634  0.35363  1.0000
  H   H14       1.0  0.43839  0.51585  0.35980  1.0000
  H   H15       1.0  0.42049  0.53359  0.36190  1.0000
  H   H16       1.0  0.37558  0.53390  0.33510  1.0000
  H   H17       1.0  0.33974  0.51911  0.33830  1.0000
  H   H18       1.0  0.48547  0.66897  0.38205  1.0000
  H   H19       1.0  0.47190  0.63328  0.38449  1.0000
  N   N6        1.0  0.41441  0.56373  0.34836  1.0000
  N   N7        1.0  0.31957  0.53803  0.35590  1.0000
  C   C30       1.0  0.44266  0.81965  0.35134  1.0000
  C   C31       1.0  0.47562  0.91655  0.35387  1.0000
  C   C32       1.0  0.46506  0.89540  0.35461  1.0000
  C   C33       1.0  0.46369  0.82792  0.34349  1.0000
  C   C34       1.0  0.47243  0.81556  0.34506  1.0000
  C   C35       1.0  0.46041  0.79453  0.35360  1.0000
  H   H20       1.0  0.49088  0.92389  0.35984  1.0000
  H   H21       1.0  0.47315  0.88825  0.36189  1.0000
  H   H22       1.0  0.47285  0.84303  0.33497  1.0000
  H   H23       1.0  0.48764  0.82197  0.33818  1.0000
  H   H24       1.0  0.33778  0.81777  0.38252  1.0000
  H   H25       1.0  0.37346  0.83992  0.38473  1.0000
  N   N8        1.0  0.44302  0.85202  0.34830  1.0000
  N   N9        1.0  0.46872  0.78289  0.35587  1.0000
  C   C36       1.0  0.79597  0.33816  0.34937  1.0000
  N   N10       1.0  0.78440  0.31820  0.35290  1.0000
  C   C37       1.0  0.62562  0.44122  0.34724  1.0000
  C   C38       1.0  0.56128  0.47384  0.33920  1.0000
  C   C39       1.0  0.57203  0.46344  0.33849  1.0000
  C   C40       1.0  0.63833  0.46231  0.34315  1.0000
  C   C41       1.0  0.65944  0.47112  0.34474  1.0000
  C   C42       1.0  0.66853  0.45911  0.34937  1.0000
  H   H26       1.0  0.56903  0.48909  0.33236  1.0000
  H   H27       1.0  0.58723  0.47159  0.32971  1.0000
  H   H28       1.0  0.63233  0.47151  0.33814  1.0000
  H   H29       1.0  0.66819  0.48639  0.34123  1.0000
  H   H30       1.0  0.52249  0.33626  0.38514  1.0000
  H   H31       1.0  0.53614  0.37197  0.38768  1.0000
  N   N11       1.0  0.59356  0.44153  0.34745  1.0000
  N   N12       1.0  0.68849  0.46750  0.35292  1.0000
  C   C43       1.0  0.56549  0.18575  0.34717  1.0000
  C   C44       1.0  0.53289  0.08879  0.33917  1.0000
  C   C45       1.0  0.54329  0.10994  0.33844  1.0000
  C   C46       1.0  0.54440  0.17737  0.34316  1.0000
  C   C47       1.0  0.53560  0.18967  0.34473  1.0000
  C   C48       1.0  0.54760  0.21076  0.34924  1.0000
  H   H32       1.0  0.51763  0.08127  0.33231  1.0000
  H   H33       1.0  0.53513  0.11698  0.32969  1.0000
  H   H34       1.0  0.53520  0.16217  0.33823  1.0000
  H   H35       1.0  0.52032  0.18315  0.34130  1.0000
  H   H36       1.0  0.67046  0.18756  0.38514  1.0000
  H   H37       1.0  0.63475  0.16550  0.38754  1.0000
  N   N13       1.0  0.56518  0.15337  0.34741  1.0000
  N   N14       1.0  0.53922  0.22234  0.35285  1.0000
  C   C49       1.0  0.51763  0.49506  0.32609  1.0000
  C   C50       1.0  0.51383  0.50445  0.25325  1.0000
  C   C51       1.0  0.49983  0.51130  0.25912  1.0000
  H   H38       1.0  0.52124  0.50610  0.19403  1.0000
  C   C52       1.0  0.49599  0.52023  0.17823  1.0000
  H   H39       1.0  0.50420  0.51982  0.11935  1.0000
  H   H40       1.0  0.50055  0.53589  0.19106  1.0000
  H   H41       1.0  0.48004  0.51202  0.16183  1.0000
  C   C53       1.0  0.53172  0.48884  0.31753  1.0000
  H   H42       1.0  0.54372  0.49698  0.27952  1.0000
  C   C54       1.0  0.51168  0.02392  0.32605  1.0000
  C   C55       1.0  0.50227  0.01071  0.25324  1.0000
  C   C56       1.0  0.49542  0.98987  0.25913  1.0000
  H   H43       1.0  0.50062  0.01648  0.19402  1.0000
  C   C57       1.0  0.48648  0.97709  0.17827  1.0000
  H   H44       1.0  0.48689  0.98571  0.11937  1.0000
  H   H45       1.0  0.47082  0.96599  0.19112  1.0000
  H   H46       1.0  0.49470  0.96935  0.16185  1.0000
  C   C58       1.0  0.51790  0.04422  0.31747  1.0000
  H   H47       1.0  0.50975  0.04809  0.27948  1.0000
  C   C59       1.0  0.28833  0.53637  0.33090  1.0000
  C   C60       1.0  0.27693  0.53497  0.25396  1.0000
  C   C61       1.0  0.25703  0.53084  0.26125  1.0000
  H   H48       1.0  0.28336  0.53802  0.19155  1.0000
  H   H49       1.0  0.24964  0.53093  0.20431  1.0000
  C   C62       1.0  0.30892  0.54473  0.31912  1.0000
  H   H50       1.0  0.31580  0.55722  0.28255  1.0000
  C   C63       1.0  0.47038  0.75330  0.33093  1.0000
  C   C64       1.0  0.47173  0.74326  0.25402  1.0000
  C   C65       1.0  0.47587  0.72750  0.26133  1.0000
  H   H51       1.0  0.46866  0.74662  0.19161  1.0000
  H   H52       1.0  0.47572  0.71998  0.20444  1.0000
  C   C66       1.0  0.46202  0.76553  0.31913  1.0000
  H   H53       1.0  0.44952  0.75991  0.28260  1.0000
  C   C67       1.0  0.25342  0.71837  0.33091  1.0000
  C   C68       1.0  0.26350  0.72977  0.25407  1.0000
  C   C69       1.0  0.27928  0.74966  0.26149  1.0000
  H   H54       1.0  0.26016  0.72334  0.19165  1.0000
  H   H55       1.0  0.28682  0.75703  0.20463  1.0000
  C   C70       1.0  0.24118  0.69779  0.31904  1.0000
  H   H56       1.0  0.24680  0.69091  0.28250  1.0000
  C   C71       1.0  0.71994  0.46952  0.32895  1.0000
  C   C72       1.0  0.73166  0.47113  0.25285  1.0000
  C   C73       1.0  0.75149  0.47513  0.26160  1.0000
  H   H57       1.0  0.72548  0.46825  0.18993  1.0000
  H   H58       1.0  0.75908  0.47517  0.20516  1.0000
  C   C74       1.0  0.69940  0.46119  0.31541  1.0000
  H   H59       1.0  0.69274  0.44895  0.27713  1.0000
  C   C75       1.0  0.53721  0.25178  0.32883  1.0000
  C   C76       1.0  0.53552  0.26182  0.25269  1.0000
  C   C77       1.0  0.53146  0.27762  0.26136  1.0000
  H   H60       1.0  0.53830  0.25845  0.18974  1.0000
  H   H61       1.0  0.53136  0.28512  0.20486  1.0000
  C   C78       1.0  0.54552  0.23956  0.31526  1.0000
  H   H62       1.0  0.55774  0.24512  0.27685  1.0000
  C   C79       1.0  0.75496  0.28676  0.32894  1.0000
  C   C80       1.0  0.74489  0.27503  0.25280  1.0000
  C   C81       1.0  0.72910  0.25518  0.26145  1.0000
  H   H63       1.0  0.74823  0.28121  0.18988  1.0000
  H   H64       1.0  0.72155  0.24759  0.20498  1.0000
  C   C82       1.0  0.76716  0.30729  0.31546  1.0000
  H   H65       1.0  0.76158  0.31396  0.27724  1.0000
  C   C83       1.0  0.22041  0.65453  0.36536  1.0000
  C   C84       1.0  0.21935  0.56543  0.28337  1.0000
  C   C85       1.0  0.21327  0.54634  0.31950  1.0000
  H   H66       1.0  0.21502  0.62526  0.37162  1.0000
  H   H67       1.0  0.23548  0.66048  0.37527  1.0000
  H   H68       1.0  0.21178  0.58754  0.25998  1.0000
  H   H69       1.0  0.23349  0.57399  0.25759  1.0000
  N   N15       1.0  0.22714  0.54090  0.31981  1.0000
  C   C86       1.0  0.44571  0.56284  0.34465  1.0000
  C   C87       1.0  0.44412  0.62571  0.32284  1.0000
  C   C88       1.0  0.46686  0.57289  0.33421  1.0000
  C   C89       1.0  0.47744  0.56233  0.33310  1.0000
  C   C90       1.0  0.46740  0.54131  0.34311  1.0000
  C   C91       1.0  0.35218  0.56720  0.36545  1.0000
  C   C92       1.0  0.37310  0.57586  0.36359  1.0000
  C   C93       1.0  0.43327  0.63436  0.28540  1.0000
  C   C94       1.0  0.44127  0.65522  0.28339  1.0000
  C   C95       1.0  0.46035  0.66824  0.31961  1.0000
  C   C96       1.0  0.47161  0.65988  0.35501  1.0000
  C   C97       1.0  0.46365  0.63889  0.35577  1.0000
  H   H70       1.0  0.49267  0.57020  0.32432  1.0000
  H   H71       1.0  0.38145  0.59108  0.37174  1.0000
  H   H72       1.0  0.34623  0.57633  0.37541  1.0000
  H   H73       1.0  0.41916  0.62554  0.25993  1.0000
  H   H74       1.0  0.43270  0.66079  0.25765  1.0000
  C   C98       1.0  0.43481  0.60447  0.33142  1.0000
  N   N16       1.0  0.41457  0.59372  0.33729  1.0000
  C   C99       1.0  0.40377  0.57352  0.34622  1.0000
  C   C100      1.0  0.43491  0.57354  0.34337  1.0000
  N   N17       1.0  0.44471  0.59399  0.33543  1.0000
  H   H75       1.0  0.47489  0.58811  0.32610  1.0000
  N   N18       1.0  0.46576  0.68753  0.32009  1.0000
  N   N19       1.0  0.47846  0.53239  0.33817  1.0000
  C   C101      1.0  0.44391  0.88422  0.34461  1.0000
  C   C102      1.0  0.38104  0.81976  0.32274  1.0000
  C   C103      1.0  0.43385  0.89531  0.33418  1.0000
  C   C104      1.0  0.44440  0.91645  0.33310  1.0000
  C   C105      1.0  0.46543  0.92743  0.34313  1.0000
  C   C106      1.0  0.43955  0.78632  0.36547  1.0000
  C   C107      1.0  0.43089  0.79859  0.36359  1.0000
  C   C108      1.0  0.37239  0.80025  0.28524  1.0000
  C   C109      1.0  0.35154  0.78738  0.28337  1.0000
  C   C110      1.0  0.33852  0.79341  0.31985  1.0000
  C   C111      1.0  0.34687  0.81302  0.35526  1.0000
  C   C112      1.0  0.36786  0.82609  0.35581  1.0000
  H   H76       1.0  0.43654  0.92382  0.32432  1.0000
  H   H77       1.0  0.41568  0.79172  0.37177  1.0000
  H   H78       1.0  0.43043  0.77125  0.37546  1.0000
  H   H79       1.0  0.38122  0.79498  0.25966  1.0000
  H   H80       1.0  0.34597  0.77323  0.25763  1.0000
  C   C113      1.0  0.40228  0.83168  0.33133  1.0000
  N   N20       1.0  0.41303  0.82220  0.33720  1.0000
  C   C114      1.0  0.43323  0.83159  0.34614  1.0000
  C   C115      1.0  0.43320  0.86271  0.34331  1.0000
  N   N21       1.0  0.41276  0.85207  0.33536  1.0000
  H   H81       1.0  0.41863  0.88812  0.32605  1.0000
  N   N22       1.0  0.31924  0.77950  0.32055  1.0000
  N   N23       1.0  0.47434  0.94742  0.33825  1.0000
  C   C116      1.0  0.78761  0.35076  0.35707  1.0000
  C   C117      1.0  0.79982  0.37169  0.35524  1.0000
  C   C118      1.0  0.80158  0.43211  0.28712  1.0000
  C   C119      1.0  0.78874  0.44013  0.28527  1.0000
  C   C120      1.0  0.79478  0.45915  0.32215  1.0000
  H   H82       1.0  0.79282  0.37997  0.36065  1.0000
  H   H83       1.0  0.77246  0.34478  0.36447  1.0000
  H   H84       1.0  0.79631  0.41806  0.26097  1.0000
  H   H85       1.0  0.77464  0.43163  0.25904  1.0000
  N   N24       1.0  0.78094  0.46461  0.32233  1.0000
  C   C121      1.0  0.56219  0.44229  0.34811  1.0000
  C   C122      1.0  0.56380  0.37947  0.32498  1.0000
  C   C123      1.0  0.54107  0.43209  0.35988  1.0000
  C   C124      1.0  0.53034  0.44250  0.36160  1.0000
  C   C125      1.0  0.54021  0.46348  0.35000  1.0000
  C   C126      1.0  0.65593  0.43814  0.35691  1.0000
  C   C127      1.0  0.63500  0.42942  0.35507  1.0000
  C   C128      1.0  0.57455  0.37076  0.28698  1.0000
  C   C129      1.0  0.56651  0.34990  0.28491  1.0000
  C   C130      1.0  0.54748  0.33693  0.32173  1.0000
  C   C131      1.0  0.53633  0.34533  0.35782  1.0000
  C   C132      1.0  0.54431  0.36633  0.35851  1.0000
  H   H86       1.0  0.51511  0.43454  0.37028  1.0000
  H   H87       1.0  0.62672  0.41414  0.36036  1.0000
  H   H88       1.0  0.66191  0.42897  0.36419  1.0000
  H   H89       1.0  0.58861  0.37955  0.26086  1.0000
  H   H90       1.0  0.57499  0.34429  0.25856  1.0000
  C   C133      1.0  0.57312  0.40073  0.33288  1.0000
  N   N25       1.0  0.59338  0.41154  0.33617  1.0000
  C   C134      1.0  0.60422  0.43177  0.34382  1.0000
  C   C135      1.0  0.57304  0.43165  0.34516  1.0000
  N   N26       1.0  0.56320  0.41119  0.33842  1.0000
  H   H91       1.0  0.53317  0.41686  0.36796  1.0000
  N   N27       1.0  0.54197  0.31761  0.32152  1.0000
  N   N28       1.0  0.52906  0.47234  0.35201  1.0000
  C   C136      1.0  0.56443  0.12124  0.34810  1.0000
  C   C137      1.0  0.62725  0.18568  0.32511  1.0000
  C   C138      1.0  0.57463  0.11033  0.35989  1.0000
  C   C139      1.0  0.56423  0.08919  0.36162  1.0000
  C   C140      1.0  0.54325  0.07807  0.34998  1.0000
  C   C141      1.0  0.56858  0.21914  0.35672  1.0000
  C   C142      1.0  0.57730  0.20692  0.35489  1.0000
  C   C143      1.0  0.63595  0.20516  0.28724  1.0000
  C   C144      1.0  0.65682  0.21798  0.28526  1.0000
  C   C145      1.0  0.66979  0.21191  0.32197  1.0000
  C   C146      1.0  0.66139  0.19234  0.35790  1.0000
  C   C147      1.0  0.64039  0.17934  0.35863  1.0000
  H   H92       1.0  0.57219  0.08193  0.37026  1.0000
  H   H93       1.0  0.59258  0.21393  0.36016  1.0000
  H   H94       1.0  0.57775  0.23429  0.36396  1.0000
  H   H95       1.0  0.62718  0.21043  0.26117  1.0000
  H   H96       1.0  0.66243  0.23208  0.25901  1.0000
  C   C148      1.0  0.60599  0.17374  0.33292  1.0000
  N   N29       1.0  0.59517  0.18318  0.33618  1.0000
  C   C149      1.0  0.57495  0.17380  0.34378  1.0000
  C   C150      1.0  0.57507  0.14273  0.34516  1.0000
  N   N30       1.0  0.59553  0.15337  0.33847  1.0000
  H   H97       1.0  0.58986  0.11766  0.36797  1.0000
  N   N31       1.0  0.68911  0.22572  0.32187  1.0000
  N   N32       1.0  0.53439  0.05807  0.35197  1.0000
  C   C151      1.0  0.48953  0.50904  0.34160  1.0000
  C   C152      1.0  0.49335  0.49962  0.41441  1.0000
  C   C153      1.0  0.50718  0.49280  0.40697  1.0000
  H   H98       1.0  0.48603  0.49760  0.47424  1.0000
  H   H99       1.0  0.50962  0.48625  0.46157  1.0000
  C   C154      1.0  0.47486  0.51440  0.35268  1.0000
  H   H100      1.0  0.46142  0.50400  0.37425  1.0000
  C   C155      1.0  0.49769  0.98184  0.34161  1.0000
  C   C156      1.0  0.50712  0.99508  0.41440  1.0000
  C   C157      1.0  0.51394  0.01572  0.40693  1.0000
  H   H101      1.0  0.50914  0.98978  0.47422  1.0000
  H   H102      1.0  0.52050  0.02472  0.46151  1.0000
  C   C158      1.0  0.49233  0.96180  0.35272  1.0000
  H   H103      1.0  0.50275  0.95877  0.37409  1.0000
  C   C159      1.0  0.24784  0.52800  0.34599  1.0000
  C   C160      1.0  0.25883  0.52849  0.42275  1.0000
  C   C161      1.0  0.27903  0.53286  0.41691  1.0000
  H   H104      1.0  0.25239  0.52686  0.48457  1.0000
  C   C162      1.0  0.29020  0.53479  0.50131  1.0000
  H   H105      1.0  0.28112  0.53230  0.56130  1.0000
  H   H106      1.0  0.30327  0.54981  0.50609  1.0000
  H   H107      1.0  0.29516  0.52377  0.50175  1.0000
  C   C163      1.0  0.22938  0.52692  0.35502  1.0000
  H   H108      1.0  0.21924  0.51720  0.39750  1.0000
  C   C164      1.0  0.47870  0.72115  0.34610  1.0000
  C   C165      1.0  0.47826  0.73169  0.42282  1.0000
  C   C166      1.0  0.47391  0.74753  0.41693  1.0000
  H   H109      1.0  0.47990  0.72689  0.48465  1.0000
  C   C167      1.0  0.47202  0.75681  0.50131  1.0000
  H   H110      1.0  0.47454  0.75024  0.56131  1.0000
  H   H111      1.0  0.45701  0.75488  0.50620  1.0000
  H   H112      1.0  0.48306  0.77279  0.50160  1.0000
  C   C168      1.0  0.47975  0.70376  0.35516  1.0000
  H   H113      1.0  0.48957  0.70339  0.39715  1.0000
  C   C169      1.0  0.28558  0.75884  0.34628  1.0000
  C   C170      1.0  0.27502  0.74785  0.42293  1.0000
  C   C171      1.0  0.25916  0.72767  0.41695  1.0000
  H   H114      1.0  0.27977  0.75429  0.48479  1.0000
  C   C172      1.0  0.24983  0.71650  0.50127  1.0000
  H   H115      1.0  0.25639  0.72558  0.56131  1.0000
  H   H116      1.0  0.25174  0.70341  0.50623  1.0000
  H   H117      1.0  0.23386  0.71158  0.50142  1.0000
  C   C173      1.0  0.30299  0.77725  0.35550  1.0000
  H   H118      1.0  0.30333  0.78754  0.39681  1.0000
  C   C174      1.0  0.76032  0.47768  0.34701  1.0000
  C   C175      1.0  0.74904  0.47700  0.42299  1.0000
  C   C176      1.0  0.72890  0.47273  0.41565  1.0000
  H   H119      1.0  0.75523  0.47844  0.48528  1.0000
  C   C177      1.0  0.71741  0.47058  0.49929  1.0000
  H   H120      1.0  0.72625  0.47287  0.55992  1.0000
  H   H121      1.0  0.70430  0.45556  0.50283  1.0000
  H   H122      1.0  0.71249  0.48164  0.49972  1.0000
  C   C178      1.0  0.77867  0.47859  0.35730  1.0000
  H   H123      1.0  0.78886  0.48845  0.39917  1.0000
  C   C179      1.0  0.52902  0.28398  0.34677  1.0000
  C   C180      1.0  0.52980  0.27346  0.42283  1.0000
  C   C181      1.0  0.53408  0.25759  0.41555  1.0000
  H   H124      1.0  0.52842  0.27826  0.48511  1.0000
  C   C182      1.0  0.53632  0.24832  0.49920  1.0000
  H   H125      1.0  0.53409  0.25491  0.55983  1.0000
  H   H126      1.0  0.55134  0.25023  0.50248  1.0000
  H   H127      1.0  0.52527  0.23234  0.49993  1.0000
  C   C183      1.0  0.52804  0.30139  0.35691  1.0000
  H   H128      1.0  0.51843  0.30180  0.40013  1.0000
  C   C184      1.0  0.72277  0.24635  0.34685  1.0000
  C   C185      1.0  0.73333  0.25764  0.42289  1.0000
  C   C186      1.0  0.74918  0.27780  0.41563  1.0000
  H   H129      1.0  0.72852  0.25146  0.48518  1.0000
  C   C187      1.0  0.75846  0.28930  0.49930  1.0000
  H   H130      1.0  0.75189  0.28045  0.55991  1.0000
  H   H131      1.0  0.75653  0.30239  0.50271  1.0000
  H   H132      1.0  0.77444  0.29424  0.49991  1.0000
  C   C188      1.0  0.70534  0.22799  0.35705  1.0000
  H   H133      1.0  0.70496  0.21790  0.39970  1.0000
  C   C189      1.0  0.82099  0.38106  0.34725  1.0000
  C   C190      1.0  0.91795  0.44542  0.33907  1.0000
  C   C191      1.0  0.89680  0.43467  0.33838  1.0000
  C   C192      1.0  0.82937  0.36835  0.34302  1.0000
  C   C193      1.0  0.81706  0.34724  0.34459  1.0000
  H   H134      1.0  0.92546  0.43768  0.33224  1.0000
  H   H135      1.0  0.88975  0.41946  0.32961  1.0000
  H   H136      1.0  0.84456  0.37435  0.33788  1.0000
  H   H137      1.0  0.82358  0.33850  0.34097  1.0000
  H   H138      1.0  0.81911  0.48414  0.38557  1.0000
  H   H139      1.0  0.84120  0.47053  0.38774  1.0000
  N   N33       1.0  0.85336  0.41313  0.34739  1.0000
  C   C194      1.0  0.98281  0.48907  0.32596  1.0000
  C   C195      1.0  0.99602  0.49288  0.25316  1.0000
  H   H140      1.0  0.99025  0.48548  0.19391  1.0000
  C   C196      1.0  0.96251  0.47500  0.31734  1.0000
  H   H141      1.0  0.95864  0.46300  0.27928  1.0000
  C   C197      1.0  0.88549  0.44451  0.34802  1.0000
  C   C198      1.0  0.82105  0.44288  0.32503  1.0000
  C   C199      1.0  0.89641  0.46562  0.35979  1.0000
  C   C200      1.0  0.91754  0.47636  0.36152  1.0000
  C   C201      1.0  0.92866  0.46650  0.34986  1.0000
  C   C202      1.0  0.81435  0.47032  0.35807  1.0000
  C   C203      1.0  0.82738  0.46235  0.35866  1.0000
  H   H142      1.0  0.92481  0.49158  0.37020  1.0000
  C   C204      1.0  0.83300  0.43356  0.33284  1.0000
  N   N34       1.0  0.82356  0.41330  0.33617  1.0000
  C   C205      1.0  0.83294  0.40247  0.34380  1.0000
  C   C206      1.0  0.86400  0.43365  0.34509  1.0000
  N   N35       1.0  0.85337  0.44348  0.33837  1.0000
  H   H143      1.0  0.88907  0.47352  0.36790  1.0000
  N   N36       1.0  0.94867  0.47764  0.35189  1.0000
  C   C207      1.0  0.99101  0.49951  0.40687  1.0000
  H   H144      1.0  0.98201  0.49707  0.46146  1.0000
