data_image0
_chemical_formula_structural       C4HNO2CHC3HNO2C3HNO2CHCHC2NO2CHNCNCN4CNCNCN4C3HNO2C3HNO2CHC3HNO2CHC2NO2CHCHC3HC3HNO2CHC3HNO2CHC3HNO2C4HNO2CHC3HNO2CHNCNCN5CNCN3CNCNCN3CNCNCN4CHC3HNO2CHC3HNO2C4HNO2CHC3HNO2CHC3HNO2CHC4HNO2CH2C3HNO2CHC3HNO2CHC3HNO2CHC3HNO2CHNCNCN5CNCN4CNCN3CNCNCN4C3HNO2CH2C3HNO2CHC3HNO2CHC3HNO2CHC3HNO2CHC5HNO2CHC3HNO2CHC3HNO2CHC2NO2CHCHNCNCN6CN2CNCNCN4C3HNO2CHC3HNO2CHC3HNO2CHCHC2NO2CH
_chemical_formula_sum              "C180 H72 N108 O72"
_cell_length_a       60.3155
_cell_length_b       60.3156
_cell_length_c       14.6662
_cell_angle_alpha    90
_cell_angle_beta     90
_cell_angle_gamma    120

_space_group_name_H-M_alt    "P 1"
_space_group_IT_number       1

loop_
  _space_group_symop_operation_xyz
  'x, y, z'

loop_
  _atom_site_type_symbol
  _atom_site_label
  _atom_site_symmetry_multiplicity
  _atom_site_fract_x
  _atom_site_fract_y
  _atom_site_fract_z
  _atom_site_occupancy
  C   C1        1.0  0.16196  0.47115  0.35507  1.0000
  C   C2        1.0  0.22359  0.47220  0.34739  1.0000
  C   C3        1.0  0.23739  0.47228  0.26863  1.0000
  C   C4        1.0  0.26072  0.47194  0.27773  1.0000
  H   H1        1.0  0.27098  0.47355  0.21995  1.0000
  N   N1        1.0  0.22822  0.47409  0.18154  1.0000
  O   O1        1.0  0.22373  0.45526  0.13224  1.0000
  O   O2        1.0  0.24388  0.49428  0.14086  1.0000
  C   C5        1.0  0.20483  0.47940  0.34173  1.0000
  H   H2        1.0  0.21123  0.49750  0.32366  1.0000
  C   C6        1.0  0.27152  0.82214  0.34741  1.0000
  C   C7        1.0  0.25772  0.80843  0.26866  1.0000
  C   C8        1.0  0.23404  0.78512  0.27781  1.0000
  H   H3        1.0  0.22529  0.77492  0.22002  1.0000
  N   N2        1.0  0.26865  0.81765  0.18156  1.0000
  O   O3        1.0  0.25431  0.82222  0.13262  1.0000
  O   O4        1.0  0.27310  0.80199  0.14051  1.0000
  C   C9        1.0  0.14968  0.60975  0.34029  1.0000
  C   C10       1.0  0.15004  0.59493  0.26564  1.0000
  C   C11       1.0  0.15035  0.57194  0.28228  1.0000
  H   H4        1.0  0.14907  0.56075  0.22766  1.0000
  N   N3        1.0  0.14901  0.60282  0.17540  1.0000
  O   O5        1.0  0.16830  0.60670  0.13001  1.0000
  O   O6        1.0  0.12923  0.58656  0.13425  1.0000
  C   C12       1.0  0.14356  0.62892  0.32733  1.0000
  H   H5        1.0  0.12813  0.62443  0.28960  1.0000
  C   C13       1.0  0.03833  0.40280  0.27780  1.0000
  H   H6        1.0  0.04944  0.40803  0.22021  1.0000
  C   C14       1.0  0.05031  0.66483  0.34650  1.0000
  C   C15       1.0  0.03435  0.65649  0.26801  1.0000
  N   N4        1.0  0.04586  0.66188  0.18053  1.0000
  O   O7        1.0  0.03993  0.64164  0.13750  1.0000
  O   O8        1.0  0.03945  0.67523  0.13380  1.0000
  C   C16       1.0  0.07694  0.68047  0.33986  1.0000
  H   H7        1.0  0.08402  0.69799  0.31441  1.0000
  N   N5        1.0  0.13652  0.45268  0.35648  1.0000
  C   C17       1.0  0.11753  0.45888  0.35388  1.0000
  N   N6        1.0  0.12460  0.48401  0.35072  1.0000
  C   C18       1.0  0.14948  0.50296  0.35103  1.0000
  N   N7        1.0  0.16781  0.49616  0.35210  1.0000
  N   N8        1.0  0.18059  0.46494  0.35787  1.0000
  N   N9        1.0  0.15568  0.52747  0.34675  1.0000
  N   N10       1.0  0.09221  0.44312  0.35201  1.0000
  C   C19       1.0  0.16197  0.71379  0.35641  1.0000
  N   N11       1.0  0.13653  0.70683  0.35503  1.0000
  C   C20       1.0  0.11753  0.68163  0.35781  1.0000
  N   N12       1.0  0.12459  0.66358  0.36114  1.0000
  C   C21       1.0  0.14947  0.66950  0.36079  1.0000
  N   N13       1.0  0.16781  0.69463  0.35953  1.0000
  N   N14       1.0  0.18061  0.73863  0.35351  1.0000
  N   N15       1.0  0.15567  0.65119  0.36512  1.0000
  N   N16       1.0  0.09222  0.67210  0.35982  1.0000
  C   C22       1.0  0.27141  0.47221  0.36389  1.0000
  C   C23       1.0  0.25762  0.47212  0.44264  1.0000
  C   C24       1.0  0.23396  0.47178  0.43352  1.0000
  H   H8        1.0  0.22523  0.47326  0.49130  1.0000
  N   N17       1.0  0.26855  0.47380  0.52973  1.0000
  O   O9        1.0  0.25419  0.45489  0.57865  1.0000
  O   O10       1.0  0.27303  0.49391  0.57084  1.0000
  C   C25       1.0  0.22363  0.77438  0.36393  1.0000
  C   C26       1.0  0.23742  0.78812  0.44267  1.0000
  C   C27       1.0  0.26077  0.81176  0.43356  1.0000
  H   H9        1.0  0.27104  0.82041  0.49134  1.0000
  N   N18       1.0  0.22821  0.77718  0.52978  1.0000
  O   O11       1.0  0.22371  0.79155  0.57888  1.0000
  O   O12       1.0  0.24382  0.77263  0.57067  1.0000
  C   C28       1.0  0.20485  0.74842  0.36965  1.0000
  H   H10       1.0  0.21124  0.73671  0.38783  1.0000
  C   C29       1.0  0.14970  0.56292  0.37179  1.0000
  C   C30       1.0  0.15007  0.57809  0.44644  1.0000
  C   C31       1.0  0.15032  0.60137  0.42977  1.0000
  H   H11       1.0  0.14912  0.61133  0.48439  1.0000
  N   N19       1.0  0.14908  0.56919  0.53667  1.0000
  O   O13       1.0  0.16836  0.58462  0.58200  1.0000
  O   O14       1.0  0.12929  0.56564  0.57789  1.0000
  C   C32       1.0  0.14358  0.53762  0.38463  1.0000
  H   H12       1.0  0.12818  0.52670  0.42245  1.0000
  C   C33       1.0  0.05031  0.40843  0.36432  1.0000
  C   C34       1.0  0.03438  0.40090  0.44286  1.0000
  N   N20       1.0  0.04592  0.40708  0.53028  1.0000
  O   O15       1.0  0.04001  0.42143  0.57314  1.0000
  O   O16       1.0  0.03952  0.38736  0.57723  1.0000
  C   C35       1.0  0.07694  0.41940  0.37082  1.0000
  H   H13       1.0  0.08402  0.40879  0.39470  1.0000
  C   C36       1.0  0.03835  0.65841  0.43306  1.0000
  H   H14       1.0  0.04947  0.66425  0.49061  1.0000
  C   C37       1.0  0.33220  0.88373  0.35495  1.0000
  C   C38       1.0  0.47112  0.33199  0.35510  1.0000
  C   C39       1.0  0.29751  0.84085  0.34187  1.0000
  H   H15       1.0  0.30919  0.83440  0.32405  1.0000
  C   C40       1.0  0.47221  0.27141  0.34712  1.0000
  C   C41       1.0  0.47228  0.25766  0.26843  1.0000
  C   C42       1.0  0.47197  0.23401  0.27777  1.0000
  H   H16       1.0  0.47358  0.22533  0.22007  1.0000
  N   N21       1.0  0.47407  0.26859  0.18127  1.0000
  O   O17       1.0  0.45522  0.25422  0.13207  1.0000
  O   O18       1.0  0.49424  0.27310  0.14055  1.0000
  C   C43       1.0  0.47934  0.29736  0.34124  1.0000
  H   H17       1.0  0.49739  0.30906  0.32246  1.0000
  C   C44       1.0  0.43602  0.56294  0.34020  1.0000
  C   C45       1.0  0.45081  0.57813  0.26552  1.0000
  C   C46       1.0  0.47380  0.60145  0.28211  1.0000
  H   H18       1.0  0.48498  0.61137  0.22747  1.0000
  N   N22       1.0  0.44291  0.56921  0.17530  1.0000
  O   O19       1.0  0.43900  0.58460  0.12994  1.0000
  O   O20       1.0  0.45917  0.56570  0.13409  1.0000
  C   C47       1.0  0.41686  0.53765  0.32727  1.0000
  H   H19       1.0  0.42137  0.52673  0.28954  1.0000
  C   C48       1.0  0.48348  0.89667  0.34056  1.0000
  C   C49       1.0  0.46823  0.89610  0.26584  1.0000
  C   C50       1.0  0.44482  0.89562  0.28234  1.0000
  H   H20       1.0  0.43483  0.89672  0.22766  1.0000
  N   N23       1.0  0.47715  0.89707  0.17566  1.0000
  O   O21       1.0  0.46184  0.87764  0.13067  1.0000
  O   O22       1.0  0.48046  0.91671  0.13400  1.0000
  C   C51       1.0  0.50882  0.90292  0.32783  1.0000
  C   C52       1.0  0.40851  0.05038  0.34665  1.0000
  C   C53       1.0  0.40091  0.03447  0.26807  1.0000
  C   C54       1.0  0.38738  0.00737  0.27789  1.0000
  H   H21       1.0  0.38153  0.99627  0.22026  1.0000
  N   N24       1.0  0.40702  0.04601  0.18066  1.0000
  O   O23       1.0  0.42133  0.04010  0.13751  1.0000
  O   O24       1.0  0.38726  0.03963  0.13398  1.0000
  C   C55       1.0  0.41951  0.07702  0.34023  1.0000
  H   H22       1.0  0.40901  0.08412  0.31554  1.0000
  C   C56       1.0  0.38092  0.40845  0.34662  1.0000
  C   C57       1.0  0.38923  0.40083  0.26807  1.0000
  C   C58       1.0  0.40277  0.38728  0.27793  1.0000
  H   H23       1.0  0.40799  0.38139  0.22033  1.0000
  N   N25       1.0  0.38382  0.40696  0.18063  1.0000
  O   O25       1.0  0.40406  0.42126  0.13756  1.0000
  O   O26       1.0  0.37045  0.38722  0.13389  1.0000
  C   C59       1.0  0.36529  0.41946  0.34010  1.0000
  H   H24       1.0  0.34773  0.40899  0.31503  1.0000
  N   N26       1.0  0.33915  0.90916  0.35633  1.0000
  C   C60       1.0  0.36434  0.92817  0.35372  1.0000
  N   N27       1.0  0.38240  0.92112  0.35054  1.0000
  C   C61       1.0  0.37651  0.89624  0.35087  1.0000
  N   N28       1.0  0.35137  0.87789  0.35197  1.0000
  N   N29       1.0  0.30734  0.86511  0.35772  1.0000
  N   N30       1.0  0.39486  0.89009  0.34659  1.0000
  N   N31       1.0  0.37385  0.95348  0.35173  1.0000
  N   N32       1.0  0.45264  0.33895  0.35654  1.0000
  C   C62       1.0  0.45884  0.36414  0.35381  1.0000
  N   N33       1.0  0.48396  0.38220  0.35063  1.0000
  C   C63       1.0  0.50292  0.37628  0.35093  1.0000
  N   N34       1.0  0.49612  0.35115  0.35208  1.0000
  N   N35       1.0  0.46493  0.30715  0.35802  1.0000
  N   N36       1.0  0.44307  0.37369  0.35202  1.0000
  C   C64       1.0  0.47129  0.16203  0.35643  1.0000
  N   N37       1.0  0.45281  0.13660  0.35497  1.0000
  C   C65       1.0  0.45900  0.11759  0.35771  1.0000
  N   N38       1.0  0.48412  0.12465  0.36106  1.0000
  C   C66       1.0  0.50309  0.14953  0.36082  1.0000
  N   N39       1.0  0.49630  0.16787  0.35960  1.0000
  N   N40       1.0  0.46507  0.18066  0.35352  1.0000
  N   N41       1.0  0.44320  0.09227  0.35958  1.0000
  C   C67       1.0  0.33201  0.47118  0.35652  1.0000
  N   N42       1.0  0.33898  0.45271  0.35513  1.0000
  C   C68       1.0  0.36417  0.45891  0.35782  1.0000
  N   N43       1.0  0.38223  0.48403  0.36109  1.0000
  C   C69       1.0  0.37630  0.50298  0.36077  1.0000
  N   N44       1.0  0.35117  0.49618  0.35958  1.0000
  N   N45       1.0  0.30717  0.46496  0.35371  1.0000
  N   N46       1.0  0.39460  0.52749  0.36507  1.0000
  N   N47       1.0  0.37371  0.44313  0.35978  1.0000
  C   C70       1.0  0.29738  0.47943  0.36944  1.0000
  H   H25       1.0  0.30909  0.49757  0.38716  1.0000
  C   C71       1.0  0.47224  0.22363  0.36402  1.0000
  C   C72       1.0  0.47210  0.23736  0.44266  1.0000
  C   C73       1.0  0.47174  0.26067  0.43336  1.0000
  H   H26       1.0  0.47319  0.27090  0.49106  1.0000
  N   N48       1.0  0.47374  0.22814  0.52985  1.0000
  O   O27       1.0  0.45479  0.22358  0.57858  1.0000
  O   O28       1.0  0.49382  0.24379  0.57107  1.0000
  C   C74       1.0  0.47947  0.20489  0.36981  1.0000
  H   H27       1.0  0.49756  0.21131  0.38817  1.0000
  C   C75       1.0  0.48285  0.60980  0.37159  1.0000
  C   C76       1.0  0.46769  0.59500  0.44630  1.0000
  C   C77       1.0  0.44439  0.57199  0.42968  1.0000
  H   H28       1.0  0.43449  0.56080  0.48430  1.0000
  N   N49       1.0  0.47662  0.60290  0.53652  1.0000
  O   O29       1.0  0.46121  0.60677  0.58192  1.0000
  O   O30       1.0  0.48016  0.58665  0.57767  1.0000
  C   C78       1.0  0.50813  0.62900  0.38450  1.0000
  C   C79       1.0  0.43638  0.89623  0.37176  1.0000
  C   C80       1.0  0.45126  0.89602  0.44649  1.0000
  C   C81       1.0  0.47440  0.89597  0.43000  1.0000
  H   H29       1.0  0.48559  0.89731  0.48469  1.0000
  N   N50       1.0  0.44326  0.89691  0.53668  1.0000
  O   O31       1.0  0.43954  0.87766  0.58197  1.0000
  O   O32       1.0  0.45937  0.91674  0.57801  1.0000
  C   C82       1.0  0.41710  0.90221  0.38460  1.0000
  H   H30       1.0  0.42152  0.91760  0.42244  1.0000
  C   C83       1.0  0.38101  0.99537  0.36436  1.0000
  C   C84       1.0  0.38935  0.01128  0.44294  1.0000
  C   C85       1.0  0.40292  0.03838  0.43313  1.0000
  H   H31       1.0  0.40816  0.04947  0.49075  1.0000
  N   N51       1.0  0.38394  0.99974  0.53034  1.0000
  O   O33       1.0  0.40417  0.00566  0.57342  1.0000
  O   O34       1.0  0.37057  0.00612  0.57710  1.0000
  C   C86       1.0  0.36538  0.96873  0.37080  1.0000
  H   H32       1.0  0.34776  0.96163  0.39533  1.0000
  C   C87       1.0  0.40839  0.38092  0.36444  1.0000
  C   C88       1.0  0.40088  0.38933  0.44299  1.0000
  C   C89       1.0  0.38735  0.40290  0.43313  1.0000
  H   H33       1.0  0.38154  0.40819  0.49072  1.0000
  N   N52       1.0  0.40706  0.38398  0.53040  1.0000
  O   O35       1.0  0.42143  0.40425  0.57324  1.0000
  O   O36       1.0  0.38735  0.37067  0.57738  1.0000
  C   C90       1.0  0.41935  0.36526  0.37094  1.0000
  H   H34       1.0  0.40875  0.34758  0.39488  1.0000
  C   C91       1.0  0.57456  0.71384  0.35498  1.0000
  C   C92       1.0  0.57348  0.77440  0.34715  1.0000
  C   C93       1.0  0.57356  0.78823  0.26851  1.0000
  C   C94       1.0  0.57391  0.81189  0.27792  1.0000
  H   H35       1.0  0.57246  0.82069  0.22026  1.0000
  N   N53       1.0  0.57185  0.77736  0.18130  1.0000
  O   O37       1.0  0.59076  0.79175  0.13240  1.0000
  O   O38       1.0  0.55174  0.77291  0.14030  1.0000
  C   C95       1.0  0.56632  0.74846  0.34126  1.0000
  H   H36       1.0  0.54827  0.73676  0.32255  1.0000
  H   H37       1.0  0.51973  0.91837  0.29023  1.0000
  C   C96       1.0  0.60967  0.48292  0.34034  1.0000
  C   C97       1.0  0.59487  0.46774  0.26567  1.0000
  C   C98       1.0  0.57188  0.44441  0.28226  1.0000
  H   H38       1.0  0.56070  0.43451  0.22763  1.0000
  N   N54       1.0  0.60276  0.47667  0.17545  1.0000
  O   O39       1.0  0.60666  0.46127  0.13005  1.0000
  O   O40       1.0  0.58650  0.48018  0.13428  1.0000
  C   C99       1.0  0.62883  0.50821  0.32743  1.0000
  H   H39       1.0  0.62433  0.51913  0.28965  1.0000
  C   C100      1.0  0.56302  0.14963  0.34025  1.0000
  C   C101      1.0  0.57815  0.14992  0.26553  1.0000
  C   C102      1.0  0.60138  0.15005  0.28204  1.0000
  H   H40       1.0  0.61124  0.14872  0.22737  1.0000
  N   N55       1.0  0.56926  0.14902  0.17533  1.0000
  O   O41       1.0  0.58475  0.16831  0.13012  1.0000
  O   O42       1.0  0.56562  0.12923  0.13393  1.0000
  C   C103      1.0  0.53774  0.14358  0.32736  1.0000
  H   H41       1.0  0.52679  0.12818  0.28954  1.0000
  C   C104      1.0  0.66475  0.63739  0.34645  1.0000
  C   C105      1.0  0.65638  0.64499  0.26802  1.0000
  C   C106      1.0  0.64284  0.65854  0.27808  1.0000
  H   H42       1.0  0.63757  0.66440  0.22057  1.0000
  N   N56       1.0  0.66172  0.63885  0.18050  1.0000
  O   O43       1.0  0.64145  0.62453  0.13762  1.0000
  O   O44       1.0  0.67505  0.65858  0.13367  1.0000
  C   C107      1.0  0.68036  0.62637  0.33973  1.0000
  H   H43       1.0  0.69787  0.63680  0.31415  1.0000
  C   C108      1.0  0.63873  0.99546  0.34646  1.0000
  C   C109      1.0  0.64729  0.01130  0.26773  1.0000
  C   C110      1.0  0.66078  0.03840  0.27724  1.0000
  H   H44       1.0  0.66726  0.04945  0.21963  1.0000
  N   N57       1.0  0.64214  0.99969  0.18045  1.0000
  O   O45       1.0  0.62837  0.00563  0.13394  1.0000
  O   O46       1.0  0.66239  0.00600  0.13699  1.0000
  C   C111      1.0  0.62745  0.96878  0.34061  1.0000
  H   H45       1.0  0.63786  0.96144  0.31705  1.0000
  N   N58       1.0  0.59305  0.70689  0.35631  1.0000
  C   C112      1.0  0.58686  0.68170  0.35355  1.0000
  N   N59       1.0  0.56174  0.66363  0.35032  1.0000
  C   C113      1.0  0.54277  0.66955  0.35076  1.0000
  N   N60       1.0  0.54956  0.69467  0.35199  1.0000
  N   N61       1.0  0.58075  0.73867  0.35792  1.0000
  N   N62       1.0  0.51827  0.65123  0.34651  1.0000
  N   N63       1.0  0.60264  0.67217  0.35144  1.0000
  N   N64       1.0  0.52743  0.39460  0.34671  1.0000
  C   C114      1.0  0.68195  0.11738  0.35493  1.0000
  N   N65       1.0  0.66375  0.12427  0.35166  1.0000
  C   C115      1.0  0.66951  0.14910  0.35144  1.0000
  N   N66       1.0  0.69461  0.16756  0.35229  1.0000
  N   N67       1.0  0.65115  0.15523  0.34699  1.0000
  N   N68       1.0  0.67266  0.09211  0.35337  1.0000
  N   N69       1.0  0.52760  0.15570  0.36519  1.0000
  C   C116      1.0  0.68153  0.58696  0.35782  1.0000
  N   N70       1.0  0.66347  0.56184  0.36122  1.0000
  C   C117      1.0  0.66939  0.54288  0.36089  1.0000
  N   N71       1.0  0.69452  0.54967  0.35956  1.0000
  N   N72       1.0  0.65109  0.51837  0.36523  1.0000
  N   N73       1.0  0.67200  0.60274  0.35984  1.0000
  C   C118      1.0  0.57501  0.88402  0.35630  1.0000
  N   N74       1.0  0.59362  0.90939  0.35468  1.0000
  C   C119      1.0  0.58763  0.92852  0.35728  1.0000
  N   N75       1.0  0.56255  0.92166  0.36063  1.0000
  C   C120      1.0  0.54345  0.89684  0.36058  1.0000
  N   N76       1.0  0.55007  0.87837  0.35947  1.0000
  N   N77       1.0  0.58104  0.86526  0.35336  1.0000
  N   N78       1.0  0.51897  0.89073  0.36503  1.0000
  N   N79       1.0  0.60364  0.95379  0.35902  1.0000
  C   C121      1.0  0.57354  0.82219  0.36421  1.0000
  C   C122      1.0  0.57353  0.80840  0.44286  1.0000
  C   C123      1.0  0.57383  0.78506  0.43346  1.0000
  H   H46       1.0  0.57228  0.77477  0.49111  1.0000
  N   N80       1.0  0.57182  0.81757  0.53007  1.0000
  O   O47       1.0  0.59070  0.82205  0.57905  1.0000
  O   O48       1.0  0.55168  0.80193  0.57098  1.0000
  C   C124      1.0  0.56651  0.84108  0.37021  1.0000
  H   H47       1.0  0.54849  0.83482  0.38908  1.0000
  H   H48       1.0  0.51907  0.62454  0.42234  1.0000
  C   C125      1.0  0.56285  0.43604  0.37176  1.0000
  C   C126      1.0  0.57801  0.45085  0.44644  1.0000
  C   C127      1.0  0.60128  0.47388  0.42981  1.0000
  H   H49       1.0  0.61123  0.48504  0.48445  1.0000
  N   N81       1.0  0.56910  0.44293  0.53665  1.0000
  O   O49       1.0  0.58453  0.43907  0.58200  1.0000
  O   O50       1.0  0.56553  0.45915  0.57787  1.0000
  C   C128      1.0  0.53756  0.41685  0.38456  1.0000
  H   H50       1.0  0.52662  0.42133  0.42230  1.0000
  C   C129      1.0  0.60971  0.14928  0.37148  1.0000
  C   C130      1.0  0.59499  0.14979  0.44622  1.0000
  C   C131      1.0  0.57206  0.15024  0.42968  1.0000
  H   H51       1.0  0.56092  0.14905  0.48434  1.0000
  N   N82       1.0  0.60292  0.14878  0.53642  1.0000
  O   O51       1.0  0.60697  0.16816  0.58157  1.0000
  O   O52       1.0  0.58660  0.12909  0.57787  1.0000
  C   C132      1.0  0.62883  0.14307  0.38435  1.0000
  H   H52       1.0  0.62429  0.12762  0.42201  1.0000
  C   C133      1.0  0.63728  0.66492  0.36468  1.0000
  C   C134      1.0  0.64485  0.65651  0.44311  1.0000
  C   C135      1.0  0.65837  0.64295  0.43305  1.0000
  H   H53       1.0  0.66422  0.63765  0.49056  1.0000
  N   N83       1.0  0.63870  0.66185  0.53062  1.0000
  O   O53       1.0  0.62436  0.64157  0.57346  1.0000
  O   O54       1.0  0.65844  0.67515  0.57751  1.0000
  C   C136      1.0  0.62628  0.68055  0.37140  1.0000
  H   H54       1.0  0.63671  0.69805  0.39703  1.0000
  C   C137      1.0  0.66616  0.05046  0.36357  1.0000
  C   C138      1.0  0.65699  0.03464  0.44220  1.0000
  C   C139      1.0  0.64346  0.00754  0.43267  1.0000
  H   H55       1.0  0.63753  0.99649  0.49039  1.0000
  N   N84       1.0  0.66159  0.04628  0.52931  1.0000
  O   O55       1.0  0.64097  0.04044  0.56947  1.0000
  O   O56       1.0  0.67445  0.03989  0.57894  1.0000
  C   C140      1.0  0.68160  0.07711  0.36976  1.0000
  H   H56       1.0  0.69959  0.08440  0.39056  1.0000
  C   C141      1.0  0.88367  0.57461  0.35508  1.0000
  C   C142      1.0  0.71388  0.16188  0.35542  1.0000
  C   C143      1.0  0.82203  0.57356  0.34717  1.0000
  C   C144      1.0  0.80826  0.57357  0.26847  1.0000
  C   C145      1.0  0.78496  0.57396  0.27777  1.0000
  H   H57       1.0  0.77467  0.57237  0.22009  1.0000
  N   N85       1.0  0.81740  0.57178  0.18130  1.0000
  O   O57       1.0  0.82193  0.59065  0.13217  1.0000
  O   O58       1.0  0.80171  0.55163  0.14052  1.0000
  C   C146      1.0  0.84081  0.56640  0.34130  1.0000
  H   H58       1.0  0.83445  0.54834  0.32262  1.0000
  C   C147      1.0  0.77428  0.22367  0.34715  1.0000
  C   C148      1.0  0.78808  0.23744  0.26850  1.0000
  C   C149      1.0  0.81171  0.26078  0.27791  1.0000
  H   H59       1.0  0.82048  0.27104  0.22024  1.0000
  N   N86       1.0  0.77720  0.22825  0.18131  1.0000
  O   O59       1.0  0.79161  0.22376  0.13239  1.0000
  O   O60       1.0  0.77270  0.24389  0.14032  1.0000
  C   C150      1.0  0.74836  0.20480  0.34128  1.0000
  H   H60       1.0  0.73659  0.21107  0.32250  1.0000
  C   C151      1.0  0.89598  0.43606  0.34022  1.0000
  C   C152      1.0  0.89559  0.45086  0.26556  1.0000
  C   C153      1.0  0.89531  0.47387  0.28224  1.0000
  H   H61       1.0  0.89653  0.48505  0.22765  1.0000
  N   N87       1.0  0.89658  0.44296  0.17531  1.0000
  O   O61       1.0  0.87728  0.43909  0.13002  1.0000
  O   O62       1.0  0.91636  0.45921  0.13407  1.0000
  C   C154      1.0  0.90206  0.41687  0.32721  1.0000
  H   H62       1.0  0.91746  0.42134  0.28933  1.0000
  C   C155      1.0  0.99531  0.38094  0.34647  1.0000
  C   C156      1.0  0.01124  0.38926  0.26793  1.0000
  N   N88       1.0  0.99971  0.38386  0.18049  1.0000
  O   O63       1.0  0.00564  0.40409  0.13743  1.0000
  O   O64       1.0  0.00609  0.37049  0.13374  1.0000
  C   C157      1.0  0.96868  0.36530  0.33995  1.0000
  H   H63       1.0  0.96159  0.34774  0.31488  1.0000
  C   C158      1.0  0.00727  0.64292  0.27799  1.0000
  H   H64       1.0  0.99614  0.63769  0.22044  1.0000
  N   N89       1.0  0.90910  0.59309  0.35641  1.0000
  C   C159      1.0  0.92810  0.58689  0.35369  1.0000
  N   N90       1.0  0.92103  0.56177  0.35049  1.0000
  C   C160      1.0  0.89615  0.54281  0.35090  1.0000
  N   N91       1.0  0.87782  0.54961  0.35209  1.0000
  N   N92       1.0  0.86503  0.58082  0.35797  1.0000
  N   N93       1.0  0.88995  0.51831  0.34665  1.0000
  N   N94       1.0  0.95341  0.60267  0.35161  1.0000
  N   N95       1.0  0.70710  0.13650  0.35724  1.0000
  N   N96       1.0  0.73867  0.18062  0.35819  1.0000
  C   C161      1.0  0.71368  0.57468  0.35639  1.0000
  N   N97       1.0  0.70672  0.59315  0.35498  1.0000
  N   N98       1.0  0.73852  0.58088  0.35339  1.0000
  C   C162      1.0  0.88366  0.33202  0.35632  1.0000
  N   N99       1.0  0.90910  0.33897  0.35487  1.0000
  C   C163      1.0  0.92810  0.36417  0.35767  1.0000
  N   N100      1.0  0.92104  0.38223  0.36105  1.0000
  C   C164      1.0  0.89616  0.37631  0.36075  1.0000
  N   N101      1.0  0.87782  0.35119  0.35948  1.0000
  N   N102      1.0  0.86501  0.30719  0.35332  1.0000
  N   N103      1.0  0.88997  0.39462  0.36513  1.0000
  N   N104      1.0  0.95341  0.37370  0.35961  1.0000
  C   C165      1.0  0.77427  0.57363  0.36398  1.0000
  C   C166      1.0  0.78808  0.57368  0.44265  1.0000
  C   C167      1.0  0.81175  0.57402  0.43340  1.0000
  H   H65       1.0  0.82046  0.57247  0.49112  1.0000
  N   N105      1.0  0.77719  0.57198  0.52983  1.0000
  O   O65       1.0  0.79156  0.59088  0.57877  1.0000
  O   O66       1.0  0.77271  0.55185  0.57083  1.0000
  C   C168      1.0  0.74832  0.56646  0.36992  1.0000
  H   H66       1.0  0.73663  0.54839  0.38853  1.0000
  C   C169      1.0  0.82201  0.27146  0.36419  1.0000
  C   C170      1.0  0.80824  0.25764  0.44285  1.0000
  C   C171      1.0  0.78493  0.23398  0.43345  1.0000
  H   H67       1.0  0.77466  0.22521  0.49110  1.0000
  N   N106      1.0  0.81739  0.26852  0.53007  1.0000
  O   O67       1.0  0.82191  0.25413  0.57901  1.0000
  O   O68       1.0  0.80172  0.27297  0.57101  1.0000
  C   C172      1.0  0.84081  0.29740  0.37023  1.0000
  H   H68       1.0  0.83448  0.30909  0.38920  1.0000
  C   C173      1.0  0.89595  0.48288  0.37177  1.0000
  C   C174      1.0  0.89558  0.46770  0.44643  1.0000
  C   C175      1.0  0.89533  0.44442  0.42974  1.0000
  H   H69       1.0  0.89653  0.43445  0.48433  1.0000
  N   N107      1.0  0.89656  0.47659  0.53667  1.0000
  O   O69       1.0  0.87726  0.46115  0.58195  1.0000
  O   O70       1.0  0.91634  0.48013  0.57791  1.0000
  C   C176      1.0  0.90203  0.50816  0.38469  1.0000
  H   H70       1.0  0.91743  0.51909  0.42257  1.0000
  C   C177      1.0  0.00729  0.38737  0.43298  1.0000
  H   H71       1.0  0.99619  0.38154  0.49058  1.0000
  C   C178      1.0  0.99531  0.63732  0.36455  1.0000
  C   C179      1.0  0.01126  0.64488  0.44303  1.0000
  N   N108      1.0  0.99975  0.63871  0.53049  1.0000
  O   O71       1.0  0.00568  0.62437  0.57334  1.0000
  O   O72       1.0  0.00616  0.65844  0.57741  1.0000
  C   C180      1.0  0.96868  0.62634  0.37117  1.0000
  H   H72       1.0  0.96161  0.63682  0.39633  1.0000
