data_image0
_chemical_formula_structural       C15H12C3NOCH3C3NOCH3C2NC2NC5NC3NC17H14CNHCNHC15H12C3NOCH3C3NOCH3C2NC2NC5NC3NC17H14CNHCNHC15H12C3NOCH3C3NOCH3C2NC2NC5NC3NC17H14CNHCNHC15H12C3NOCH3C3NOCH3C2NC2NC5NC3NC17H14CNHCNH
_chemical_formula_sum              "C216 H136 N32 O8"
_cell_length_a       42.6364
_cell_length_b       42.6364
_cell_length_c       14.9287
_cell_angle_alpha    90
_cell_angle_beta     90
_cell_angle_gamma    90

_space_group_name_H-M_alt    "P 1"
_space_group_IT_number       1

loop_
  _space_group_symop_operation_xyz
  'x, y, z'

loop_
  _atom_site_type_symbol
  _atom_site_label
  _atom_site_symmetry_multiplicity
  _atom_site_fract_x
  _atom_site_fract_y
  _atom_site_fract_z
  _atom_site_occupancy
  C   C1        1.0  0.43510  0.47282  0.34154  1.0000
  C   C2        1.0  0.03184  0.43487  0.34116  1.0000
  C   C3        1.0  0.50091  0.08458  0.33805  1.0000
  C   C4        1.0  0.47126  0.06926  0.33892  1.0000
  C   C5        1.0  0.41919  0.06104  0.33799  1.0000
  C   C6        1.0  0.44199  0.08399  0.33925  1.0000
  C   C7        1.0  0.33602  0.49104  0.26036  1.0000
  C   C8        1.0  0.36903  0.49171  0.26162  1.0000
  C   C9        1.0  0.50110  0.11818  0.33642  1.0000
  C   C10       1.0  0.49103  0.16778  0.25845  1.0000
  C   C11       1.0  0.49142  0.13477  0.25929  1.0000
  C   C12       1.0  0.13416  0.00781  0.25946  1.0000
  C   C13       1.0  0.16718  0.00782  0.25884  1.0000
  C   C14       1.0  0.00770  0.36955  0.26057  1.0000
  C   C15       1.0  0.00773  0.33654  0.25959  1.0000
  H   H1        1.0  0.01183  0.32554  0.19982  1.0000
  H   H2        1.0  0.01190  0.38144  0.20220  1.0000
  H   H3        1.0  0.43914  0.39711  0.34691  1.0000
  H   H4        1.0  0.12234  0.01191  0.20092  1.0000
  H   H5        1.0  0.17826  0.01184  0.19916  1.0000
  H   H6        1.0  0.06409  0.10687  0.32930  1.0000
  H   H7        1.0  0.39564  0.06542  0.33709  1.0000
  H   H8        1.0  0.43745  0.10752  0.33935  1.0000
  H   H9        1.0  0.48400  0.12288  0.20362  1.0000
  H   H10       1.0  0.48261  0.17875  0.20259  1.0000
  H   H11       1.0  0.38107  0.48443  0.20604  1.0000
  H   H12       1.0  0.32521  0.48253  0.20435  1.0000
  C   C16       1.0  0.51147  0.23724  0.25836  1.0000
  C   C17       1.0  0.00106  0.21913  0.33247  1.0000
  C   C18       1.0  0.00143  0.28539  0.33679  1.0000
  N   N1        1.0  0.51171  0.26910  0.26424  1.0000
  O   O1        1.0  0.52446  0.22346  0.18407  1.0000
  C   C19       1.0  0.01006  0.23209  0.10039  1.0000
  H   H13       1.0  0.48487  0.22730  0.10065  1.0000
  H   H14       1.0  0.02077  0.21815  0.04738  1.0000
  H   H15       1.0  0.01399  0.25683  0.08514  1.0000
  C   C20       1.0  0.26654  0.51136  0.25900  1.0000
  C   C21       1.0  0.28449  0.00091  0.33339  1.0000
  C   C22       1.0  0.21822  0.00140  0.33665  1.0000
  N   N2        1.0  0.23467  0.51167  0.26436  1.0000
  O   O2        1.0  0.28046  0.52439  0.18500  1.0000
  C   C23       1.0  0.27207  0.00998  0.10115  1.0000
  H   H16       1.0  0.27692  0.48481  0.10147  1.0000
  H   H17       1.0  0.28609  0.02074  0.04841  1.0000
  H   H18       1.0  0.24734  0.01386  0.08545  1.0000
  C   C24       1.0  0.44354  0.42066  0.34495  1.0000
  C   C25       1.0  0.42057  0.44345  0.34543  1.0000
  N   N3        1.0  0.46633  0.46665  0.34033  1.0000
  C   C26       1.0  0.47276  0.43547  0.34237  1.0000
  C   C27       1.0  0.50219  0.41965  0.34165  1.0000
  N   N4        1.0  0.03780  0.46602  0.34119  1.0000
  C   C28       1.0  0.06892  0.47218  0.34123  1.0000
  C   C29       1.0  0.08388  0.44303  0.34102  1.0000
  C   C30       1.0  0.06107  0.42008  0.34146  1.0000
  C   C31       1.0  0.08395  0.50194  0.34026  1.0000
  C   C32       1.0  0.06793  0.03125  0.33864  1.0000
  N   N5        1.0  0.03671  0.03750  0.34052  1.0000
  C   C33       1.0  0.03033  0.06868  0.33774  1.0000
  C   C34       1.0  0.05961  0.08337  0.33330  1.0000
  C   C35       1.0  0.08255  0.06055  0.33481  1.0000
  N   N6        1.0  0.46525  0.03810  0.33951  1.0000
  C   C36       1.0  0.43412  0.03188  0.33940  1.0000
  C   C37       1.0  0.41900  0.50213  0.34012  1.0000
  C   C38       1.0  0.38541  0.50170  0.33879  1.0000
  C   C39       1.0  0.36783  0.01109  0.41440  1.0000
  C   C40       1.0  0.33481  0.01107  0.41212  1.0000
  C   C41       1.0  0.31814  0.50110  0.33500  1.0000
  C   C42       1.0  0.01074  0.13557  0.41215  1.0000
  C   C43       1.0  0.01104  0.16859  0.41026  1.0000
  C   C44       1.0  0.50118  0.18547  0.33341  1.0000
  C   C45       1.0  0.11748  0.50224  0.33960  1.0000
  C   C46       1.0  0.18470  0.50183  0.33779  1.0000
  C   C47       1.0  0.16765  0.49611  0.41772  1.0000
  C   C48       1.0  0.13463  0.49648  0.41884  1.0000
  C   C49       1.0  0.50205  0.38612  0.34084  1.0000
  C   C50       1.0  0.49632  0.36888  0.41992  1.0000
  C   C51       1.0  0.49597  0.33585  0.41843  1.0000
  C   C52       1.0  0.50175  0.31891  0.33835  1.0000
  H   H19       1.0  0.49171  0.32432  0.47727  1.0000
  H   H20       1.0  0.49219  0.38029  0.47910  1.0000
  H   H21       1.0  0.39708  0.43882  0.34824  1.0000
  H   H22       1.0  0.48218  0.48261  0.33684  1.0000
  H   H23       1.0  0.02086  0.02158  0.34499  1.0000
  H   H24       1.0  0.06550  0.39652  0.34184  1.0000
  H   H25       1.0  0.10746  0.43873  0.34043  1.0000
  H   H26       1.0  0.12315  0.49228  0.47787  1.0000
  H   H27       1.0  0.17910  0.49179  0.47666  1.0000
  H   H28       1.0  0.10607  0.06509  0.33254  1.0000
  H   H29       1.0  0.01791  0.12426  0.46907  1.0000
  H   H30       1.0  0.01888  0.18023  0.46585  1.0000
  H   H31       1.0  0.32301  0.01888  0.46749  1.0000
  H   H32       1.0  0.37899  0.01846  0.47135  1.0000
  C   C53       1.0  0.99049  0.23643  0.40761  1.0000
  N   N7        1.0  0.99092  0.26825  0.40748  1.0000
  H   H33       1.0  0.98195  0.22538  0.46323  1.0000
  C   C54       1.0  0.26702  0.99033  0.40820  1.0000
  N   N8        1.0  0.23521  0.99083  0.40756  1.0000
  H   H34       1.0  0.27795  0.98179  0.46402  1.0000
  C   C55       1.0  0.43510  0.97282  0.34154  1.0000
  C   C56       1.0  0.03184  0.93487  0.34116  1.0000
  C   C57       1.0  0.50091  0.58458  0.33805  1.0000
  C   C58       1.0  0.47126  0.56926  0.33892  1.0000
  C   C59       1.0  0.41919  0.56104  0.33799  1.0000
  C   C60       1.0  0.44199  0.58399  0.33925  1.0000
  C   C61       1.0  0.33602  0.99104  0.26036  1.0000
  C   C62       1.0  0.36903  0.99171  0.26162  1.0000
  C   C63       1.0  0.50110  0.61818  0.33642  1.0000
  C   C64       1.0  0.49103  0.66778  0.25845  1.0000
  C   C65       1.0  0.49142  0.63477  0.25929  1.0000
  C   C66       1.0  0.13416  0.50781  0.25946  1.0000
  C   C67       1.0  0.16718  0.50782  0.25884  1.0000
  C   C68       1.0  0.00770  0.86955  0.26057  1.0000
  C   C69       1.0  0.00773  0.83654  0.25959  1.0000
  H   H35       1.0  0.01183  0.82554  0.19982  1.0000
  H   H36       1.0  0.01190  0.88144  0.20220  1.0000
  H   H37       1.0  0.43914  0.89711  0.34691  1.0000
  H   H38       1.0  0.12234  0.51191  0.20092  1.0000
  H   H39       1.0  0.17826  0.51184  0.19916  1.0000
  H   H40       1.0  0.06409  0.60687  0.32930  1.0000
  H   H41       1.0  0.39564  0.56542  0.33709  1.0000
  H   H42       1.0  0.43745  0.60752  0.33935  1.0000
  H   H43       1.0  0.48400  0.62288  0.20362  1.0000
  H   H44       1.0  0.48261  0.67875  0.20259  1.0000
  H   H45       1.0  0.38107  0.98443  0.20604  1.0000
  H   H46       1.0  0.32521  0.98253  0.20435  1.0000
  C   C70       1.0  0.51147  0.73724  0.25836  1.0000
  C   C71       1.0  0.00106  0.71913  0.33247  1.0000
  C   C72       1.0  0.00143  0.78539  0.33679  1.0000
  N   N9        1.0  0.51171  0.76910  0.26424  1.0000
  O   O3        1.0  0.52446  0.72346  0.18407  1.0000
  C   C73       1.0  0.01006  0.73209  0.10039  1.0000
  H   H47       1.0  0.48487  0.72730  0.10065  1.0000
  H   H48       1.0  0.02077  0.71815  0.04738  1.0000
  H   H49       1.0  0.01399  0.75683  0.08514  1.0000
  C   C74       1.0  0.26654  0.01136  0.25900  1.0000
  C   C75       1.0  0.28449  0.50091  0.33339  1.0000
  C   C76       1.0  0.21822  0.50140  0.33665  1.0000
  N   N10       1.0  0.23467  0.01167  0.26436  1.0000
  O   O4        1.0  0.28046  0.02439  0.18500  1.0000
  C   C77       1.0  0.27207  0.50998  0.10115  1.0000
  H   H50       1.0  0.27692  0.98481  0.10147  1.0000
  H   H51       1.0  0.28609  0.52074  0.04841  1.0000
  H   H52       1.0  0.24734  0.51386  0.08545  1.0000
  C   C78       1.0  0.44354  0.92066  0.34495  1.0000
  C   C79       1.0  0.42057  0.94345  0.34543  1.0000
  N   N11       1.0  0.46633  0.96665  0.34033  1.0000
  C   C80       1.0  0.47276  0.93547  0.34237  1.0000
  C   C81       1.0  0.50219  0.91965  0.34165  1.0000
  N   N12       1.0  0.03780  0.96602  0.34119  1.0000
  C   C82       1.0  0.06892  0.97218  0.34123  1.0000
  C   C83       1.0  0.08388  0.94303  0.34102  1.0000
  C   C84       1.0  0.06107  0.92008  0.34146  1.0000
  C   C85       1.0  0.08395  0.00193  0.34026  1.0000
  C   C86       1.0  0.06793  0.53125  0.33864  1.0000
  N   N13       1.0  0.03671  0.53750  0.34052  1.0000
  C   C87       1.0  0.03033  0.56868  0.33774  1.0000
  C   C88       1.0  0.05961  0.58337  0.33330  1.0000
  C   C89       1.0  0.08255  0.56055  0.33481  1.0000
  N   N14       1.0  0.46525  0.53810  0.33951  1.0000
  C   C90       1.0  0.43412  0.53188  0.33940  1.0000
  C   C91       1.0  0.41900  0.00213  0.34012  1.0000
  C   C92       1.0  0.38541  0.00170  0.33879  1.0000
  C   C93       1.0  0.36783  0.51109  0.41440  1.0000
  C   C94       1.0  0.33481  0.51107  0.41212  1.0000
  C   C95       1.0  0.31814  0.00110  0.33500  1.0000
  C   C96       1.0  0.01074  0.63557  0.41215  1.0000
  C   C97       1.0  0.01104  0.66859  0.41026  1.0000
  C   C98       1.0  0.50118  0.68547  0.33341  1.0000
  C   C99       1.0  0.11748  0.00224  0.33960  1.0000
  C   C100      1.0  0.18470  0.00183  0.33779  1.0000
  C   C101      1.0  0.16765  0.99611  0.41772  1.0000
  C   C102      1.0  0.13463  0.99647  0.41884  1.0000
  C   C103      1.0  0.50205  0.88612  0.34084  1.0000
  C   C104      1.0  0.49632  0.86888  0.41992  1.0000
  C   C105      1.0  0.49597  0.83585  0.41843  1.0000
  C   C106      1.0  0.50175  0.81891  0.33835  1.0000
  H   H53       1.0  0.49171  0.82432  0.47727  1.0000
  H   H54       1.0  0.49219  0.88029  0.47910  1.0000
  H   H55       1.0  0.39708  0.93881  0.34824  1.0000
  H   H56       1.0  0.48218  0.98261  0.33684  1.0000
  H   H57       1.0  0.02086  0.52158  0.34499  1.0000
  H   H58       1.0  0.06550  0.89652  0.34184  1.0000
  H   H59       1.0  0.10746  0.93874  0.34043  1.0000
  H   H60       1.0  0.12315  0.99228  0.47787  1.0000
  H   H61       1.0  0.17910  0.99179  0.47666  1.0000
  H   H62       1.0  0.10607  0.56509  0.33254  1.0000
  H   H63       1.0  0.01791  0.62426  0.46907  1.0000
  H   H64       1.0  0.01888  0.68023  0.46585  1.0000
  H   H65       1.0  0.32301  0.51888  0.46749  1.0000
  H   H66       1.0  0.37899  0.51846  0.47135  1.0000
  C   C107      1.0  0.99049  0.73644  0.40761  1.0000
  N   N15       1.0  0.99092  0.76825  0.40748  1.0000
  H   H67       1.0  0.98195  0.72538  0.46323  1.0000
  C   C108      1.0  0.26702  0.49033  0.40820  1.0000
  N   N16       1.0  0.23521  0.49083  0.40756  1.0000
  H   H68       1.0  0.27795  0.48179  0.46402  1.0000
  C   C109      1.0  0.93510  0.47282  0.34154  1.0000
  C   C110      1.0  0.53184  0.43487  0.34116  1.0000
  C   C111      1.0  0.00091  0.08458  0.33805  1.0000
  C   C112      1.0  0.97126  0.06926  0.33892  1.0000
  C   C113      1.0  0.91919  0.06104  0.33799  1.0000
  C   C114      1.0  0.94199  0.08399  0.33925  1.0000
  C   C115      1.0  0.83602  0.49104  0.26036  1.0000
  C   C116      1.0  0.86903  0.49171  0.26162  1.0000
  C   C117      1.0  0.00110  0.11818  0.33642  1.0000
  C   C118      1.0  0.99103  0.16778  0.25845  1.0000
  C   C119      1.0  0.99142  0.13477  0.25929  1.0000
  C   C120      1.0  0.63416  0.00781  0.25946  1.0000
  C   C121      1.0  0.66718  0.00782  0.25884  1.0000
  C   C122      1.0  0.50770  0.36955  0.26057  1.0000
  C   C123      1.0  0.50773  0.33654  0.25959  1.0000
  H   H69       1.0  0.51182  0.32554  0.19982  1.0000
  H   H70       1.0  0.51190  0.38144  0.20220  1.0000
  H   H71       1.0  0.93914  0.39711  0.34691  1.0000
  H   H72       1.0  0.62234  0.01191  0.20092  1.0000
  H   H73       1.0  0.67827  0.01184  0.19916  1.0000
  H   H74       1.0  0.56409  0.10687  0.32930  1.0000
  H   H75       1.0  0.89564  0.06542  0.33709  1.0000
  H   H76       1.0  0.93745  0.10752  0.33935  1.0000
  H   H77       1.0  0.98400  0.12288  0.20362  1.0000
  H   H78       1.0  0.98261  0.17875  0.20259  1.0000
  H   H79       1.0  0.88107  0.48443  0.20604  1.0000
  H   H80       1.0  0.82521  0.48253  0.20435  1.0000
  C   C124      1.0  0.01147  0.23724  0.25836  1.0000
  C   C125      1.0  0.50106  0.21913  0.33247  1.0000
  C   C126      1.0  0.50143  0.28539  0.33679  1.0000
  N   N17       1.0  0.01171  0.26910  0.26424  1.0000
  O   O5        1.0  0.02446  0.22346  0.18407  1.0000
  C   C127      1.0  0.51006  0.23209  0.10039  1.0000
  H   H81       1.0  0.98487  0.22730  0.10065  1.0000
  H   H82       1.0  0.52077  0.21815  0.04738  1.0000
  H   H83       1.0  0.51399  0.25683  0.08514  1.0000
  C   C128      1.0  0.76654  0.51136  0.25900  1.0000
  C   C129      1.0  0.78449  0.00091  0.33339  1.0000
  C   C130      1.0  0.71822  0.00140  0.33665  1.0000
  N   N18       1.0  0.73467  0.51167  0.26436  1.0000
  O   O6        1.0  0.78047  0.52439  0.18500  1.0000
  C   C131      1.0  0.77207  0.00998  0.10115  1.0000
  H   H84       1.0  0.77692  0.48481  0.10147  1.0000
  H   H85       1.0  0.78609  0.02074  0.04841  1.0000
  H   H86       1.0  0.74735  0.01386  0.08545  1.0000
  C   C132      1.0  0.94354  0.42066  0.34495  1.0000
  C   C133      1.0  0.92057  0.44345  0.34543  1.0000
  N   N19       1.0  0.96633  0.46665  0.34033  1.0000
  C   C134      1.0  0.97276  0.43547  0.34237  1.0000
  C   C135      1.0  0.00218  0.41965  0.34165  1.0000
  N   N20       1.0  0.53780  0.46602  0.34119  1.0000
  C   C136      1.0  0.56892  0.47218  0.34123  1.0000
  C   C137      1.0  0.58388  0.44303  0.34102  1.0000
  C   C138      1.0  0.56107  0.42008  0.34146  1.0000
  C   C139      1.0  0.58395  0.50194  0.34026  1.0000
  C   C140      1.0  0.56793  0.03125  0.33864  1.0000
  N   N21       1.0  0.53672  0.03750  0.34052  1.0000
  C   C141      1.0  0.53033  0.06868  0.33774  1.0000
  C   C142      1.0  0.55961  0.08337  0.33330  1.0000
  C   C143      1.0  0.58255  0.06055  0.33481  1.0000
  N   N22       1.0  0.96525  0.03810  0.33951  1.0000
  C   C144      1.0  0.93412  0.03188  0.33940  1.0000
  C   C145      1.0  0.91900  0.50213  0.34012  1.0000
  C   C146      1.0  0.88541  0.50170  0.33879  1.0000
  C   C147      1.0  0.86783  0.01109  0.41440  1.0000
  C   C148      1.0  0.83481  0.01107  0.41212  1.0000
  C   C149      1.0  0.81814  0.50110  0.33500  1.0000
  C   C150      1.0  0.51074  0.13557  0.41215  1.0000
  C   C151      1.0  0.51104  0.16859  0.41026  1.0000
  C   C152      1.0  0.00118  0.18547  0.33341  1.0000
  C   C153      1.0  0.61748  0.50224  0.33960  1.0000
  C   C154      1.0  0.68470  0.50183  0.33779  1.0000
  C   C155      1.0  0.66765  0.49611  0.41772  1.0000
  C   C156      1.0  0.63463  0.49648  0.41884  1.0000
  C   C157      1.0  0.00205  0.38612  0.34084  1.0000
  C   C158      1.0  0.99632  0.36888  0.41992  1.0000
  C   C159      1.0  0.99597  0.33585  0.41843  1.0000
  C   C160      1.0  0.00175  0.31891  0.33835  1.0000
  H   H87       1.0  0.99171  0.32432  0.47727  1.0000
  H   H88       1.0  0.99219  0.38029  0.47910  1.0000
  H   H89       1.0  0.89708  0.43882  0.34824  1.0000
  H   H90       1.0  0.98218  0.48261  0.33684  1.0000
  H   H91       1.0  0.52086  0.02158  0.34499  1.0000
  H   H92       1.0  0.56550  0.39652  0.34184  1.0000
  H   H93       1.0  0.60746  0.43873  0.34043  1.0000
  H   H94       1.0  0.62315  0.49228  0.47787  1.0000
  H   H95       1.0  0.67910  0.49179  0.47666  1.0000
  H   H96       1.0  0.60607  0.06509  0.33254  1.0000
  H   H97       1.0  0.51791  0.12426  0.46907  1.0000
  H   H98       1.0  0.51888  0.18023  0.46585  1.0000
  H   H99       1.0  0.82302  0.01888  0.46749  1.0000
  H   H100      1.0  0.87899  0.01846  0.47135  1.0000
  C   C161      1.0  0.49049  0.23643  0.40761  1.0000
  N   N23       1.0  0.49092  0.26825  0.40748  1.0000
  H   H101      1.0  0.48195  0.22538  0.46323  1.0000
  C   C162      1.0  0.76702  0.99033  0.40820  1.0000
  N   N24       1.0  0.73521  0.99083  0.40756  1.0000
  H   H102      1.0  0.77795  0.98179  0.46402  1.0000
  C   C163      1.0  0.93510  0.97282  0.34154  1.0000
  C   C164      1.0  0.53184  0.93487  0.34116  1.0000
  C   C165      1.0  0.00091  0.58458  0.33805  1.0000
  C   C166      1.0  0.97126  0.56926  0.33892  1.0000
  C   C167      1.0  0.91919  0.56104  0.33799  1.0000
  C   C168      1.0  0.94199  0.58399  0.33925  1.0000
  C   C169      1.0  0.83602  0.99104  0.26036  1.0000
  C   C170      1.0  0.86903  0.99171  0.26162  1.0000
  C   C171      1.0  0.00110  0.61818  0.33642  1.0000
  C   C172      1.0  0.99103  0.66778  0.25845  1.0000
  C   C173      1.0  0.99142  0.63477  0.25929  1.0000
  C   C174      1.0  0.63416  0.50781  0.25946  1.0000
  C   C175      1.0  0.66718  0.50782  0.25884  1.0000
  C   C176      1.0  0.50770  0.86955  0.26057  1.0000
  C   C177      1.0  0.50773  0.83654  0.25959  1.0000
  H   H103      1.0  0.51182  0.82554  0.19982  1.0000
  H   H104      1.0  0.51190  0.88144  0.20220  1.0000
  H   H105      1.0  0.93914  0.89711  0.34691  1.0000
  H   H106      1.0  0.62234  0.51191  0.20092  1.0000
  H   H107      1.0  0.67827  0.51184  0.19916  1.0000
  H   H108      1.0  0.56409  0.60687  0.32930  1.0000
  H   H109      1.0  0.89564  0.56542  0.33709  1.0000
  H   H110      1.0  0.93745  0.60752  0.33935  1.0000
  H   H111      1.0  0.98400  0.62288  0.20362  1.0000
  H   H112      1.0  0.98261  0.67875  0.20259  1.0000
  H   H113      1.0  0.88107  0.98443  0.20604  1.0000
  H   H114      1.0  0.82521  0.98253  0.20435  1.0000
  C   C178      1.0  0.01147  0.73724  0.25836  1.0000
  C   C179      1.0  0.50106  0.71913  0.33247  1.0000
  C   C180      1.0  0.50143  0.78539  0.33679  1.0000
  N   N25       1.0  0.01171  0.76910  0.26424  1.0000
  O   O7        1.0  0.02446  0.72346  0.18407  1.0000
  C   C181      1.0  0.51006  0.73209  0.10039  1.0000
  H   H115      1.0  0.98487  0.72730  0.10065  1.0000
  H   H116      1.0  0.52077  0.71815  0.04738  1.0000
  H   H117      1.0  0.51399  0.75683  0.08514  1.0000
  C   C182      1.0  0.76654  0.01136  0.25900  1.0000
  C   C183      1.0  0.78449  0.50091  0.33339  1.0000
  C   C184      1.0  0.71822  0.50140  0.33665  1.0000
  N   N26       1.0  0.73467  0.01167  0.26436  1.0000
  O   O8        1.0  0.78047  0.02439  0.18500  1.0000
  C   C185      1.0  0.77207  0.50998  0.10115  1.0000
  H   H118      1.0  0.77692  0.98481  0.10147  1.0000
  H   H119      1.0  0.78609  0.52074  0.04841  1.0000
  H   H120      1.0  0.74735  0.51386  0.08545  1.0000
  C   C186      1.0  0.94354  0.92066  0.34495  1.0000
  C   C187      1.0  0.92057  0.94345  0.34543  1.0000
  N   N27       1.0  0.96633  0.96665  0.34033  1.0000
  C   C188      1.0  0.97276  0.93547  0.34237  1.0000
  C   C189      1.0  0.00218  0.91965  0.34165  1.0000
  N   N28       1.0  0.53780  0.96602  0.34119  1.0000
  C   C190      1.0  0.56892  0.97218  0.34123  1.0000
  C   C191      1.0  0.58388  0.94303  0.34102  1.0000
  C   C192      1.0  0.56107  0.92008  0.34146  1.0000
  C   C193      1.0  0.58395  0.00193  0.34026  1.0000
  C   C194      1.0  0.56793  0.53125  0.33864  1.0000
  N   N29       1.0  0.53672  0.53750  0.34052  1.0000
  C   C195      1.0  0.53033  0.56868  0.33774  1.0000
  C   C196      1.0  0.55961  0.58337  0.33330  1.0000
  C   C197      1.0  0.58255  0.56055  0.33481  1.0000
  N   N30       1.0  0.96525  0.53810  0.33951  1.0000
  C   C198      1.0  0.93412  0.53188  0.33940  1.0000
  C   C199      1.0  0.91900  0.00213  0.34012  1.0000
  C   C200      1.0  0.88541  0.00170  0.33879  1.0000
  C   C201      1.0  0.86783  0.51109  0.41440  1.0000
  C   C202      1.0  0.83481  0.51107  0.41212  1.0000
  C   C203      1.0  0.81814  0.00110  0.33500  1.0000
  C   C204      1.0  0.51074  0.63557  0.41215  1.0000
  C   C205      1.0  0.51104  0.66859  0.41026  1.0000
  C   C206      1.0  0.00118  0.68547  0.33341  1.0000
  C   C207      1.0  0.61748  0.00224  0.33960  1.0000
  C   C208      1.0  0.68470  0.00183  0.33779  1.0000
  C   C209      1.0  0.66765  0.99611  0.41772  1.0000
  C   C210      1.0  0.63463  0.99647  0.41884  1.0000
  C   C211      1.0  0.00205  0.88612  0.34084  1.0000
  C   C212      1.0  0.99632  0.86888  0.41992  1.0000
  C   C213      1.0  0.99597  0.83585  0.41843  1.0000
  C   C214      1.0  0.00175  0.81891  0.33835  1.0000
  H   H121      1.0  0.99171  0.82432  0.47727  1.0000
  H   H122      1.0  0.99219  0.88029  0.47910  1.0000
  H   H123      1.0  0.89708  0.93881  0.34824  1.0000
  H   H124      1.0  0.98218  0.98261  0.33684  1.0000
  H   H125      1.0  0.52086  0.52158  0.34499  1.0000
  H   H126      1.0  0.56550  0.89652  0.34184  1.0000
  H   H127      1.0  0.60746  0.93874  0.34043  1.0000
  H   H128      1.0  0.62315  0.99228  0.47787  1.0000
  H   H129      1.0  0.67910  0.99179  0.47666  1.0000
  H   H130      1.0  0.60607  0.56509  0.33254  1.0000
  H   H131      1.0  0.51791  0.62426  0.46907  1.0000
  H   H132      1.0  0.51888  0.68023  0.46585  1.0000
  H   H133      1.0  0.82302  0.51888  0.46749  1.0000
  H   H134      1.0  0.87899  0.51846  0.47135  1.0000
  C   C215      1.0  0.49049  0.73644  0.40761  1.0000
  N   N31       1.0  0.49092  0.76825  0.40748  1.0000
  H   H135      1.0  0.48195  0.72538  0.46323  1.0000
  C   C216      1.0  0.76702  0.49033  0.40820  1.0000
  N   N32       1.0  0.73521  0.49083  0.40756  1.0000
  H   H136      1.0  0.77795  0.48179  0.46402  1.0000
