data_image0
_chemical_formula_structural       C8H6NC2H2C8H6NC2H2C8H6NC2H2C8H6NC2HC8H6NC2H2C8H6NC2H2CHC3HNO2NC3HNO2NC3HNO2NC3HNO2NC3HNO2NC3HNO2NC3HNO2NC3HNO2NC10H4CNCNHCHCHC10H4CNCNHCHCHC10H4CNCNHCHCHC10H4CNCNHCHCHC10H4CNCNHCHCHC10H4CNCNHCHCHC2NO2NC3HNO2NC3HNO2NC3HNO2NC3HNO2NC3HNO2NC3HNO2NC3HNO2NC3HNO2NHNC2NO2CH
_chemical_formula_sum              "C198 H108 N54 O36"
_cell_length_a       77.8785
_cell_length_b       77.8784
_cell_length_c       14.8453
_cell_angle_alpha    90
_cell_angle_beta     90
_cell_angle_gamma    120

_space_group_name_H-M_alt    "P 1"
_space_group_IT_number       1

loop_
  _space_group_symop_operation_xyz
  'x, y, z'

loop_
  _atom_site_type_symbol
  _atom_site_label
  _atom_site_symmetry_multiplicity
  _atom_site_fract_x
  _atom_site_fract_y
  _atom_site_fract_z
  _atom_site_occupancy
  C   C1        1.0  0.12519  0.56761  0.33931  1.0000
  C   C2        1.0  0.08261  0.54871  0.32394  1.0000
  C   C3        1.0  0.09478  0.56953  0.31729  1.0000
  C   C4        1.0  0.11554  0.57874  0.32546  1.0000
  C   C5        1.0  0.18358  0.64107  0.31508  1.0000
  C   C6        1.0  0.19675  0.66166  0.30670  1.0000
  C   C7        1.0  0.19367  0.53921  0.38789  1.0000
  C   C8        1.0  0.18099  0.54722  0.37936  1.0000
  H   H1        1.0  0.08865  0.57827  0.30532  1.0000
  H   H2        1.0  0.12354  0.59382  0.31873  1.0000
  H   H3        1.0  0.16936  0.63536  0.29215  1.0000
  H   H4        1.0  0.19161  0.67024  0.27873  1.0000
  H   H5        1.0  0.18830  0.52572  0.41864  1.0000
  H   H6        1.0  0.16696  0.53946  0.40525  1.0000
  N   N1        1.0  0.15765  0.59746  0.34513  1.0000
  C   C9        1.0  0.14643  0.57721  0.34352  1.0000
  C   C10       1.0  0.06228  0.54014  0.30882  1.0000
  H   H7        1.0  0.05785  0.54671  0.26454  1.0000
  H   H8        1.0  0.22365  0.53308  0.42450  1.0000
  C   C11       1.0  0.44544  0.56022  0.33923  1.0000
  C   C12       1.0  0.46433  0.53653  0.32387  1.0000
  C   C13       1.0  0.44352  0.52789  0.31716  1.0000
  C   C14       1.0  0.43430  0.53943  0.32527  1.0000
  C   C15       1.0  0.37196  0.54512  0.31503  1.0000
  C   C16       1.0  0.35138  0.53773  0.30657  1.0000
  C   C17       1.0  0.47386  0.65710  0.38766  1.0000
  C   C18       1.0  0.46581  0.63640  0.37935  1.0000
  H   H9        1.0  0.43477  0.51301  0.30521  1.0000
  H   H10       1.0  0.41922  0.53236  0.31859  1.0000
  H   H11       1.0  0.37768  0.53667  0.29163  1.0000
  H   H12       1.0  0.34281  0.52404  0.27822  1.0000
  H   H13       1.0  0.48737  0.66523  0.41817  1.0000
  H   H14       1.0  0.47361  0.63014  0.40483  1.0000
  N   N2        1.0  0.41558  0.56281  0.34511  1.0000
  C   C19       1.0  0.43583  0.57186  0.34349  1.0000
  C   C20       1.0  0.47291  0.52478  0.30888  1.0000
  H   H15       1.0  0.46634  0.51377  0.26458  1.0000
  H   H16       1.0  0.48002  0.69323  0.42430  1.0000
  C   C21       1.0  0.45283  0.88785  0.33925  1.0000
  C   C22       1.0  0.47653  0.93043  0.32395  1.0000
  C   C23       1.0  0.48516  0.91825  0.31721  1.0000
  C   C24       1.0  0.47362  0.89750  0.32536  1.0000
  C   C25       1.0  0.46790  0.82946  0.31506  1.0000
  C   C26       1.0  0.47529  0.81628  0.30663  1.0000
  C   C27       1.0  0.35594  0.81937  0.38789  1.0000
  C   C28       1.0  0.37664  0.83205  0.37937  1.0000
  H   H17       1.0  0.50004  0.92438  0.30523  1.0000
  H   H18       1.0  0.48068  0.88949  0.31857  1.0000
  H   H19       1.0  0.47637  0.84365  0.29178  1.0000
  H   H20       1.0  0.48900  0.82141  0.27842  1.0000
  H   H21       1.0  0.34783  0.82473  0.41874  1.0000
  H   H22       1.0  0.38291  0.84607  0.40532  1.0000
  N   N3        1.0  0.45022  0.85539  0.34506  1.0000
  C   C29       1.0  0.44118  0.86661  0.34346  1.0000
  C   C30       1.0  0.48829  0.95076  0.30895  1.0000
  H   H23       1.0  0.49929  0.95520  0.26462  1.0000
  H   H24       1.0  0.31985  0.78939  0.42453  1.0000
  C   C31       1.0  0.89045  0.44282  0.35025  1.0000
  C   C32       1.0  0.93303  0.46160  0.36561  1.0000
  C   C33       1.0  0.92078  0.44081  0.37347  1.0000
  C   C34       1.0  0.90003  0.43166  0.36535  1.0000
  C   C35       1.0  0.83208  0.36942  0.31498  1.0000
  C   C36       1.0  0.81893  0.34882  0.30707  1.0000
  C   C37       1.0  0.82181  0.47107  0.38470  1.0000
  C   C38       1.0  0.83459  0.46318  0.37572  1.0000
  H   H25       1.0  0.92686  0.43205  0.38624  1.0000
  H   H26       1.0  0.89197  0.41659  0.37280  1.0000
  H   H27       1.0  0.84645  0.37504  0.29456  1.0000
  H   H28       1.0  0.82424  0.34013  0.28193  1.0000
  H   H29       1.0  0.82688  0.48417  0.41857  1.0000
  H   H30       1.0  0.84835  0.47062  0.40454  1.0000
  N   N4        1.0  0.85790  0.41304  0.34607  1.0000
  C   C39       1.0  0.86922  0.43329  0.34547  1.0000
  C   C40       1.0  0.95337  0.47014  0.38044  1.0000
  H   H31       1.0  0.79176  0.47702  0.41978  1.0000
  C   C41       1.0  0.57023  0.45027  0.35022  1.0000
  C   C42       1.0  0.55145  0.47407  0.36562  1.0000
  C   C43       1.0  0.57224  0.48261  0.37344  1.0000
  C   C44       1.0  0.58139  0.47102  0.36529  1.0000
  C   C45       1.0  0.64364  0.46532  0.31504  1.0000
  C   C46       1.0  0.66424  0.47277  0.30716  1.0000
  C   C47       1.0  0.54198  0.35339  0.38461  1.0000
  C   C48       1.0  0.54988  0.37405  0.37576  1.0000
  H   H32       1.0  0.58100  0.49745  0.38616  1.0000
  H   H33       1.0  0.59646  0.47802  0.37270  1.0000
  H   H34       1.0  0.63802  0.47408  0.29476  1.0000
  H   H35       1.0  0.67293  0.48678  0.28216  1.0000
  H   H36       1.0  0.52884  0.34534  0.41827  1.0000
  H   H37       1.0  0.54240  0.38036  0.40421  1.0000
  N   N5        1.0  0.60001  0.44750  0.34605  1.0000
  C   C49       1.0  0.57976  0.43858  0.34546  1.0000
  C   C50       1.0  0.54290  0.48587  0.38052  1.0000
  H   H38       1.0  0.54949  0.49689  0.42471  1.0000
  H   H39       1.0  0.53598  0.31736  0.41955  1.0000
  C   C51       1.0  0.56277  0.12259  0.35029  1.0000
  C   C52       1.0  0.53897  0.08001  0.36559  1.0000
  C   C53       1.0  0.53043  0.09226  0.37340  1.0000
  C   C54       1.0  0.54202  0.11301  0.36534  1.0000
  C   C55       1.0  0.54772  0.18095  0.31505  1.0000
  C   C56       1.0  0.54028  0.19411  0.30705  1.0000
  C   C57       1.0  0.65967  0.19122  0.38455  1.0000
  C   C58       1.0  0.63900  0.17847  0.37584  1.0000
  H   H40       1.0  0.51558  0.08618  0.38605  1.0000
  H   H41       1.0  0.53502  0.12107  0.37268  1.0000
  H   H42       1.0  0.53900  0.16659  0.29434  1.0000
  H   H43       1.0  0.52631  0.18881  0.28168  1.0000
  H   H44       1.0  0.66772  0.18614  0.41821  1.0000
  H   H45       1.0  0.63269  0.16467  0.40425  1.0000
  N   N6        1.0  0.56554  0.15514  0.34616  1.0000
  C   C59       1.0  0.57447  0.14382  0.34556  1.0000
  C   C60       1.0  0.52717  0.05967  0.38034  1.0000
  H   H46       1.0  0.51613  0.05522  0.42450  1.0000
  H   H47       1.0  0.69570  0.22124  0.41948  1.0000
  C   C61       1.0  0.01883  0.51373  0.26670  1.0000
  H   H48       1.0  0.02668  0.51969  0.20877  1.0000
  C   C62       1.0  0.51835  0.49449  0.34130  1.0000
  C   C63       1.0  0.50947  0.49688  0.26260  1.0000
  C   C64       1.0  0.49934  0.50776  0.26668  1.0000
  H   H49       1.0  0.49338  0.50965  0.20876  1.0000
  N   N7        1.0  0.51118  0.48853  0.18070  1.0000
  O   O1        1.0  0.52018  0.50166  0.12198  1.0000
  O   O2        1.0  0.49444  0.47611  0.15028  1.0000
  N   N8        1.0  0.52782  0.48406  0.33646  1.0000
  C   C65       1.0  0.51858  0.02650  0.34128  1.0000
  C   C66       1.0  0.51619  0.01522  0.26259  1.0000
  C   C67       1.0  0.50531  0.99421  0.26670  1.0000
  H   H50       1.0  0.50343  0.98636  0.20879  1.0000
  N   N9        1.0  0.52454  0.02528  0.18070  1.0000
  O   O3        1.0  0.51141  0.02114  0.12196  1.0000
  O   O4        1.0  0.53696  0.02095  0.15028  1.0000
  N   N10       1.0  0.52900  0.04639  0.33641  1.0000
  C   C68       1.0  0.25855  0.54662  0.33902  1.0000
  C   C69       1.0  0.26938  0.54773  0.26053  1.0000
  C   C70       1.0  0.28733  0.54741  0.26872  1.0000
  H   H51       1.0  0.29540  0.54892  0.21191  1.0000
  N   N11       1.0  0.26226  0.54968  0.17556  1.0000
  O   O5        1.0  0.25904  0.53554  0.12430  1.0000
  O   O6        1.0  0.27437  0.56565  0.13767  1.0000
  N   N12       1.0  0.24314  0.54952  0.33177  1.0000
  C   C71       1.0  0.46643  0.71456  0.33902  1.0000
  C   C72       1.0  0.46531  0.72428  0.26053  1.0000
  C   C73       1.0  0.46563  0.74255  0.26869  1.0000
  H   H52       1.0  0.46412  0.74911  0.21186  1.0000
  N   N13       1.0  0.46336  0.71520  0.17557  1.0000
  O   O7        1.0  0.47750  0.72612  0.12428  1.0000
  O   O8        1.0  0.44738  0.71134  0.13769  1.0000
  N   N14       1.0  0.46351  0.69625  0.33183  1.0000
  C   C74       1.0  0.29848  0.75450  0.33898  1.0000
  C   C75       1.0  0.28875  0.74367  0.26049  1.0000
  C   C76       1.0  0.27048  0.72572  0.26866  1.0000
  H   H53       1.0  0.26391  0.71765  0.21184  1.0000
  N   N15       1.0  0.29781  0.75080  0.17551  1.0000
  O   O9        1.0  0.28688  0.75402  0.12430  1.0000
  O   O10       1.0  0.30167  0.73870  0.13756  1.0000
  N   N16       1.0  0.31678  0.76991  0.33173  1.0000
  C   C77       1.0  0.75696  0.46363  0.33394  1.0000
  C   C78       1.0  0.74611  0.46265  0.25572  1.0000
  C   C79       1.0  0.72813  0.46289  0.26445  1.0000
  H   H54       1.0  0.72005  0.46149  0.20780  1.0000
  N   N17       1.0  0.75325  0.46091  0.17042  1.0000
  O   O11       1.0  0.75643  0.47515  0.11991  1.0000
  O   O12       1.0  0.74116  0.44501  0.13194  1.0000
  N   N18       1.0  0.77245  0.46087  0.32598  1.0000
  C   C80       1.0  0.54943  0.29598  0.33400  1.0000
  C   C81       1.0  0.55043  0.28612  0.25578  1.0000
  C   C82       1.0  0.55017  0.26788  0.26451  1.0000
  H   H55       1.0  0.55160  0.26122  0.20788  1.0000
  N   N19       1.0  0.55221  0.29501  0.17051  1.0000
  O   O13       1.0  0.53798  0.28397  0.11989  1.0000
  O   O14       1.0  0.56812  0.29883  0.13214  1.0000
  N   N20       1.0  0.55220  0.31423  0.32608  1.0000
  C   C83       1.0  0.71707  0.25609  0.33396  1.0000
  C   C84       1.0  0.72693  0.26693  0.25572  1.0000
  C   C85       1.0  0.74516  0.28492  0.26439  1.0000
  H   H56       1.0  0.75182  0.29300  0.20773  1.0000
  N   N21       1.0  0.71803  0.25979  0.17045  1.0000
  O   O15       1.0  0.72908  0.25661  0.11988  1.0000
  O   O16       1.0  0.71421  0.27187  0.13201  1.0000
  N   N22       1.0  0.69882  0.24061  0.32610  1.0000
  C   C86       1.0  0.19016  0.62835  0.34864  1.0000
  C   C87       1.0  0.18800  0.56634  0.34263  1.0000
  C   C88       1.0  0.11290  0.54673  0.34664  1.0000
  C   C89       1.0  0.09203  0.53746  0.33944  1.0000
  C   C90       1.0  0.21686  0.67030  0.33331  1.0000
  C   C91       1.0  0.22323  0.65766  0.37010  1.0000
  C   C92       1.0  0.21016  0.63716  0.37741  1.0000
  C   C93       1.0  0.20777  0.57657  0.31007  1.0000
  C   C94       1.0  0.22031  0.56853  0.31758  1.0000
  C   C95       1.0  0.21363  0.54980  0.35815  1.0000
  H   H57       1.0  0.21570  0.62866  0.40252  1.0000
  H   H58       1.0  0.23769  0.66309  0.38865  1.0000
  H   H59       1.0  0.21359  0.59041  0.28235  1.0000
  H   H60       1.0  0.23467  0.57698  0.29634  1.0000
  C   C96       1.0  0.17653  0.57599  0.34402  1.0000
  N   N23       1.0  0.18651  0.59604  0.34694  1.0000
  C   C97       1.0  0.17780  0.60731  0.34826  1.0000
  N   N24       1.0  0.15632  0.56678  0.34343  1.0000
  H   H61       1.0  0.11904  0.53795  0.35644  1.0000
  C   C98       1.0  0.22668  0.54280  0.37500  1.0000
  H   H62       1.0  0.08382  0.52233  0.34305  1.0000
  C   C99       1.0  0.23025  0.69025  0.31684  1.0000
  H   H63       1.0  0.22761  0.69702  0.26633  1.0000
  C   C100      1.0  0.38469  0.56442  0.34881  1.0000
  C   C101      1.0  0.44667  0.62428  0.34286  1.0000
  C   C102      1.0  0.46631  0.56880  0.34661  1.0000
  C   C103      1.0  0.47558  0.55721  0.33941  1.0000
  C   C104      1.0  0.34273  0.54917  0.33346  1.0000
  C   C105      1.0  0.35537  0.56815  0.37052  1.0000
  C   C106      1.0  0.37587  0.57559  0.37783  1.0000
  C   C107      1.0  0.43641  0.63382  0.31054  1.0000
  C   C108      1.0  0.44446  0.65440  0.31805  1.0000
  C   C109      1.0  0.46323  0.66646  0.35824  1.0000
  H   H64       1.0  0.38436  0.58960  0.40310  1.0000
  H   H65       1.0  0.34994  0.57718  0.38922  1.0000
  H   H66       1.0  0.42257  0.62580  0.28290  1.0000
  H   H67       1.0  0.43601  0.66032  0.29685  1.0000
  C   C110      1.0  0.43704  0.60316  0.34415  1.0000
  N   N25       1.0  0.41698  0.59309  0.34707  1.0000
  C   C111      1.0  0.40572  0.57311  0.34828  1.0000
  N   N26       1.0  0.44625  0.59217  0.34346  1.0000
  H   H68       1.0  0.47509  0.58372  0.35649  1.0000
  C   C112      1.0  0.47026  0.68653  0.37496  1.0000
  H   H69       1.0  0.49071  0.56412  0.34313  1.0000
  C   C113      1.0  0.32280  0.54265  0.31683  1.0000
  H   H70       1.0  0.31605  0.53328  0.26618  1.0000
  C   C114      1.0  0.44859  0.82288  0.34865  1.0000
  C   C115      1.0  0.38875  0.82504  0.34259  1.0000
  C   C116      1.0  0.44426  0.90015  0.34664  1.0000
  C   C117      1.0  0.45585  0.92101  0.33950  1.0000
  C   C118      1.0  0.46384  0.79618  0.33336  1.0000
  C   C119      1.0  0.44484  0.78982  0.37022  1.0000
  C   C120      1.0  0.43741  0.80289  0.37758  1.0000
  C   C121      1.0  0.37921  0.80527  0.31000  1.0000
  C   C122      1.0  0.35862  0.79274  0.31745  1.0000
  C   C123      1.0  0.34657  0.79941  0.35807  1.0000
  H   H71       1.0  0.42339  0.79736  0.40275  1.0000
  H   H72       1.0  0.43582  0.77536  0.38894  1.0000
  H   H73       1.0  0.38722  0.79946  0.28218  1.0000
  H   H74       1.0  0.35271  0.77838  0.29619  1.0000
  C   C124      1.0  0.40987  0.83652  0.34398  1.0000
  N   N27       1.0  0.41993  0.82652  0.34688  1.0000
  C   C125      1.0  0.43991  0.83524  0.34816  1.0000
  N   N28       1.0  0.42087  0.85672  0.34337  1.0000
  H   H75       1.0  0.42933  0.89401  0.35651  1.0000
  C   C126      1.0  0.32653  0.78636  0.37500  1.0000
  H   H76       1.0  0.44894  0.92923  0.34319  1.0000
  C   C127      1.0  0.47038  0.78277  0.31680  1.0000
  H   H77       1.0  0.47978  0.78541  0.26627  1.0000
  C   C128      1.0  0.82530  0.38227  0.34453  1.0000
  C   C129      1.0  0.82792  0.44448  0.33504  1.0000
  C   C130      1.0  0.90283  0.46366  0.34172  1.0000
  C   C131      1.0  0.92368  0.47288  0.34895  1.0000
  C   C132      1.0  0.79864  0.34029  0.33032  1.0000
  C   C133      1.0  0.79205  0.35307  0.36309  1.0000
  C   C134      1.0  0.80510  0.37358  0.36994  1.0000
  C   C135      1.0  0.80845  0.43460  0.29895  1.0000
  C   C136      1.0  0.79583  0.44253  0.30689  1.0000
  C   C137      1.0  0.80210  0.46077  0.35163  1.0000
  H   H78       1.0  0.79942  0.38216  0.39221  1.0000
  H   H79       1.0  0.77746  0.34771  0.37920  1.0000
  H   H80       1.0  0.80290  0.42105  0.26852  1.0000
  H   H81       1.0  0.78165  0.43429  0.28313  1.0000
  C   C138      1.0  0.83928  0.43472  0.33736  1.0000
  N   N29       1.0  0.82915  0.41465  0.33929  1.0000
  C   C139      1.0  0.83774  0.40330  0.34392  1.0000
  N   N30       1.0  0.85945  0.44381  0.34188  1.0000
  H   H82       1.0  0.89675  0.47248  0.33095  1.0000
  C   C140      1.0  0.78888  0.46753  0.36938  1.0000
  H   H83       1.0  0.93195  0.48799  0.34437  1.0000
  C   C141      1.0  0.78532  0.32031  0.31422  1.0000
  H   H84       1.0  0.78818  0.31344  0.26497  1.0000
  C   C142      1.0  0.63079  0.44568  0.34451  1.0000
  C   C143      1.0  0.56858  0.38609  0.33508  1.0000
  C   C144      1.0  0.54939  0.44180  0.34174  1.0000
  C   C145      1.0  0.54017  0.45344  0.34900  1.0000
  C   C146      1.0  0.67277  0.46101  0.33037  1.0000
  C   C147      1.0  0.65999  0.44164  0.36311  1.0000
  C   C148      1.0  0.63948  0.43416  0.36982  1.0000
  C   C149      1.0  0.57848  0.37650  0.29908  1.0000
  C   C150      1.0  0.57055  0.35594  0.30713  1.0000
  C   C151      1.0  0.55229  0.34397  0.35170  1.0000
  H   H85       1.0  0.63089  0.41990  0.39202  1.0000
  H   H86       1.0  0.66535  0.43240  0.37905  1.0000
  H   H87       1.0  0.59203  0.38450  0.26879  1.0000
  H   H88       1.0  0.57880  0.35001  0.28344  1.0000
  C   C152      1.0  0.57834  0.40721  0.33736  1.0000
  N   N31       1.0  0.59840  0.41714  0.33930  1.0000
  C   C153      1.0  0.60976  0.43709  0.34392  1.0000
  N   N32       1.0  0.56924  0.41828  0.34187  1.0000
  H   H89       1.0  0.54057  0.42691  0.33101  1.0000
  C   C154      1.0  0.54552  0.32399  0.36938  1.0000
  H   H90       1.0  0.52505  0.44659  0.34447  1.0000
  C   C155      1.0  0.69275  0.46769  0.31436  1.0000
  H   H91       1.0  0.69962  0.47740  0.26500  1.0000
  C   C156      1.0  0.56734  0.18773  0.34474  1.0000
  C   C157      1.0  0.62695  0.18515  0.33532  1.0000
  C   C158      1.0  0.57124  0.11022  0.34181  1.0000
  C   C159      1.0  0.55960  0.08936  0.34903  1.0000
  C   C160      1.0  0.55202  0.21438  0.33052  1.0000
  C   C161      1.0  0.57137  0.22097  0.36353  1.0000
  C   C162      1.0  0.57885  0.20792  0.37027  1.0000
  C   C163      1.0  0.63653  0.20463  0.29937  1.0000
  C   C164      1.0  0.65709  0.21726  0.30738  1.0000
  C   C165      1.0  0.66907  0.21096  0.35179  1.0000
  H   H92       1.0  0.59310  0.21360  0.39263  1.0000
  H   H93       1.0  0.58060  0.23555  0.37960  1.0000
  H   H94       1.0  0.62853  0.21019  0.26905  1.0000
  H   H95       1.0  0.66304  0.23144  0.28360  1.0000
  C   C166      1.0  0.60584  0.17378  0.33764  1.0000
  N   N33       1.0  0.59589  0.18390  0.33953  1.0000
  C   C167      1.0  0.57594  0.17530  0.34408  1.0000
  N   N34       1.0  0.59476  0.15360  0.34203  1.0000
  H   H96       1.0  0.58614  0.11630  0.33108  1.0000
  C   C168      1.0  0.68906  0.22417  0.36939  1.0000
  H   H97       1.0  0.56645  0.08109  0.34444  1.0000
  C   C169      1.0  0.54537  0.22770  0.31434  1.0000
  H   H98       1.0  0.53571  0.22488  0.26478  1.0000
  C   C170      1.0  0.02911  0.51558  0.34805  1.0000
  C   C171      1.0  0.01783  0.50670  0.42675  1.0000
  N   N35       1.0  0.02789  0.50843  0.50867  1.0000
  O   O17       1.0  0.02376  0.51743  0.56734  1.0000
  O   O18       1.0  0.02357  0.49168  0.53915  1.0000
  N   N36       1.0  0.04901  0.52507  0.35295  1.0000
  C   C172      1.0  0.49749  0.51619  0.34804  1.0000
  C   C173      1.0  0.50636  0.51379  0.42675  1.0000
  C   C174      1.0  0.51649  0.50291  0.42266  1.0000
  H   H99       1.0  0.52245  0.50101  0.48059  1.0000
  N   N37       1.0  0.50463  0.52211  0.50867  1.0000
  O   O19       1.0  0.49562  0.50898  0.56733  1.0000
  O   O20       1.0  0.52137  0.53453  0.53917  1.0000
  N   N38       1.0  0.48799  0.52659  0.35294  1.0000
  C   C175      1.0  0.49688  0.98394  0.34806  1.0000
  C   C176      1.0  0.49928  0.99521  0.42675  1.0000
  C   C177      1.0  0.51016  0.01622  0.42265  1.0000
  H   H100      1.0  0.51205  0.02407  0.48056  1.0000
  N   N39       1.0  0.49095  0.98516  0.50867  1.0000
  O   O21       1.0  0.50409  0.98929  0.56736  1.0000
  O   O22       1.0  0.47853  0.98948  0.53915  1.0000
  N   N40       1.0  0.48648  0.96404  0.35299  1.0000
  C   C178      1.0  0.29500  0.54655  0.35383  1.0000
  C   C179      1.0  0.28448  0.54606  0.43244  1.0000
  C   C180      1.0  0.26623  0.54580  0.42416  1.0000
  H   H101      1.0  0.25909  0.54614  0.48136  1.0000
  N   N41       1.0  0.29273  0.54633  0.51777  1.0000
  O   O23       1.0  0.28140  0.53117  0.56286  1.0000
  O   O24       1.0  0.29610  0.56143  0.56227  1.0000
  N   N42       1.0  0.31326  0.54934  0.36183  1.0000
  C   C181      1.0  0.46648  0.75108  0.35379  1.0000
  C   C182      1.0  0.46698  0.74106  0.43241  1.0000
  C   C183      1.0  0.46725  0.72307  0.42415  1.0000
  H   H102      1.0  0.46691  0.71559  0.48136  1.0000
  N   N43       1.0  0.46671  0.74904  0.51774  1.0000
  O   O25       1.0  0.48187  0.75287  0.56283  1.0000
  O   O26       1.0  0.45161  0.73731  0.56224  1.0000
  N   N44       1.0  0.46368  0.76654  0.36176  1.0000
  C   C184      1.0  0.26196  0.71804  0.35378  1.0000
  C   C185      1.0  0.27199  0.72855  0.43239  1.0000
  C   C186      1.0  0.28998  0.74680  0.42412  1.0000
  H   H103      1.0  0.29746  0.75394  0.48133  1.0000
  N   N45       1.0  0.26401  0.72029  0.51773  1.0000
  O   O27       1.0  0.26019  0.73162  0.56287  1.0000
  O   O28       1.0  0.27576  0.71692  0.56216  1.0000
  N   N46       1.0  0.24650  0.69978  0.36174  1.0000
  C   C187      1.0  0.72046  0.46357  0.34983  1.0000
  C   C188      1.0  0.73100  0.46393  0.42816  1.0000
  C   C189      1.0  0.74927  0.46426  0.41935  1.0000
  H   H104      1.0  0.75643  0.46384  0.47633  1.0000
  N   N47       1.0  0.72275  0.46350  0.51370  1.0000
  O   O29       1.0  0.73407  0.47859  0.55921  1.0000
  O   O30       1.0  0.71943  0.44834  0.55756  1.0000
  N   N48       1.0  0.70217  0.46069  0.35807  1.0000
  C   C190      1.0  0.54947  0.25952  0.34989  1.0000
  C   C191      1.0  0.54908  0.26969  0.42821  1.0000
  C   C192      1.0  0.54877  0.28764  0.41941  1.0000
  H   H105      1.0  0.54917  0.29521  0.47639  1.0000
  N   N49       1.0  0.54948  0.26186  0.51377  1.0000
  O   O31       1.0  0.53438  0.25808  0.55917  1.0000
  O   O32       1.0  0.56463  0.27369  0.55772  1.0000
  N   N50       1.0  0.55233  0.24411  0.35817  1.0000
  C   C193      1.0  0.75351  0.29259  0.34975  1.0000
  C   C194      1.0  0.74335  0.28206  0.42812  1.0000
  C   C195      1.0  0.72541  0.26378  0.41936  1.0000
  H   H106      1.0  0.71783  0.25662  0.47636  1.0000
  N   N51       1.0  0.75118  0.29031  0.51364  1.0000
  O   O33       1.0  0.75497  0.27900  0.55912  1.0000
  O   O34       1.0  0.73934  0.29362  0.55754  1.0000
  N   N52       1.0  0.76890  0.31088  0.35796  1.0000
  H   H107      1.0  0.95781  0.46355  0.42465  1.0000
  N   N53       1.0  0.96665  0.48523  0.33644  1.0000
  C   C196      1.0  0.98655  0.49471  0.34130  1.0000
  C   C197      1.0  0.99782  0.50360  0.26261  1.0000
  N   N54       1.0  0.98776  0.50188  0.18071  1.0000
  O   O35       1.0  0.99189  0.49289  0.12198  1.0000
  O   O36       1.0  0.99208  0.51863  0.15029  1.0000
  C   C198      1.0  0.99682  0.49657  0.42266  1.0000
  H   H108      1.0  0.98897  0.49060  0.48058  1.0000
