data_image0
_chemical_formula_structural       C2HC6H3CHC2HC6H3CHC2HC6H3CHCNCNCN4CNCNCN4C2NC2NHCH3CHC2NC2NHCH3CHC2NC2NHCH3CH
_chemical_formula_sum              "C51 H30 N18"
_cell_length_a       28.9783
_cell_length_b       28.9783
_cell_length_c       14.9827
_cell_angle_alpha    90
_cell_angle_beta     90
_cell_angle_gamma    120

_space_group_name_H-M_alt    "P 1"
_space_group_IT_number       1

loop_
  _space_group_symop_operation_xyz
  'x, y, z'

loop_
  _atom_site_type_symbol
  _atom_site_label
  _atom_site_symmetry_multiplicity
  _atom_site_fract_x
  _atom_site_fract_y
  _atom_site_fract_z
  _atom_site_occupancy
  C   C1        1.0  0.44077  0.50270  0.26163  1.0000
  C   C2        1.0  0.41104  0.52843  0.27649  1.0000
  H   H1        1.0  0.39128  0.53355  0.22405  1.0000
  C   C3        1.0  0.49417  0.46622  0.32396  1.0000
  C   C4        1.0  0.54556  0.40612  0.30479  1.0000
  C   C5        1.0  0.52207  0.41596  0.22993  1.0000
  C   C6        1.0  0.49642  0.44630  0.23834  1.0000
  C   C7        1.0  0.47190  0.45592  0.16486  1.0000
  C   C8        1.0  0.44440  0.48402  0.17638  1.0000
  H   H2        1.0  0.47301  0.44173  0.10282  1.0000
  H   H3        1.0  0.42607  0.48964  0.12247  1.0000
  H   H4        1.0  0.52286  0.40019  0.16907  1.0000
  C   C9        1.0  0.56667  0.37284  0.29762  1.0000
  H   H5        1.0  0.54510  0.33782  0.26735  1.0000
  C   C10       1.0  0.49878  0.93834  0.26179  1.0000
  C   C11       1.0  0.47304  0.88288  0.27669  1.0000
  H   H6        1.0  0.46787  0.85797  0.22428  1.0000
  C   C12       1.0  0.53525  0.02823  0.32403  1.0000
  C   C13       1.0  0.59534  0.13971  0.30476  1.0000
  C   C14       1.0  0.58549  0.10636  0.22992  1.0000
  C   C15       1.0  0.55515  0.05038  0.23839  1.0000
  C   C16       1.0  0.54552  0.01621  0.16494  1.0000
  C   C17       1.0  0.51743  0.96062  0.17651  1.0000
  H   H7        1.0  0.55967  0.03149  0.10288  1.0000
  H   H8        1.0  0.51178  0.93665  0.12262  1.0000
  H   H9        1.0  0.60123  0.12291  0.16904  1.0000
  C   C18       1.0  0.62857  0.19410  0.29752  1.0000
  H   H10       1.0  0.66359  0.20757  0.26722  1.0000
  C   C19       1.0  0.06307  0.56069  0.26153  1.0000
  C   C20       1.0  0.11853  0.59043  0.27640  1.0000
  H   H11       1.0  0.14342  0.61014  0.22394  1.0000
  C   C21       1.0  0.97319  0.50729  0.32383  1.0000
  C   C22       1.0  0.86171  0.45593  0.30464  1.0000
  C   C23       1.0  0.89504  0.47941  0.22978  1.0000
  C   C24       1.0  0.95103  0.50505  0.23821  1.0000
  C   C25       1.0  0.98518  0.52956  0.16473  1.0000
  C   C26       1.0  0.04077  0.55704  0.17626  1.0000
  H   H12       1.0  0.96988  0.52847  0.10270  1.0000
  H   H13       1.0  0.06473  0.57542  0.12237  1.0000
  H   H14       1.0  0.87848  0.47859  0.16891  1.0000
  C   C27       1.0  0.80732  0.43475  0.29741  1.0000
  H   H15       1.0  0.79384  0.45632  0.26721  1.0000
  C   C28       1.0  0.27975  0.64087  0.36202  1.0000
  N   N1        1.0  0.30637  0.61345  0.36133  1.0000
  C   C29       1.0  0.36058  0.63917  0.36217  1.0000
  N   N2        1.0  0.38799  0.69321  0.36148  1.0000
  C   C30       1.0  0.36228  0.72170  0.36223  1.0000
  N   N3        1.0  0.30824  0.69508  0.36139  1.0000
  N   N4        1.0  0.22712  0.61349  0.35789  1.0000
  N   N5        1.0  0.38753  0.77434  0.35813  1.0000
  N   N6        1.0  0.38797  0.61392  0.35801  1.0000
  C   C31       1.0  0.72194  0.36214  0.32479  1.0000
  N   N7        1.0  0.69333  0.38772  0.32532  1.0000
  C   C32       1.0  0.63929  0.36008  0.32487  1.0000
  N   N8        1.0  0.61371  0.30588  0.32539  1.0000
  C   C33       1.0  0.64135  0.27949  0.32487  1.0000
  N   N9        1.0  0.69555  0.30810  0.32531  1.0000
  N   N10       1.0  0.77462  0.38774  0.32635  1.0000
  N   N11       1.0  0.61428  0.22681  0.32647  1.0000
  N   N12       1.0  0.61369  0.38716  0.32648  1.0000
  C   C34       1.0  0.40633  0.54504  0.36307  1.0000
  C   C35       1.0  0.43300  0.53612  0.43481  1.0000
  N   N13       1.0  0.46128  0.51125  0.41751  1.0000
  C   C36       1.0  0.46620  0.49412  0.33554  1.0000
  C   C37       1.0  0.54295  0.42788  0.38773  1.0000
  N   N14       1.0  0.51745  0.45626  0.39446  1.0000
  H   H16       1.0  0.55840  0.42110  0.44432  1.0000
  C   C38       1.0  0.43208  0.55092  0.52915  1.0000
  H   H17       1.0  0.40933  0.57117  0.53911  1.0000
  H   H18       1.0  0.47279  0.57749  0.55186  1.0000
  H   H19       1.0  0.41444  0.51511  0.57046  1.0000
  C   C39       1.0  0.37238  0.56488  0.37523  1.0000
  H   H20       1.0  0.33533  0.53996  0.39536  1.0000
  C   C40       1.0  0.45642  0.86158  0.36329  1.0000
  C   C41       1.0  0.46536  0.89719  0.43500  1.0000
  N   N15       1.0  0.49024  0.95035  0.41765  1.0000
  C   C42       1.0  0.50737  0.97237  0.33567  1.0000
  C   C43       1.0  0.57356  0.11537  0.38771  1.0000
  N   N16       1.0  0.54522  0.06150  0.39449  1.0000
  H   H21       1.0  0.58037  0.13762  0.44428  1.0000
  C   C44       1.0  0.45054  0.88151  0.52934  1.0000
  H   H22       1.0  0.43028  0.83851  0.53934  1.0000
  H   H23       1.0  0.42397  0.89566  0.55201  1.0000
  H   H24       1.0  0.48634  0.89968  0.57068  1.0000
  C   C45       1.0  0.43656  0.80780  0.37550  1.0000
  H   H25       1.0  0.46147  0.79566  0.39564  1.0000
  C   C46       1.0  0.13986  0.59507  0.36296  1.0000
  C   C47       1.0  0.10427  0.56845  0.43470  1.0000
  N   N17       1.0  0.05110  0.54017  0.41739  1.0000
  C   C48       1.0  0.02905  0.53525  0.33543  1.0000
  C   C49       1.0  0.88607  0.45850  0.38758  1.0000
  N   N18       1.0  0.93994  0.48400  0.39432  1.0000
  H   H26       1.0  0.86383  0.44303  0.44416  1.0000
  C   C50       1.0  0.11997  0.56936  0.52904  1.0000
  H   H27       1.0  0.16297  0.59208  0.53899  1.0000
  H   H28       1.0  0.10581  0.52865  0.55178  1.0000
  H   H29       1.0  0.10183  0.58703  0.57034  1.0000
  C   C51       1.0  0.19364  0.62905  0.37510  1.0000
  H   H30       1.0  0.20576  0.66610  0.39523  1.0000
