data_image0
_chemical_formula_structural       C2H3C2H2C2H2CNCNCNC3NOC4HNO2C4HNO2C2H3C2H2C2H2CNCNCNC3NOC4HNO2C4HNO2C2H2C2HNC4HOC5H2C2HNC4HOC6H2CH2C3H2CH2C2H2NCNC4H2C2H2NCNC4H2C2H2C2H2C2H2C2H2C2H2C2H2CNCNCNCNCNCNC8H3NO2C8H3NO2C8H3NO2C2H2C2H2C2H2C2H2C2H2C2H2CNCNCNCNCNCNC8H3NO2C8H3NO2C8H3NO2
_chemical_formula_sum              "C168 H84 N36 O24"
_cell_length_a       44.1616
_cell_length_b       44.1616
_cell_length_c       14.7733
_cell_angle_alpha    90
_cell_angle_beta     90
_cell_angle_gamma    120

_space_group_name_H-M_alt    "P 1"
_space_group_IT_number       1

loop_
  _space_group_symop_operation_xyz
  'x, y, z'

loop_
  _atom_site_type_symbol
  _atom_site_label
  _atom_site_symmetry_multiplicity
  _atom_site_fract_x
  _atom_site_fract_y
  _atom_site_fract_z
  _atom_site_occupancy
  C   C1        1.0  0.22786  0.26368  0.27801  1.0000
  C   C2        1.0  0.20954  0.28215  0.27991  1.0000
  H   H1        1.0  0.22498  0.24854  0.22265  1.0000
  H   H2        1.0  0.19383  0.27975  0.22622  1.0000
  H   H3        1.0  0.22718  0.19920  0.30347  1.0000
  C   C3        1.0  0.24533  0.46943  0.27047  1.0000
  C   C4        1.0  0.22716  0.43263  0.27074  1.0000
  H   H4        1.0  0.22307  0.41966  0.21054  1.0000
  H   H5        1.0  0.23314  0.03146  0.27459  1.0000
  C   C5        1.0  0.04904  0.28914  0.28257  1.0000
  C   C6        1.0  0.08583  0.30770  0.28162  1.0000
  H   H6        1.0  0.03608  0.29081  0.22709  1.0000
  H   H7        1.0  0.09847  0.32235  0.22582  1.0000
  C   C7        1.0  0.19568  0.37699  0.35007  1.0000
  N   N1        1.0  0.16014  0.35924  0.35037  1.0000
  C   C8        1.0  0.14196  0.32370  0.35105  1.0000
  N   N2        1.0  0.15980  0.30598  0.35180  1.0000
  C   C9        1.0  0.19533  0.32326  0.35159  1.0000
  N   N3        1.0  0.21305  0.35883  0.35150  1.0000
  C   C10       1.0  0.21354  0.30449  0.35300  1.0000
  C   C11       1.0  0.23573  0.30747  0.42602  1.0000
  C   C12       1.0  0.25053  0.26658  0.34939  1.0000
  N   N4        1.0  0.23821  0.32815  0.50201  1.0000
  O   O1        1.0  0.22696  0.30987  0.57243  1.0000
  C   C13       1.0  0.21429  0.41386  0.35241  1.0000
  C   C14       1.0  0.22009  0.43243  0.43489  1.0000
  C   C15       1.0  0.23919  0.46951  0.43379  1.0000
  C   C16       1.0  0.25182  0.48838  0.35206  1.0000
  H   H8        1.0  0.24325  0.48281  0.49344  1.0000
  N   N5        1.0  0.20667  0.41355  0.51651  1.0000
  O   O2        1.0  0.18513  0.42055  0.55266  1.0000
  O   O3        1.0  0.23065  0.42002  0.57223  1.0000
  C   C17       1.0  0.10504  0.30534  0.35498  1.0000
  C   C18       1.0  0.08680  0.28461  0.43106  1.0000
  C   C19       1.0  0.04972  0.26621  0.43102  1.0000
  C   C20       1.0  0.03021  0.26792  0.35712  1.0000
  H   H9        1.0  0.03690  0.25190  0.48706  1.0000
  N   N6        1.0  0.10595  0.28383  0.50709  1.0000
  O   O4        1.0  0.09958  0.29639  0.57603  1.0000
  O   O5        1.0  0.09928  0.25328  0.52472  1.0000
  C   C21       1.0  0.22786  0.76368  0.27802  1.0000
  C   C22       1.0  0.20954  0.78215  0.27992  1.0000
  H   H10       1.0  0.22497  0.74854  0.22265  1.0000
  H   H11       1.0  0.19382  0.77974  0.22623  1.0000
  H   H12       1.0  0.22718  0.69920  0.30348  1.0000
  C   C23       1.0  0.24531  0.96943  0.27046  1.0000
  C   C24       1.0  0.22714  0.93263  0.27073  1.0000
  H   H13       1.0  0.22304  0.91965  0.21052  1.0000
  H   H14       1.0  0.23314  0.53146  0.27461  1.0000
  C   C25       1.0  0.04904  0.78914  0.28256  1.0000
  C   C26       1.0  0.08583  0.80769  0.28160  1.0000
  H   H15       1.0  0.03609  0.79080  0.22706  1.0000
  H   H16       1.0  0.09847  0.82233  0.22579  1.0000
  C   C27       1.0  0.19567  0.87698  0.35006  1.0000
  N   N7        1.0  0.16014  0.85924  0.35036  1.0000
  C   C28       1.0  0.14196  0.82369  0.35105  1.0000
  N   N8        1.0  0.15980  0.80598  0.35180  1.0000
  C   C29       1.0  0.19533  0.82326  0.35160  1.0000
  N   N9        1.0  0.21305  0.85883  0.35151  1.0000
  C   C30       1.0  0.21354  0.80449  0.35301  1.0000
  C   C31       1.0  0.23573  0.80747  0.42602  1.0000
  C   C32       1.0  0.25053  0.76658  0.34939  1.0000
  N   N10       1.0  0.23821  0.82816  0.50201  1.0000
  O   O6        1.0  0.22696  0.80987  0.57243  1.0000
  C   C33       1.0  0.21429  0.91386  0.35241  1.0000
  C   C34       1.0  0.22011  0.93242  0.43490  1.0000
  C   C35       1.0  0.23921  0.96951  0.43380  1.0000
  C   C36       1.0  0.25182  0.98837  0.35206  1.0000
  H   H17       1.0  0.24328  0.98281  0.49345  1.0000
  N   N11       1.0  0.20670  0.91355  0.51653  1.0000
  O   O7        1.0  0.18517  0.92054  0.55272  1.0000
  O   O8        1.0  0.23070  0.92002  0.57221  1.0000
  C   C37       1.0  0.10504  0.80534  0.35497  1.0000
  C   C38       1.0  0.08680  0.78462  0.43106  1.0000
  C   C39       1.0  0.04972  0.76621  0.43102  1.0000
  C   C40       1.0  0.03021  0.76792  0.35711  1.0000
  H   H18       1.0  0.03690  0.75190  0.48706  1.0000
  N   N12       1.0  0.10595  0.78384  0.50710  1.0000
  O   O9        1.0  0.09957  0.79641  0.57602  1.0000
  O   O10       1.0  0.09928  0.75329  0.52474  1.0000
  C   C41       1.0  0.27152  0.19399  0.32070  1.0000
  C   C42       1.0  0.25307  0.21240  0.32084  1.0000
  H   H19       1.0  0.25841  0.16827  0.30171  1.0000
  H   H20       1.0  0.25430  0.48232  0.21021  1.0000
  C   C43       1.0  0.27481  0.08128  0.30841  1.0000
  C   C44       1.0  0.25673  0.04444  0.30712  1.0000
  H   H21       1.0  0.26398  0.09392  0.27532  1.0000
  N   N13       1.0  0.30896  0.15612  0.34693  1.0000
  C   C45       1.0  0.25384  0.28851  0.42320  1.0000
  C   C46       1.0  0.26939  0.24795  0.34730  1.0000
  C   C47       1.0  0.30510  0.26443  0.37220  1.0000
  C   C48       1.0  0.30725  0.21045  0.34569  1.0000
  H   H22       1.0  0.26920  0.29040  0.47721  1.0000
  O   O11       1.0  0.26915  0.35202  0.51554  1.0000
  C   C49       1.0  0.27039  0.02558  0.35187  1.0000
  C   C50       1.0  0.30288  0.04459  0.39667  1.0000
  C   C51       1.0  0.30765  0.10051  0.35195  1.0000
  C   C52       1.0  0.27152  0.69399  0.32071  1.0000
  C   C53       1.0  0.25307  0.71240  0.32084  1.0000
  H   H23       1.0  0.25841  0.66827  0.30172  1.0000
  H   H24       1.0  0.25426  0.98232  0.21019  1.0000
  C   C54       1.0  0.27481  0.58127  0.30842  1.0000
  C   C55       1.0  0.25673  0.54444  0.30714  1.0000
  H   H25       1.0  0.26397  0.59392  0.27534  1.0000
  N   N14       1.0  0.30896  0.65611  0.34693  1.0000
  C   C56       1.0  0.25384  0.78851  0.42320  1.0000
  C   C57       1.0  0.26939  0.74795  0.34730  1.0000
  C   C58       1.0  0.30509  0.76443  0.37220  1.0000
  C   C59       1.0  0.30724  0.71045  0.34569  1.0000
  H   H26       1.0  0.26920  0.79040  0.47721  1.0000
  O   O12       1.0  0.26915  0.85202  0.51553  1.0000
  C   C60       1.0  0.27039  0.52558  0.35187  1.0000
  C   C61       1.0  0.30288  0.54459  0.39666  1.0000
  C   C62       1.0  0.30765  0.60051  0.35195  1.0000
  C   C63       1.0  0.32616  0.13778  0.35199  1.0000
  C   C64       1.0  0.32587  0.19171  0.34741  1.0000
  C   C65       1.0  0.32366  0.24617  0.37084  1.0000
  H   H27       1.0  0.31820  0.29023  0.39056  1.0000
  H   H28       1.0  0.34934  0.25931  0.39021  1.0000
  C   C66       1.0  0.32146  0.08143  0.39540  1.0000
  H   H29       1.0  0.31360  0.03172  0.42927  1.0000
  H   H30       1.0  0.34491  0.09420  0.42859  1.0000
  C   C67       1.0  0.32616  0.63778  0.35199  1.0000
  C   C68       1.0  0.32587  0.69171  0.34741  1.0000
  C   C69       1.0  0.32366  0.74617  0.37083  1.0000
  H   H31       1.0  0.31820  0.79023  0.39055  1.0000
  H   H32       1.0  0.34934  0.75931  0.39021  1.0000
  C   C70       1.0  0.32146  0.58143  0.39539  1.0000
  H   H33       1.0  0.31360  0.53172  0.42925  1.0000
  H   H34       1.0  0.34491  0.59420  0.42857  1.0000
  C   C71       1.0  0.43653  0.24647  0.33120  1.0000
  C   C72       1.0  0.47335  0.26501  0.33042  1.0000
  H   H35       1.0  0.42382  0.25922  0.31002  1.0000
  H   H36       1.0  0.48590  0.29065  0.31067  1.0000
  N   N15       1.0  0.36169  0.15635  0.35701  1.0000
  C   C73       1.0  0.38011  0.19195  0.35634  1.0000
  N   N16       1.0  0.36141  0.20878  0.35183  1.0000
  C   C74       1.0  0.49275  0.24903  0.35801  1.0000
  C   C75       1.0  0.47375  0.21367  0.38612  1.0000
  C   C76       1.0  0.43691  0.19495  0.38554  1.0000
  C   C77       1.0  0.41745  0.21095  0.35825  1.0000
  H   H37       1.0  0.48663  0.20085  0.40544  1.0000
  H   H38       1.0  0.42444  0.16940  0.40599  1.0000
  C   C78       1.0  0.43653  0.74646  0.33118  1.0000
  C   C79       1.0  0.47335  0.76501  0.33040  1.0000
  H   H39       1.0  0.42382  0.75922  0.30999  1.0000
  H   H40       1.0  0.48590  0.79065  0.31064  1.0000
  N   N17       1.0  0.36169  0.65635  0.35700  1.0000
  C   C80       1.0  0.38011  0.69195  0.35633  1.0000
  N   N18       1.0  0.36141  0.70878  0.35183  1.0000
  C   C81       1.0  0.49275  0.74903  0.35801  1.0000
  C   C82       1.0  0.47375  0.71367  0.38613  1.0000
  C   C83       1.0  0.43690  0.69495  0.38554  1.0000
  C   C84       1.0  0.41745  0.71095  0.35824  1.0000
  H   H41       1.0  0.48662  0.70085  0.40546  1.0000
  H   H42       1.0  0.42443  0.66940  0.40600  1.0000
  C   C85       1.0  0.72786  0.26368  0.27801  1.0000
  C   C86       1.0  0.70954  0.28215  0.27991  1.0000
  H   H43       1.0  0.72498  0.24854  0.22265  1.0000
  H   H44       1.0  0.69383  0.27975  0.22622  1.0000
  C   C87       1.0  0.77152  0.19399  0.32070  1.0000
  C   C88       1.0  0.75307  0.21240  0.32084  1.0000
  H   H45       1.0  0.75841  0.16827  0.30171  1.0000
  H   H46       1.0  0.72718  0.19920  0.30347  1.0000
  C   C89       1.0  0.74533  0.46943  0.27047  1.0000
  C   C90       1.0  0.72716  0.43263  0.27074  1.0000
  H   H47       1.0  0.75430  0.48232  0.21021  1.0000
  H   H48       1.0  0.72307  0.41966  0.21054  1.0000
  C   C91       1.0  0.77481  0.08128  0.30841  1.0000
  C   C92       1.0  0.75673  0.04444  0.30712  1.0000
  H   H49       1.0  0.76398  0.09392  0.27532  1.0000
  H   H50       1.0  0.73314  0.03146  0.27459  1.0000
  C   C93       1.0  0.54904  0.28914  0.28257  1.0000
  C   C94       1.0  0.58583  0.30770  0.28162  1.0000
  H   H51       1.0  0.53609  0.29081  0.22709  1.0000
  H   H52       1.0  0.59847  0.32235  0.22582  1.0000
  C   C95       1.0  0.93653  0.24647  0.33120  1.0000
  C   C96       1.0  0.97335  0.26501  0.33042  1.0000
  H   H53       1.0  0.92382  0.25922  0.31002  1.0000
  H   H54       1.0  0.98590  0.29065  0.31067  1.0000
  C   C97       1.0  0.69568  0.37699  0.35007  1.0000
  N   N19       1.0  0.66014  0.35924  0.35037  1.0000
  C   C98       1.0  0.64196  0.32370  0.35105  1.0000
  N   N20       1.0  0.65980  0.30598  0.35180  1.0000
  C   C99       1.0  0.69533  0.32326  0.35159  1.0000
  N   N21       1.0  0.71305  0.35883  0.35150  1.0000
  C   C100      1.0  0.82616  0.13778  0.35199  1.0000
  N   N22       1.0  0.86169  0.15635  0.35701  1.0000
  C   C101      1.0  0.88011  0.19195  0.35634  1.0000
  N   N23       1.0  0.86141  0.20878  0.35183  1.0000
  C   C102      1.0  0.82587  0.19171  0.34741  1.0000
  N   N24       1.0  0.80896  0.15612  0.34693  1.0000
  C   C103      1.0  0.71354  0.30449  0.35300  1.0000
  C   C104      1.0  0.73573  0.30747  0.42602  1.0000
  C   C105      1.0  0.75384  0.28851  0.42320  1.0000
  C   C106      1.0  0.75053  0.26658  0.34939  1.0000
  C   C107      1.0  0.76939  0.24795  0.34730  1.0000
  C   C108      1.0  0.80510  0.26443  0.37220  1.0000
  C   C109      1.0  0.82366  0.24617  0.37084  1.0000
  C   C110      1.0  0.80725  0.21045  0.34569  1.0000
  H   H55       1.0  0.81820  0.29023  0.39056  1.0000
  H   H56       1.0  0.84933  0.25931  0.39021  1.0000
  H   H57       1.0  0.76920  0.29040  0.47721  1.0000
  N   N25       1.0  0.73821  0.32815  0.50201  1.0000
  O   O13       1.0  0.72696  0.30987  0.57243  1.0000
  O   O14       1.0  0.76915  0.35202  0.51554  1.0000
  C   C111      1.0  0.71429  0.41386  0.35241  1.0000
  C   C112      1.0  0.72009  0.43243  0.43489  1.0000
  C   C113      1.0  0.73919  0.46951  0.43379  1.0000
  C   C114      1.0  0.75182  0.48838  0.35206  1.0000
  C   C115      1.0  0.77039  0.02558  0.35187  1.0000
  C   C116      1.0  0.80288  0.04459  0.39667  1.0000
  C   C117      1.0  0.82146  0.08143  0.39540  1.0000
  C   C118      1.0  0.80765  0.10051  0.35195  1.0000
  H   H58       1.0  0.81359  0.03172  0.42927  1.0000
  H   H59       1.0  0.84491  0.09420  0.42859  1.0000
  H   H60       1.0  0.74325  0.48281  0.49344  1.0000
  N   N26       1.0  0.70667  0.41355  0.51651  1.0000
  O   O15       1.0  0.68513  0.42055  0.55266  1.0000
  O   O16       1.0  0.73065  0.42002  0.57223  1.0000
  C   C119      1.0  0.60504  0.30534  0.35498  1.0000
  C   C120      1.0  0.58680  0.28461  0.43106  1.0000
  C   C121      1.0  0.54972  0.26621  0.43102  1.0000
  C   C122      1.0  0.53021  0.26792  0.35712  1.0000
  C   C123      1.0  0.99275  0.24903  0.35801  1.0000
  C   C124      1.0  0.97375  0.21367  0.38612  1.0000
  C   C125      1.0  0.93691  0.19495  0.38554  1.0000
  C   C126      1.0  0.91745  0.21095  0.35825  1.0000
  H   H61       1.0  0.98663  0.20085  0.40544  1.0000
  H   H62       1.0  0.92444  0.16940  0.40599  1.0000
  H   H63       1.0  0.53690  0.25190  0.48706  1.0000
  N   N27       1.0  0.60595  0.28383  0.50709  1.0000
  O   O17       1.0  0.59957  0.29639  0.57603  1.0000
  O   O18       1.0  0.59928  0.25328  0.52472  1.0000
  C   C127      1.0  0.72786  0.76368  0.27802  1.0000
  C   C128      1.0  0.70954  0.78215  0.27992  1.0000
  H   H64       1.0  0.72497  0.74854  0.22265  1.0000
  H   H65       1.0  0.69382  0.77974  0.22623  1.0000
  C   C129      1.0  0.77152  0.69399  0.32071  1.0000
  C   C130      1.0  0.75307  0.71240  0.32084  1.0000
  H   H66       1.0  0.75841  0.66827  0.30172  1.0000
  H   H67       1.0  0.72718  0.69920  0.30348  1.0000
  C   C131      1.0  0.74531  0.96943  0.27046  1.0000
  C   C132      1.0  0.72714  0.93263  0.27073  1.0000
  H   H68       1.0  0.75426  0.98232  0.21019  1.0000
  H   H69       1.0  0.72304  0.91965  0.21052  1.0000
  C   C133      1.0  0.77481  0.58127  0.30842  1.0000
  C   C134      1.0  0.75673  0.54444  0.30714  1.0000
  H   H70       1.0  0.76397  0.59392  0.27534  1.0000
  H   H71       1.0  0.73314  0.53146  0.27461  1.0000
  C   C135      1.0  0.54904  0.78914  0.28256  1.0000
  C   C136      1.0  0.58583  0.80769  0.28160  1.0000
  H   H72       1.0  0.53609  0.79080  0.22706  1.0000
  H   H73       1.0  0.59847  0.82233  0.22579  1.0000
  C   C137      1.0  0.93653  0.74646  0.33118  1.0000
  C   C138      1.0  0.97335  0.76501  0.33040  1.0000
  H   H74       1.0  0.92382  0.75922  0.30999  1.0000
  H   H75       1.0  0.98590  0.79065  0.31064  1.0000
  C   C139      1.0  0.69567  0.87698  0.35006  1.0000
  N   N28       1.0  0.66014  0.85924  0.35036  1.0000
  C   C140      1.0  0.64196  0.82369  0.35105  1.0000
  N   N29       1.0  0.65980  0.80598  0.35180  1.0000
  C   C141      1.0  0.69533  0.82326  0.35160  1.0000
  N   N30       1.0  0.71305  0.85883  0.35151  1.0000
  C   C142      1.0  0.82616  0.63778  0.35199  1.0000
  N   N31       1.0  0.86169  0.65635  0.35700  1.0000
  C   C143      1.0  0.88011  0.69195  0.35633  1.0000
  N   N32       1.0  0.86141  0.70878  0.35183  1.0000
  C   C144      1.0  0.82587  0.69171  0.34741  1.0000
  N   N33       1.0  0.80895  0.65611  0.34693  1.0000
  C   C145      1.0  0.71354  0.80449  0.35301  1.0000
  C   C146      1.0  0.73573  0.80747  0.42602  1.0000
  C   C147      1.0  0.75384  0.78851  0.42320  1.0000
  C   C148      1.0  0.75053  0.76658  0.34939  1.0000
  C   C149      1.0  0.76939  0.74795  0.34730  1.0000
  C   C150      1.0  0.80510  0.76443  0.37220  1.0000
  C   C151      1.0  0.82366  0.74617  0.37083  1.0000
  C   C152      1.0  0.80724  0.71045  0.34569  1.0000
  H   H76       1.0  0.81820  0.79023  0.39055  1.0000
  H   H77       1.0  0.84934  0.75931  0.39021  1.0000
  H   H78       1.0  0.76920  0.79040  0.47721  1.0000
  N   N34       1.0  0.73821  0.82816  0.50201  1.0000
  O   O19       1.0  0.72696  0.80987  0.57243  1.0000
  O   O20       1.0  0.76915  0.85202  0.51553  1.0000
  C   C153      1.0  0.71429  0.91386  0.35241  1.0000
  C   C154      1.0  0.72011  0.93242  0.43490  1.0000
  C   C155      1.0  0.73921  0.96951  0.43380  1.0000
  C   C156      1.0  0.75182  0.98837  0.35206  1.0000
  C   C157      1.0  0.77039  0.52558  0.35187  1.0000
  C   C158      1.0  0.80288  0.54459  0.39666  1.0000
  C   C159      1.0  0.82146  0.58143  0.39539  1.0000
  C   C160      1.0  0.80765  0.60051  0.35195  1.0000
  H   H79       1.0  0.81360  0.53172  0.42925  1.0000
  H   H80       1.0  0.84491  0.59420  0.42857  1.0000
  H   H81       1.0  0.74328  0.98281  0.49345  1.0000
  N   N35       1.0  0.70670  0.91355  0.51653  1.0000
  O   O21       1.0  0.68517  0.92054  0.55272  1.0000
  O   O22       1.0  0.73070  0.92002  0.57221  1.0000
  C   C161      1.0  0.60504  0.80534  0.35497  1.0000
  C   C162      1.0  0.58680  0.78462  0.43106  1.0000
  C   C163      1.0  0.54972  0.76621  0.43102  1.0000
  C   C164      1.0  0.53021  0.76792  0.35711  1.0000
  C   C165      1.0  0.99275  0.74903  0.35801  1.0000
  C   C166      1.0  0.97375  0.71367  0.38613  1.0000
  C   C167      1.0  0.93690  0.69495  0.38554  1.0000
  C   C168      1.0  0.91745  0.71095  0.35824  1.0000
  H   H82       1.0  0.98663  0.70085  0.40546  1.0000
  H   H83       1.0  0.92443  0.66940  0.40600  1.0000
  H   H84       1.0  0.53690  0.75190  0.48706  1.0000
  N   N36       1.0  0.60595  0.78384  0.50710  1.0000
  O   O23       1.0  0.59957  0.79641  0.57602  1.0000
  O   O24       1.0  0.59928  0.75329  0.52474  1.0000
