data_image0
_chemical_formula_structural       NCHNCHNCHNC18H12NC18H12C2NC2NC2NC2NC2NC2N2CHNCHNCHNC18H12NC18H12C2NC2NC2NC2NC2NC2N2CHNCHNCHNC18H12NC18H12C2NC2NC2NC2NC2NC2N2CHNCHNCHNC18H12NC18H12C2NC2NC2NC2NC2NC2N
_chemical_formula_sum              "N44 C204 H108"
_cell_length_a       49.9368
_cell_length_b       49.9368
_cell_length_c       14.517
_cell_angle_alpha    90
_cell_angle_beta     90
_cell_angle_gamma    120

_space_group_name_H-M_alt    "P 1"
_space_group_IT_number       1

loop_
  _space_group_symop_operation_xyz
  'x, y, z'

loop_
  _atom_site_type_symbol
  _atom_site_label
  _atom_site_symmetry_multiplicity
  _atom_site_fract_x
  _atom_site_fract_y
  _atom_site_fract_z
  _atom_site_occupancy
  N   N1        1.0  0.28313  0.25814  0.29220  1.0000
  C   C1        1.0  0.26782  0.27415  0.28216  1.0000
  H   H1        1.0  0.26364  0.27882  0.21707  1.0000
  N   N2        1.0  0.27111  0.03438  0.30890  1.0000
  C   C2        1.0  0.25376  0.50309  0.30019  1.0000
  H   H2        1.0  0.23810  0.49445  0.24782  1.0000
  N   N3        1.0  0.50679  0.25998  0.29707  1.0000
  C   C3        1.0  0.03808  0.27557  0.28682  1.0000
  H   H3        1.0  0.04693  0.28154  0.22191  1.0000
  N   N4        1.0  0.19086  0.34999  0.36259  1.0000
  C   C4        1.0  0.20739  0.33345  0.36158  1.0000
  C   C5        1.0  0.20730  0.38308  0.36260  1.0000
  C   C6        1.0  0.15778  0.33344  0.36306  1.0000
  C   C7        1.0  0.14101  0.33260  0.44233  1.0000
  C   C8        1.0  0.10834  0.31623  0.44266  1.0000
  C   C9        1.0  0.09085  0.30028  0.36356  1.0000
  C   C10       1.0  0.10810  0.30130  0.28445  1.0000
  C   C11       1.0  0.14078  0.31740  0.28423  1.0000
  C   C12       1.0  0.22441  0.33376  0.28354  1.0000
  C   C13       1.0  0.24066  0.31733  0.28273  1.0000
  C   C14       1.0  0.24078  0.29987  0.35990  1.0000
  C   C15       1.0  0.22373  0.30003  0.43812  1.0000
  C   C16       1.0  0.20735  0.31631  0.43894  1.0000
  C   C17       1.0  0.22483  0.40005  0.43958  1.0000
  C   C18       1.0  0.24101  0.43272  0.43932  1.0000
  C   C19       1.0  0.24045  0.45011  0.36247  1.0000
  C   C20       1.0  0.22279  0.43259  0.28544  1.0000
  C   C21       1.0  0.20661  0.39991  0.28545  1.0000
  H   H4        1.0  0.25299  0.31890  0.22488  1.0000
  H   H5        1.0  0.22504  0.34609  0.22651  1.0000
  H   H6        1.0  0.19534  0.31568  0.49674  1.0000
  H   H7        1.0  0.22271  0.28787  0.49598  1.0000
  H   H8        1.0  0.15264  0.34391  0.50069  1.0000
  H   H9        1.0  0.09739  0.31656  0.50183  1.0000
  H   H10       1.0  0.22578  0.38857  0.49670  1.0000
  H   H11       1.0  0.25314  0.44373  0.49736  1.0000
  H   H12       1.0  0.22176  0.44333  0.22689  1.0000
  H   H13       1.0  0.19434  0.38833  0.22823  1.0000
  H   H14       1.0  0.15224  0.31747  0.22579  1.0000
  H   H15       1.0  0.09709  0.28971  0.22584  1.0000
  N   N5        1.0  0.35769  0.18334  0.36364  1.0000
  C   C22       1.0  0.34042  0.19927  0.36553  1.0000
  C   C23       1.0  0.34182  0.15025  0.36692  1.0000
  C   C24       1.0  0.39080  0.20015  0.36869  1.0000
  C   C25       1.0  0.40662  0.21999  0.44325  1.0000
  C   C26       1.0  0.43928  0.23683  0.44661  1.0000
  C   C27       1.0  0.45778  0.23413  0.37693  1.0000
  C   C28       1.0  0.44155  0.21441  0.30181  1.0000
  C   C29       1.0  0.40891  0.19793  0.29756  1.0000
  C   C30       1.0  0.31932  0.19439  0.43722  1.0000
  C   C31       1.0  0.30242  0.21011  0.43925  1.0000
  C   C32       1.0  0.30657  0.23249  0.37191  1.0000
  C   C33       1.0  0.32762  0.23696  0.29962  1.0000
  C   C34       1.0  0.34401  0.22066  0.29618  1.0000
  C   C35       1.0  0.33599  0.13437  0.45154  1.0000
  C   C36       1.0  0.31960  0.10174  0.45499  1.0000
  C   C37       1.0  0.30922  0.08335  0.37401  1.0000
  C   C38       1.0  0.31516  0.09971  0.28943  1.0000
  C   C39       1.0  0.33093  0.13237  0.28587  1.0000
  H   H16       1.0  0.28641  0.20429  0.49027  1.0000
  H   H17       1.0  0.31571  0.17885  0.48825  1.0000
  H   H18       1.0  0.35910  0.22486  0.24316  1.0000
  H   H19       1.0  0.33163  0.25265  0.24858  1.0000
  H   H20       1.0  0.39430  0.22268  0.49508  1.0000
  H   H21       1.0  0.44937  0.25187  0.50006  1.0000
  H   H22       1.0  0.34306  0.14664  0.51169  1.0000
  H   H23       1.0  0.31462  0.09165  0.51850  1.0000
  H   H24       1.0  0.30822  0.08790  0.22849  1.0000
  H   H25       1.0  0.33469  0.14317  0.22346  1.0000
  H   H26       1.0  0.39830  0.18402  0.24201  1.0000
  H   H27       1.0  0.45344  0.21151  0.24903  1.0000
  C   C40       1.0  0.28993  0.24939  0.37403  1.0000
  C   C41       1.0  0.25741  0.28302  0.36094  1.0000
  N   N6        1.0  0.26436  0.27446  0.44263  1.0000
  C   C42       1.0  0.27965  0.25847  0.45351  1.0000
  C   C43       1.0  0.28498  0.25435  0.53844  1.0000
  N   N7        1.0  0.28930  0.25075  0.61394  1.0000
  C   C44       1.0  0.29262  0.04981  0.37581  1.0000
  C   C45       1.0  0.25733  0.48363  0.36398  1.0000
  N   N8        1.0  0.27892  0.49909  0.43054  1.0000
  C   C46       1.0  0.29631  0.03035  0.44018  1.0000
  C   C47       1.0  0.31651  0.03977  0.50638  1.0000
  N   N9        1.0  0.33411  0.04774  0.56557  1.0000
  C   C48       1.0  0.49130  0.25096  0.37894  1.0000
  C   C49       1.0  0.05740  0.28377  0.36540  1.0000
  N   N10       1.0  0.04197  0.27467  0.44719  1.0000
  C   C50       1.0  0.51067  0.25915  0.45820  1.0000
  C   C51       1.0  0.50103  0.25127  0.54230  1.0000
  N   N11       1.0  0.49285  0.24455  0.61703  1.0000
  N   N12       1.0  0.28313  0.75814  0.29220  1.0000
  C   C52       1.0  0.26782  0.77415  0.28216  1.0000
  H   H28       1.0  0.26364  0.77882  0.21707  1.0000
  N   N13       1.0  0.27110  0.53438  0.30890  1.0000
  C   C53       1.0  0.25376  0.00310  0.30019  1.0000
  H   H29       1.0  0.23810  0.99445  0.24782  1.0000
  N   N14       1.0  0.50679  0.75999  0.29707  1.0000
  C   C54       1.0  0.03809  0.77557  0.28682  1.0000
  H   H30       1.0  0.04693  0.78154  0.22191  1.0000
  N   N15       1.0  0.19086  0.84999  0.36259  1.0000
  C   C55       1.0  0.20739  0.83345  0.36158  1.0000
  C   C56       1.0  0.20730  0.88308  0.36260  1.0000
  C   C57       1.0  0.15778  0.83344  0.36306  1.0000
  C   C58       1.0  0.14101  0.83260  0.44233  1.0000
  C   C59       1.0  0.10834  0.81623  0.44266  1.0000
  C   C60       1.0  0.09085  0.80028  0.36356  1.0000
  C   C61       1.0  0.10810  0.80129  0.28445  1.0000
  C   C62       1.0  0.14078  0.81740  0.28423  1.0000
  C   C63       1.0  0.22441  0.83376  0.28354  1.0000
  C   C64       1.0  0.24066  0.81733  0.28273  1.0000
  C   C65       1.0  0.24078  0.79987  0.35990  1.0000
  C   C66       1.0  0.22374  0.80004  0.43812  1.0000
  C   C67       1.0  0.20735  0.81631  0.43894  1.0000
  C   C68       1.0  0.22483  0.90005  0.43958  1.0000
  C   C69       1.0  0.24102  0.93272  0.43932  1.0000
  C   C70       1.0  0.24045  0.95011  0.36247  1.0000
  C   C71       1.0  0.22279  0.93259  0.28544  1.0000
  C   C72       1.0  0.20661  0.89991  0.28545  1.0000
  H   H31       1.0  0.25299  0.81891  0.22488  1.0000
  H   H32       1.0  0.22504  0.84608  0.22651  1.0000
  H   H33       1.0  0.19534  0.81568  0.49674  1.0000
  H   H34       1.0  0.22271  0.78787  0.49598  1.0000
  H   H35       1.0  0.15264  0.84391  0.50069  1.0000
  H   H36       1.0  0.09738  0.81656  0.50183  1.0000
  H   H37       1.0  0.22578  0.88857  0.49670  1.0000
  H   H38       1.0  0.25314  0.94373  0.49736  1.0000
  H   H39       1.0  0.22176  0.94333  0.22689  1.0000
  H   H40       1.0  0.19434  0.88833  0.22823  1.0000
  H   H41       1.0  0.15224  0.81747  0.22579  1.0000
  H   H42       1.0  0.09709  0.78971  0.22584  1.0000
  N   N16       1.0  0.35769  0.68334  0.36364  1.0000
  C   C73       1.0  0.34043  0.69927  0.36553  1.0000
  C   C74       1.0  0.34181  0.65025  0.36692  1.0000
  C   C75       1.0  0.39080  0.70015  0.36869  1.0000
  C   C76       1.0  0.40662  0.71999  0.44325  1.0000
  C   C77       1.0  0.43928  0.73682  0.44661  1.0000
  C   C78       1.0  0.45778  0.73413  0.37693  1.0000
  C   C79       1.0  0.44155  0.71441  0.30181  1.0000
  C   C80       1.0  0.40891  0.69793  0.29756  1.0000
  C   C81       1.0  0.31932  0.69439  0.43722  1.0000
  C   C82       1.0  0.30242  0.71011  0.43925  1.0000
  C   C83       1.0  0.30657  0.73249  0.37191  1.0000
  C   C84       1.0  0.32762  0.73696  0.29962  1.0000
  C   C85       1.0  0.34402  0.72066  0.29618  1.0000
  C   C86       1.0  0.33599  0.63438  0.45154  1.0000
  C   C87       1.0  0.31960  0.60174  0.45499  1.0000
  C   C88       1.0  0.30922  0.58335  0.37401  1.0000
  C   C89       1.0  0.31516  0.59971  0.28943  1.0000
  C   C90       1.0  0.33093  0.63237  0.28587  1.0000
  H   H43       1.0  0.28641  0.70430  0.49027  1.0000
  H   H44       1.0  0.31571  0.67885  0.48825  1.0000
  H   H45       1.0  0.35910  0.72486  0.24316  1.0000
  H   H46       1.0  0.33163  0.75265  0.24858  1.0000
  H   H47       1.0  0.39430  0.72268  0.49508  1.0000
  H   H48       1.0  0.44937  0.75187  0.50006  1.0000
  H   H49       1.0  0.34306  0.64664  0.51169  1.0000
  H   H50       1.0  0.31462  0.59165  0.51850  1.0000
  H   H51       1.0  0.30822  0.58789  0.22849  1.0000
  H   H52       1.0  0.33469  0.64317  0.22346  1.0000
  H   H53       1.0  0.39830  0.68402  0.24201  1.0000
  H   H54       1.0  0.45344  0.71151  0.24903  1.0000
  C   C91       1.0  0.28993  0.74939  0.37403  1.0000
  C   C92       1.0  0.25741  0.78302  0.36094  1.0000
  N   N17       1.0  0.26436  0.77447  0.44263  1.0000
  C   C93       1.0  0.27965  0.75847  0.45351  1.0000
  C   C94       1.0  0.28498  0.75435  0.53844  1.0000
  N   N18       1.0  0.28930  0.75075  0.61394  1.0000
  C   C95       1.0  0.29262  0.54982  0.37581  1.0000
  C   C96       1.0  0.25733  0.98364  0.36398  1.0000
  N   N19       1.0  0.27892  0.99908  0.43054  1.0000
  C   C97       1.0  0.29631  0.53036  0.44018  1.0000
  C   C98       1.0  0.31651  0.53978  0.50638  1.0000
  N   N20       1.0  0.33411  0.54774  0.56557  1.0000
  C   C99       1.0  0.49131  0.75096  0.37894  1.0000
  C   C100      1.0  0.05740  0.78377  0.36540  1.0000
  N   N21       1.0  0.04197  0.77467  0.44719  1.0000
  C   C101      1.0  0.51067  0.75915  0.45820  1.0000
  C   C102      1.0  0.50103  0.75127  0.54230  1.0000
  N   N22       1.0  0.49285  0.74455  0.61703  1.0000
  N   N23       1.0  0.78313  0.25814  0.29220  1.0000
  C   C103      1.0  0.76782  0.27415  0.28216  1.0000
  H   H55       1.0  0.76363  0.27882  0.21707  1.0000
  N   N24       1.0  0.77111  0.03438  0.30890  1.0000
  C   C104      1.0  0.75376  0.50309  0.30019  1.0000
  H   H56       1.0  0.73810  0.49445  0.24782  1.0000
  N   N25       1.0  0.00679  0.25998  0.29707  1.0000
  C   C105      1.0  0.53809  0.27557  0.28682  1.0000
  H   H57       1.0  0.54693  0.28154  0.22191  1.0000
  N   N26       1.0  0.69086  0.34999  0.36259  1.0000
  C   C106      1.0  0.70739  0.33345  0.36158  1.0000
  C   C107      1.0  0.70730  0.38308  0.36260  1.0000
  C   C108      1.0  0.65778  0.33344  0.36306  1.0000
  C   C109      1.0  0.64101  0.33260  0.44233  1.0000
  C   C110      1.0  0.60834  0.31623  0.44266  1.0000
  C   C111      1.0  0.59085  0.30028  0.36356  1.0000
  C   C112      1.0  0.60810  0.30130  0.28445  1.0000
  C   C113      1.0  0.64078  0.31740  0.28423  1.0000
  C   C114      1.0  0.72441  0.33376  0.28354  1.0000
  C   C115      1.0  0.74066  0.31733  0.28273  1.0000
  C   C116      1.0  0.74078  0.29987  0.35990  1.0000
  C   C117      1.0  0.72373  0.30003  0.43812  1.0000
  C   C118      1.0  0.70735  0.31631  0.43894  1.0000
  C   C119      1.0  0.72483  0.40005  0.43958  1.0000
  C   C120      1.0  0.74101  0.43272  0.43932  1.0000
  C   C121      1.0  0.74045  0.45011  0.36247  1.0000
  C   C122      1.0  0.72279  0.43259  0.28544  1.0000
  C   C123      1.0  0.70661  0.39991  0.28545  1.0000
  H   H58       1.0  0.75299  0.31890  0.22488  1.0000
  H   H59       1.0  0.72504  0.34609  0.22651  1.0000
  H   H60       1.0  0.69534  0.31568  0.49674  1.0000
  H   H61       1.0  0.72271  0.28787  0.49598  1.0000
  H   H62       1.0  0.65264  0.34391  0.50069  1.0000
  H   H63       1.0  0.59739  0.31656  0.50183  1.0000
  H   H64       1.0  0.72578  0.38857  0.49670  1.0000
  H   H65       1.0  0.75314  0.44373  0.49736  1.0000
  H   H66       1.0  0.72176  0.44333  0.22689  1.0000
  H   H67       1.0  0.69434  0.38833  0.22823  1.0000
  H   H68       1.0  0.65224  0.31747  0.22579  1.0000
  H   H69       1.0  0.59709  0.28971  0.22584  1.0000
  N   N27       1.0  0.85769  0.18334  0.36364  1.0000
  C   C124      1.0  0.84042  0.19927  0.36553  1.0000
  C   C125      1.0  0.84182  0.15025  0.36692  1.0000
  C   C126      1.0  0.89080  0.20015  0.36869  1.0000
  C   C127      1.0  0.90662  0.21999  0.44325  1.0000
  C   C128      1.0  0.93929  0.23683  0.44661  1.0000
  C   C129      1.0  0.95778  0.23413  0.37693  1.0000
  C   C130      1.0  0.94154  0.21441  0.30181  1.0000
  C   C131      1.0  0.90891  0.19793  0.29756  1.0000
  C   C132      1.0  0.81932  0.19439  0.43722  1.0000
  C   C133      1.0  0.80242  0.21011  0.43925  1.0000
  C   C134      1.0  0.80657  0.23249  0.37191  1.0000
  C   C135      1.0  0.82762  0.23696  0.29962  1.0000
  C   C136      1.0  0.84401  0.22066  0.29618  1.0000
  C   C137      1.0  0.83599  0.13437  0.45154  1.0000
  C   C138      1.0  0.81960  0.10174  0.45499  1.0000
  C   C139      1.0  0.80922  0.08335  0.37401  1.0000
  C   C140      1.0  0.81516  0.09971  0.28943  1.0000
  C   C141      1.0  0.83093  0.13237  0.28587  1.0000
  H   H70       1.0  0.78641  0.20429  0.49027  1.0000
  H   H71       1.0  0.81571  0.17885  0.48825  1.0000
  H   H72       1.0  0.85909  0.22486  0.24316  1.0000
  H   H73       1.0  0.83163  0.25265  0.24858  1.0000
  H   H74       1.0  0.89430  0.22268  0.49508  1.0000
  H   H75       1.0  0.94937  0.25187  0.50006  1.0000
  H   H76       1.0  0.84306  0.14664  0.51169  1.0000
  H   H77       1.0  0.81462  0.09165  0.51850  1.0000
  H   H78       1.0  0.80822  0.08790  0.22849  1.0000
  H   H79       1.0  0.83469  0.14317  0.22346  1.0000
  H   H80       1.0  0.89830  0.18402  0.24201  1.0000
  H   H81       1.0  0.95344  0.21151  0.24903  1.0000
  C   C142      1.0  0.78992  0.24939  0.37403  1.0000
  C   C143      1.0  0.75741  0.28302  0.36094  1.0000
  N   N28       1.0  0.76436  0.27446  0.44263  1.0000
  C   C144      1.0  0.77965  0.25847  0.45351  1.0000
  C   C145      1.0  0.78498  0.25435  0.53844  1.0000
  N   N29       1.0  0.78930  0.25075  0.61394  1.0000
  C   C146      1.0  0.79262  0.04981  0.37581  1.0000
  C   C147      1.0  0.75733  0.48363  0.36398  1.0000
  N   N30       1.0  0.77893  0.49909  0.43054  1.0000
  C   C148      1.0  0.79631  0.03035  0.44018  1.0000
  C   C149      1.0  0.81651  0.03977  0.50638  1.0000
  N   N31       1.0  0.83411  0.04774  0.56557  1.0000
  C   C150      1.0  0.99130  0.25096  0.37894  1.0000
  C   C151      1.0  0.55740  0.28377  0.36540  1.0000
  N   N32       1.0  0.54197  0.27467  0.44719  1.0000
  C   C152      1.0  0.01067  0.25915  0.45820  1.0000
  C   C153      1.0  0.00103  0.25127  0.54230  1.0000
  N   N33       1.0  0.99285  0.24455  0.61703  1.0000
  N   N34       1.0  0.78313  0.75814  0.29220  1.0000
  C   C154      1.0  0.76782  0.77415  0.28216  1.0000
  H   H82       1.0  0.76363  0.77882  0.21707  1.0000
  N   N35       1.0  0.77110  0.53438  0.30890  1.0000
  C   C155      1.0  0.75376  0.00310  0.30019  1.0000
  H   H83       1.0  0.73810  0.99445  0.24782  1.0000
  N   N36       1.0  0.00679  0.75999  0.29707  1.0000
  C   C156      1.0  0.53809  0.77557  0.28682  1.0000
  H   H84       1.0  0.54693  0.78154  0.22191  1.0000
  N   N37       1.0  0.69086  0.84999  0.36259  1.0000
  C   C157      1.0  0.70739  0.83345  0.36158  1.0000
  C   C158      1.0  0.70730  0.88308  0.36260  1.0000
  C   C159      1.0  0.65778  0.83344  0.36306  1.0000
  C   C160      1.0  0.64101  0.83260  0.44233  1.0000
  C   C161      1.0  0.60834  0.81623  0.44266  1.0000
  C   C162      1.0  0.59085  0.80028  0.36356  1.0000
  C   C163      1.0  0.60810  0.80129  0.28445  1.0000
  C   C164      1.0  0.64078  0.81740  0.28423  1.0000
  C   C165      1.0  0.72441  0.83376  0.28354  1.0000
  C   C166      1.0  0.74066  0.81733  0.28273  1.0000
  C   C167      1.0  0.74078  0.79987  0.35990  1.0000
  C   C168      1.0  0.72373  0.80004  0.43812  1.0000
  C   C169      1.0  0.70735  0.81631  0.43894  1.0000
  C   C170      1.0  0.72483  0.90005  0.43958  1.0000
  C   C171      1.0  0.74101  0.93272  0.43932  1.0000
  C   C172      1.0  0.74045  0.95011  0.36247  1.0000
  C   C173      1.0  0.72279  0.93259  0.28544  1.0000
  C   C174      1.0  0.70661  0.89991  0.28545  1.0000
  H   H85       1.0  0.75299  0.81891  0.22488  1.0000
  H   H86       1.0  0.72504  0.84608  0.22651  1.0000
  H   H87       1.0  0.69534  0.81568  0.49674  1.0000
  H   H88       1.0  0.72271  0.78787  0.49598  1.0000
  H   H89       1.0  0.65264  0.84391  0.50069  1.0000
  H   H90       1.0  0.59739  0.81656  0.50183  1.0000
  H   H91       1.0  0.72578  0.88857  0.49670  1.0000
  H   H92       1.0  0.75314  0.94373  0.49736  1.0000
  H   H93       1.0  0.72176  0.94333  0.22689  1.0000
  H   H94       1.0  0.69434  0.88833  0.22823  1.0000
  H   H95       1.0  0.65224  0.81747  0.22579  1.0000
  H   H96       1.0  0.59709  0.78971  0.22584  1.0000
  N   N38       1.0  0.85769  0.68334  0.36364  1.0000
  C   C175      1.0  0.84042  0.69927  0.36553  1.0000
  C   C176      1.0  0.84182  0.65025  0.36692  1.0000
  C   C177      1.0  0.89080  0.70015  0.36869  1.0000
  C   C178      1.0  0.90662  0.71999  0.44325  1.0000
  C   C179      1.0  0.93928  0.73682  0.44661  1.0000
  C   C180      1.0  0.95778  0.73413  0.37693  1.0000
  C   C181      1.0  0.94154  0.71441  0.30181  1.0000
  C   C182      1.0  0.90891  0.69793  0.29756  1.0000
  C   C183      1.0  0.81932  0.69439  0.43722  1.0000
  C   C184      1.0  0.80242  0.71011  0.43925  1.0000
  C   C185      1.0  0.80657  0.73249  0.37191  1.0000
  C   C186      1.0  0.82762  0.73696  0.29962  1.0000
  C   C187      1.0  0.84401  0.72066  0.29618  1.0000
  C   C188      1.0  0.83599  0.63438  0.45154  1.0000
  C   C189      1.0  0.81960  0.60174  0.45499  1.0000
  C   C190      1.0  0.80922  0.58335  0.37401  1.0000
  C   C191      1.0  0.81516  0.59971  0.28943  1.0000
  C   C192      1.0  0.83093  0.63237  0.28587  1.0000
  H   H97       1.0  0.78641  0.70430  0.49027  1.0000
  H   H98       1.0  0.81571  0.67885  0.48825  1.0000
  H   H99       1.0  0.85910  0.72486  0.24316  1.0000
  H   H100      1.0  0.83163  0.75265  0.24858  1.0000
  H   H101      1.0  0.89430  0.72268  0.49508  1.0000
  H   H102      1.0  0.94937  0.75187  0.50006  1.0000
  H   H103      1.0  0.84306  0.64664  0.51169  1.0000
  H   H104      1.0  0.81462  0.59165  0.51850  1.0000
  H   H105      1.0  0.80822  0.58789  0.22849  1.0000
  H   H106      1.0  0.83469  0.64317  0.22346  1.0000
  H   H107      1.0  0.89830  0.68402  0.24201  1.0000
  H   H108      1.0  0.95344  0.71151  0.24903  1.0000
  C   C193      1.0  0.78993  0.74939  0.37403  1.0000
  C   C194      1.0  0.75741  0.78302  0.36094  1.0000
  N   N39       1.0  0.76436  0.77447  0.44263  1.0000
  C   C195      1.0  0.77965  0.75847  0.45351  1.0000
  C   C196      1.0  0.78498  0.75435  0.53844  1.0000
  N   N40       1.0  0.78930  0.75075  0.61394  1.0000
  C   C197      1.0  0.79262  0.54982  0.37581  1.0000
  C   C198      1.0  0.75733  0.98364  0.36398  1.0000
  N   N41       1.0  0.77892  0.99908  0.43054  1.0000
  C   C199      1.0  0.79631  0.53036  0.44018  1.0000
  C   C200      1.0  0.81651  0.53978  0.50638  1.0000
  N   N42       1.0  0.83411  0.54774  0.56557  1.0000
  C   C201      1.0  0.99131  0.75096  0.37894  1.0000
  C   C202      1.0  0.55739  0.78377  0.36540  1.0000
  N   N43       1.0  0.54197  0.77467  0.44719  1.0000
  C   C203      1.0  0.01067  0.75915  0.45820  1.0000
  C   C204      1.0  0.00103  0.75127  0.54230  1.0000
  N   N44       1.0  0.99285  0.74455  0.61703  1.0000
