data_image0
_chemical_formula_structural       C7H4CNCH2CHC7H4CNCH2CHC3HNO2NC3HNO2NC3HNO2NC11H6NCNC2H2C11H6NCNC2H2C3HNO2NC3HNO2NC3HNO2N
_chemical_formula_sum              "C66 H36 N18 O12"
_cell_length_a       36.9716
_cell_length_b       36.9716
_cell_length_c       14.4885
_cell_angle_alpha    90
_cell_angle_beta     90
_cell_angle_gamma    120

_space_group_name_H-M_alt    "P 1"
_space_group_IT_number       1

loop_
  _space_group_symop_operation_xyz
  'x, y, z'

loop_
  _atom_site_type_symbol
  _atom_site_label
  _atom_site_symmetry_multiplicity
  _atom_site_fract_x
  _atom_site_fract_y
  _atom_site_fract_z
  _atom_site_occupancy
  C   C1        1.0  0.41134  0.64835  0.36830  1.0000
  C   C2        1.0  0.39578  0.77182  0.36830  1.0000
  C   C3        1.0  0.46439  0.61188  0.35983  1.0000
  C   C4        1.0  0.48127  0.65571  0.35859  1.0000
  C   C5        1.0  0.45538  0.67350  0.36296  1.0000
  C   C6        1.0  0.43967  0.79890  0.37007  1.0000
  C   C7        1.0  0.45753  0.84266  0.36598  1.0000
  H   H1        1.0  0.46936  0.70536  0.36119  1.0000
  H   H2        1.0  0.51289  0.67537  0.35406  1.0000
  H   H3        1.0  0.45941  0.78704  0.37369  1.0000
  H   H4        1.0  0.48940  0.86075  0.36633  1.0000
  C   C8        1.0  0.37751  0.72732  0.37032  1.0000
  N   N1        1.0  0.40141  0.70881  0.37015  1.0000
  C   C9        1.0  0.38512  0.66663  0.37033  1.0000
  H   H5        1.0  0.25710  0.68120  0.37359  1.0000
  H   H6        1.0  0.18339  0.63749  0.36621  1.0000
  C   C10       1.0  0.49101  0.59539  0.35289  1.0000
  H   H7        1.0  0.52048  0.61429  0.33337  1.0000
  C   C11       1.0  0.64307  0.38851  0.36594  1.0000
  C   C12       1.0  0.65564  0.26338  0.36614  1.0000
  C   C13       1.0  0.59199  0.42660  0.38512  1.0000
  C   C14       1.0  0.57436  0.38276  0.38941  1.0000
  C   C15       1.0  0.59931  0.36414  0.37938  1.0000
  C   C16       1.0  0.61170  0.23685  0.36072  1.0000
  C   C17       1.0  0.59299  0.19313  0.36987  1.0000
  H   H8        1.0  0.58500  0.33233  0.38453  1.0000
  H   H9        1.0  0.54302  0.36383  0.40110  1.0000
  H   H10       1.0  0.59256  0.24912  0.35130  1.0000
  H   H11       1.0  0.56111  0.17532  0.36772  1.0000
  C   C18       1.0  0.67470  0.30791  0.36155  1.0000
  N   N2        1.0  0.65148  0.32716  0.36187  1.0000
  C   C19       1.0  0.66853  0.36944  0.36145  1.0000
  H   H12       1.0  0.79501  0.35224  0.35156  1.0000
  H   H13       1.0  0.86880  0.39458  0.36799  1.0000
  C   C20       1.0  0.56694  0.44411  0.40155  1.0000
  H   H14       1.0  0.54382  0.43008  0.44708  1.0000
  C   C21       1.0  0.54891  0.49563  0.36306  1.0000
  C   C22       1.0  0.54203  0.51238  0.28198  1.0000
  C   C23       1.0  0.51856  0.53315  0.28302  1.0000
  H   H15       1.0  0.55337  0.50860  0.22045  1.0000
  N   N3        1.0  0.51008  0.54818  0.20068  1.0000
  O   O1        1.0  0.48965  0.51906  0.14448  1.0000
  O   O2        1.0  0.54316  0.57503  0.16214  1.0000
  N   N4        1.0  0.57087  0.47596  0.35670  1.0000
  C   C24       1.0  0.54847  0.06211  0.36310  1.0000
  C   C25       1.0  0.53169  0.03849  0.28203  1.0000
  C   C26       1.0  0.51092  0.99425  0.28306  1.0000
  H   H16       1.0  0.53545  0.05361  0.22051  1.0000
  N   N5        1.0  0.49586  0.97074  0.20071  1.0000
  O   O3        1.0  0.52496  0.97943  0.14446  1.0000
  O   O4        1.0  0.46900  0.97698  0.16225  1.0000
  N   N6        1.0  0.56816  0.10374  0.35675  1.0000
  C   C27       1.0  0.98203  0.49521  0.36311  1.0000
  C   C28       1.0  0.00565  0.50208  0.28202  1.0000
  C   C29       1.0  0.04989  0.52555  0.28306  1.0000
  H   H17       1.0  0.99053  0.49074  0.22049  1.0000
  N   N7        1.0  0.07340  0.53403  0.20071  1.0000
  O   O5        1.0  0.06471  0.55447  0.14453  1.0000
  O   O6        1.0  0.06716  0.50095  0.16217  1.0000
  N   N8        1.0  0.94040  0.47326  0.35675  1.0000
  C   C30       1.0  0.27232  0.63280  0.36832  1.0000
  C   C31       1.0  0.24524  0.64962  0.37000  1.0000
  C   C32       1.0  0.20148  0.62372  0.36591  1.0000
  C   C33       1.0  0.18280  0.57974  0.35983  1.0000
  C   C34       1.0  0.20974  0.56286  0.35861  1.0000
  C   C35       1.0  0.25342  0.58875  0.36301  1.0000
  C   C36       1.0  0.39452  0.60446  0.37003  1.0000
  C   C37       1.0  0.42041  0.58659  0.36593  1.0000
  C   C38       1.0  0.43223  0.86133  0.35983  1.0000
  C   C39       1.0  0.38841  0.83439  0.35855  1.0000
  C   C40       1.0  0.37062  0.79071  0.36294  1.0000
  H   H18       1.0  0.19779  0.53124  0.35410  1.0000
  H   H19       1.0  0.27131  0.57477  0.36123  1.0000
  H   H20       1.0  0.36293  0.58473  0.37366  1.0000
  H   H21       1.0  0.40664  0.55472  0.36629  1.0000
  H   H22       1.0  0.36875  0.84634  0.35400  1.0000
  H   H23       1.0  0.33876  0.77282  0.36111  1.0000
  N   N9        1.0  0.34271  0.64273  0.37016  1.0000
  C   C41       1.0  0.31681  0.65901  0.37033  1.0000
  N   N10       1.0  0.33532  0.70142  0.37016  1.0000
  C   C42       1.0  0.44872  0.90445  0.35290  1.0000
  C   C43       1.0  0.13969  0.55311  0.35285  1.0000
  H   H24       1.0  0.12913  0.52366  0.33327  1.0000
  H   H25       1.0  0.42981  0.91501  0.33336  1.0000
  C   C44       1.0  0.78076  0.40108  0.36611  1.0000
  C   C45       1.0  0.80729  0.38367  0.36084  1.0000
  C   C46       1.0  0.85100  0.40867  0.37001  1.0000
  C   C47       1.0  0.86992  0.45218  0.38525  1.0000
  C   C48       1.0  0.84370  0.46979  0.38963  1.0000
  C   C49       1.0  0.80013  0.44483  0.37961  1.0000
  C   C50       1.0  0.66049  0.43246  0.36073  1.0000
  C   C51       1.0  0.63549  0.45118  0.36988  1.0000
  C   C52       1.0  0.61758  0.17422  0.38527  1.0000
  C   C53       1.0  0.66141  0.20044  0.38976  1.0000
  C   C54       1.0  0.68001  0.24402  0.37977  1.0000
  H   H26       1.0  0.85610  0.50113  0.40125  1.0000
  H   H27       1.0  0.78262  0.45913  0.38476  1.0000
  H   H28       1.0  0.69193  0.45161  0.35157  1.0000
  H   H29       1.0  0.64960  0.48307  0.36807  1.0000
  H   H30       1.0  0.68035  0.18806  0.40151  1.0000
  H   H31       1.0  0.71182  0.26153  0.38502  1.0000
  N   N11       1.0  0.71099  0.39266  0.36186  1.0000
  C   C55       1.0  0.73623  0.37561  0.36154  1.0000
  N   N12       1.0  0.71698  0.33315  0.36195  1.0000
  C   C56       1.0  0.60008  0.13164  0.40145  1.0000
  C   C57       1.0  0.91250  0.47725  0.40150  1.0000
  H   H32       1.0  0.92161  0.50039  0.44701  1.0000
  H   H33       1.0  0.61411  0.12252  0.44694  1.0000
  C   C58       1.0  0.50254  0.53836  0.36798  1.0000
  C   C59       1.0  0.50932  0.52186  0.45026  1.0000
  C   C60       1.0  0.53267  0.50101  0.44696  1.0000
  H   H34       1.0  0.53789  0.48973  0.50691  1.0000
  N   N13       1.0  0.49286  0.52694  0.53443  1.0000
  O   O7        1.0  0.52136  0.54769  0.59171  1.0000
  O   O8        1.0  0.46776  0.49227  0.56993  1.0000
  N   N14       1.0  0.47968  0.55715  0.37205  1.0000
  C   C61       1.0  0.50574  0.97301  0.36800  1.0000
  C   C62       1.0  0.52228  0.99629  0.45028  1.0000
  C   C63       1.0  0.54313  0.04049  0.44698  1.0000
  H   H35       1.0  0.55444  0.05699  0.50693  1.0000
  N   N15       1.0  0.51723  0.97475  0.53442  1.0000
  O   O9        1.0  0.49650  0.98249  0.59177  1.0000
  O   O10       1.0  0.55191  0.98431  0.56983  1.0000
  N   N16       1.0  0.48696  0.93136  0.37206  1.0000
  C   C64       1.0  0.07113  0.54157  0.36802  1.0000
  C   C65       1.0  0.04785  0.53479  0.45030  1.0000
  C   C66       1.0  0.00365  0.51144  0.44701  1.0000
  H   H36       1.0  0.98715  0.50622  0.50696  1.0000
  N   N17       1.0  0.06939  0.55125  0.53447  1.0000
  O   O11       1.0  0.06164  0.52275  0.59175  1.0000
  O   O12       1.0  0.05982  0.57635  0.56997  1.0000
  N   N18       1.0  0.11277  0.56443  0.37208  1.0000
