data_image0
_chemical_formula_structural       C13H8C5HC4HN2H2O2NH2NHO2C12H8C2O4C5H2NH2NO2NHC6HC6H2NH2N2HO2NHNHC13H8C5HC4HN2H2O2NH2NHO2C12H8C2O4C5H2NH2NO2NHC6HC6H2NH2N2HO2NHNHC13H8C5HC4HN2H2O2NH2NHO2C12H8C2O4C5H2NH2NO2NHC6HC6H2NH2N2HO2NHNHC13H8C5HC4HN2H2O2NH2NHO2C12H8C2O4C5H2NH2NO2NHC6HC6H2NH2N2HO2NHNH
_chemical_formula_sum              "C212 H144 N48 O48"
_cell_length_a       39.545
_cell_length_b       39.545
_cell_length_c       15
_cell_angle_alpha    90
_cell_angle_beta     90
_cell_angle_gamma    90

_space_group_name_H-M_alt    "P 1"
_space_group_IT_number       1

loop_
  _space_group_symop_operation_xyz
  'x, y, z'

loop_
  _atom_site_type_symbol
  _atom_site_label
  _atom_site_symmetry_multiplicity
  _atom_site_fract_x
  _atom_site_fract_y
  _atom_site_fract_z
  _atom_site_occupancy
  C   C1        1.0  0.00855  0.08220  0.26395  1.0000
  C   C2        1.0  0.47719  0.06847  0.23661  1.0000
  C   C3        1.0  0.47545  0.04378  0.16951  1.0000
  C   C4        1.0  0.00480  0.03135  0.12573  1.0000
  C   C5        1.0  0.03623  0.04384  0.15747  1.0000
  C   C6        1.0  0.03808  0.06893  0.22373  1.0000
  C   C7        1.0  0.50222  0.50133  0.06185  1.0000
  C   C8        1.0  0.49831  0.47286  0.13013  1.0000
  C   C9        1.0  0.02676  0.46108  0.17900  1.0000
  C   C10       1.0  0.02359  0.43778  0.24921  1.0000
  C   C11       1.0  0.49155  0.42546  0.27544  1.0000
  C   C12       1.0  0.46285  0.43828  0.23056  1.0000
  C   C13       1.0  0.46618  0.46159  0.16037  1.0000
  H   H1        1.0  0.44446  0.47077  0.13261  1.0000
  H   H2        1.0  0.43904  0.43037  0.24743  1.0000
  H   H3        1.0  0.04506  0.43046  0.28199  1.0000
  H   H4        1.0  0.05046  0.46979  0.16428  1.0000
  H   H5        1.0  0.05849  0.03432  0.13377  1.0000
  H   H6        1.0  0.45212  0.03439  0.15371  1.0000
  H   H7        1.0  0.45508  0.07568  0.26627  1.0000
  H   H8        1.0  0.06152  0.07750  0.24180  1.0000
  C   C14       1.0  0.48777  0.39964  0.34107  1.0000
  C   C15       1.0  0.01080  0.10935  0.32671  1.0000
  C   C16       1.0  0.99521  0.27101  0.40238  1.0000
  C   C17       1.0  0.46979  0.28973  0.35694  1.0000
  C   C18       1.0  0.47425  0.32496  0.34695  1.0000
  H   H9        1.0  0.45749  0.33796  0.30785  1.0000
  C   C19       1.0  0.99688  0.23541  0.39393  1.0000
  C   C20       1.0  0.99214  0.16509  0.36167  1.0000
  C   C21       1.0  0.00523  0.18683  0.29473  1.0000
  C   C22       1.0  0.00788  0.22176  0.31217  1.0000
  H   H10       1.0  0.01629  0.23748  0.26261  1.0000
  N   N1        1.0  0.01418  0.17341  0.21035  1.0000
  N   N2        1.0  0.44212  0.27497  0.31930  1.0000
  H   H11       1.0  0.42505  0.28834  0.28856  1.0000
  H   H12       1.0  0.43749  0.25098  0.32599  1.0000
  O   O1        1.0  0.99655  0.18585  0.14882  1.0000
  O   O2        1.0  0.04487  0.17838  0.19310  1.0000
  N   N3        1.0  0.48547  0.13231  0.33920  1.0000
  H   H13       1.0  0.46449  0.12944  0.30639  1.0000
  H   H14       1.0  0.28319  0.01906  0.27009  1.0000
  N   N4        1.0  0.35096  0.01611  0.27323  1.0000
  H   H15       1.0  0.20910  0.43391  0.26741  1.0000
  O   O3        1.0  0.34695  0.50147  0.19962  1.0000
  O   O4        1.0  0.34797  0.04743  0.26161  1.0000
  C   C23       1.0  0.47342  0.00452  0.66127  1.0000
  C   C24       1.0  0.03216  0.49657  0.66549  1.0000
  C   C25       1.0  0.04332  0.46403  0.63834  1.0000
  C   C26       1.0  0.07034  0.45980  0.57850  1.0000
  C   C27       1.0  0.08700  0.48794  0.54022  1.0000
  C   C28       1.0  0.07442  0.02044  0.56167  1.0000
  C   C29       1.0  0.04724  0.02450  0.62124  1.0000
  C   C30       1.0  0.46256  0.03630  0.62786  1.0000
  C   C31       1.0  0.43614  0.03898  0.56556  1.0000
  C   C32       1.0  0.41969  0.00996  0.53113  1.0000
  C   C33       1.0  0.43246  0.47811  0.55829  1.0000
  C   C34       1.0  0.45905  0.47557  0.62019  1.0000
  H   H16       1.0  0.07788  0.43568  0.56367  1.0000
  H   H17       1.0  0.03204  0.44271  0.66282  1.0000
  H   H18       1.0  0.08568  0.04180  0.53748  1.0000
  H   H19       1.0  0.03917  0.04855  0.63436  1.0000
  H   H20       1.0  0.47343  0.05820  0.64990  1.0000
  H   H21       1.0  0.42869  0.06272  0.54681  1.0000
  H   H22       1.0  0.42185  0.45607  0.53667  1.0000
  H   H23       1.0  0.46704  0.45190  0.63781  1.0000
  C   C35       1.0  0.11695  0.48307  0.48845  1.0000
  C   C36       1.0  0.38985  0.01359  0.47769  1.0000
  O   O5        1.0  0.37341  0.04368  0.48188  1.0000
  O   O6        1.0  0.04127  0.11593  0.36453  1.0000
  O   O7        1.0  0.13580  0.45539  0.50817  1.0000
  O   O8        1.0  0.45812  0.39780  0.38619  1.0000
  C   C37       1.0  0.00310  0.34196  0.38015  1.0000
  C   C38       1.0  0.02776  0.32318  0.42753  1.0000
  C   C39       1.0  0.02340  0.28795  0.43899  1.0000
  C   C40       1.0  0.98415  0.21363  0.46027  1.0000
  C   C41       1.0  0.98147  0.17837  0.44521  1.0000
  H   H24       1.0  0.97548  0.22375  0.51883  1.0000
  H   H25       1.0  0.04236  0.27431  0.46853  1.0000
  N   N5        1.0  0.96823  0.15831  0.51006  1.0000
  H   H26       1.0  0.96109  0.16764  0.56710  1.0000
  H   H27       1.0  0.96630  0.13397  0.50260  1.0000
  N   N6        1.0  0.05691  0.34010  0.45935  1.0000
  O   O9        1.0  0.08343  0.32846  0.42491  1.0000
  O   O10       1.0  0.05926  0.33777  0.54267  1.0000
  N   N7        1.0  0.01045  0.37386  0.34987  1.0000
  H   H28       1.0  0.03171  0.37551  0.31737  1.0000
  C   C42       1.0  0.16334  0.00650  0.40727  1.0000
  C   C43       1.0  0.18504  0.03099  0.44547  1.0000
  C   C44       1.0  0.22033  0.02784  0.43341  1.0000
  C   C45       1.0  0.23435  0.00075  0.38429  1.0000
  C   C46       1.0  0.21258  0.47679  0.34289  1.0000
  C   C47       1.0  0.17723  0.48037  0.35459  1.0000
  H   H29       1.0  0.16126  0.46261  0.32820  1.0000
  C   C48       1.0  0.26971  0.99558  0.39146  1.0000
  C   C49       1.0  0.28265  0.97978  0.46850  1.0000
  C   C50       1.0  0.31779  0.97611  0.48233  1.0000
  C   C51       1.0  0.34041  0.98869  0.41629  1.0000
  C   C52       1.0  0.32774  0.00405  0.33763  1.0000
  C   C53       1.0  0.29236  0.00735  0.32596  1.0000
  H   H30       1.0  0.26616  0.97142  0.51643  1.0000
  H   H31       1.0  0.23595  0.04455  0.46551  1.0000
  N   N8        1.0  0.32868  0.96143  0.55925  1.0000
  H   H32       1.0  0.31279  0.95326  0.60392  1.0000
  H   H33       1.0  0.35254  0.95836  0.57212  1.0000
  N   N9        1.0  0.17105  0.05663  0.50006  1.0000
  N   N10       1.0  0.22443  0.45002  0.29521  1.0000
  H   H34       1.0  0.24845  0.44666  0.28487  1.0000
  O   O11       1.0  0.17811  0.08555  0.47084  1.0000
  O   O12       1.0  0.18137  0.05436  0.57907  1.0000
  N   N11       1.0  0.12976  0.00606  0.42947  1.0000
  H   H35       1.0  0.11723  0.02678  0.41805  1.0000
  N   N12       1.0  0.37454  0.48810  0.43133  1.0000
  H   H36       1.0  0.38491  0.46588  0.42914  1.0000
  C   C54       1.0  0.00855  0.58220  0.26395  1.0000
  C   C55       1.0  0.47719  0.56847  0.23661  1.0000
  C   C56       1.0  0.47545  0.54378  0.16951  1.0000
  C   C57       1.0  0.00480  0.53135  0.12573  1.0000
  C   C58       1.0  0.03623  0.54384  0.15747  1.0000
  C   C59       1.0  0.03808  0.56893  0.22373  1.0000
  C   C60       1.0  0.50222  0.00133  0.06185  1.0000
  C   C61       1.0  0.49831  0.97286  0.13013  1.0000
  C   C62       1.0  0.02676  0.96108  0.17900  1.0000
  C   C63       1.0  0.02359  0.93778  0.24921  1.0000
  C   C64       1.0  0.49155  0.92546  0.27544  1.0000
  C   C65       1.0  0.46285  0.93828  0.23056  1.0000
  C   C66       1.0  0.46618  0.96159  0.16037  1.0000
  H   H37       1.0  0.44446  0.97077  0.13261  1.0000
  H   H38       1.0  0.43904  0.93037  0.24743  1.0000
  H   H39       1.0  0.04506  0.93046  0.28199  1.0000
  H   H40       1.0  0.05046  0.96979  0.16428  1.0000
  H   H41       1.0  0.05849  0.53431  0.13377  1.0000
  H   H42       1.0  0.45212  0.53439  0.15371  1.0000
  H   H43       1.0  0.45508  0.57568  0.26627  1.0000
  H   H44       1.0  0.06152  0.57750  0.24180  1.0000
  C   C67       1.0  0.48777  0.89964  0.34107  1.0000
  C   C68       1.0  0.01080  0.60935  0.32671  1.0000
  C   C69       1.0  0.99521  0.77101  0.40238  1.0000
  C   C70       1.0  0.46979  0.78973  0.35694  1.0000
  C   C71       1.0  0.47425  0.82496  0.34695  1.0000
  H   H45       1.0  0.45749  0.83796  0.30785  1.0000
  C   C72       1.0  0.99688  0.73541  0.39393  1.0000
  C   C73       1.0  0.99214  0.66509  0.36167  1.0000
  C   C74       1.0  0.00523  0.68683  0.29473  1.0000
  C   C75       1.0  0.00788  0.72176  0.31217  1.0000
  H   H46       1.0  0.01629  0.73748  0.26261  1.0000
  N   N13       1.0  0.01418  0.67341  0.21035  1.0000
  N   N14       1.0  0.44212  0.77497  0.31930  1.0000
  H   H47       1.0  0.42505  0.78834  0.28856  1.0000
  H   H48       1.0  0.43749  0.75098  0.32599  1.0000
  O   O13       1.0  0.99655  0.68585  0.14882  1.0000
  O   O14       1.0  0.04487  0.67838  0.19310  1.0000
  N   N15       1.0  0.48547  0.63231  0.33920  1.0000
  H   H49       1.0  0.46449  0.62944  0.30639  1.0000
  H   H50       1.0  0.28319  0.51906  0.27009  1.0000
  N   N16       1.0  0.35096  0.51611  0.27323  1.0000
  H   H51       1.0  0.20910  0.93391  0.26741  1.0000
  O   O15       1.0  0.34695  0.00147  0.19962  1.0000
  O   O16       1.0  0.34797  0.54743  0.26161  1.0000
  C   C76       1.0  0.47342  0.50452  0.66127  1.0000
  C   C77       1.0  0.03216  0.99657  0.66549  1.0000
  C   C78       1.0  0.04332  0.96403  0.63834  1.0000
  C   C79       1.0  0.07034  0.95980  0.57850  1.0000
  C   C80       1.0  0.08700  0.98794  0.54022  1.0000
  C   C81       1.0  0.07442  0.52044  0.56167  1.0000
  C   C82       1.0  0.04724  0.52450  0.62124  1.0000
  C   C83       1.0  0.46256  0.53629  0.62786  1.0000
  C   C84       1.0  0.43614  0.53898  0.56556  1.0000
  C   C85       1.0  0.41969  0.50996  0.53113  1.0000
  C   C86       1.0  0.43246  0.97811  0.55829  1.0000
  C   C87       1.0  0.45905  0.97556  0.62019  1.0000
  H   H52       1.0  0.07788  0.93568  0.56367  1.0000
  H   H53       1.0  0.03204  0.94271  0.66282  1.0000
  H   H54       1.0  0.08568  0.54180  0.53748  1.0000
  H   H55       1.0  0.03917  0.54855  0.63436  1.0000
  H   H56       1.0  0.47343  0.55820  0.64990  1.0000
  H   H57       1.0  0.42869  0.56272  0.54681  1.0000
  H   H58       1.0  0.42185  0.95607  0.53667  1.0000
  H   H59       1.0  0.46704  0.95190  0.63781  1.0000
  C   C88       1.0  0.11695  0.98306  0.48845  1.0000
  C   C89       1.0  0.38985  0.51359  0.47769  1.0000
  O   O17       1.0  0.37341  0.54368  0.48188  1.0000
  O   O18       1.0  0.04127  0.61593  0.36453  1.0000
  O   O19       1.0  0.13580  0.95539  0.50817  1.0000
  O   O20       1.0  0.45812  0.89780  0.38619  1.0000
  C   C90       1.0  0.00310  0.84196  0.38015  1.0000
  C   C91       1.0  0.02776  0.82318  0.42753  1.0000
  C   C92       1.0  0.02340  0.78795  0.43899  1.0000
  C   C93       1.0  0.98415  0.71363  0.46027  1.0000
  C   C94       1.0  0.98147  0.67837  0.44521  1.0000
  H   H60       1.0  0.97548  0.72375  0.51883  1.0000
  H   H61       1.0  0.04236  0.77431  0.46853  1.0000
  N   N17       1.0  0.96823  0.65831  0.51006  1.0000
  H   H62       1.0  0.96109  0.66764  0.56710  1.0000
  H   H63       1.0  0.96630  0.63397  0.50260  1.0000
  N   N18       1.0  0.05691  0.84010  0.45935  1.0000
  O   O21       1.0  0.08343  0.82846  0.42491  1.0000
  O   O22       1.0  0.05926  0.83777  0.54267  1.0000
  N   N19       1.0  0.01045  0.87386  0.34987  1.0000
  H   H64       1.0  0.03171  0.87551  0.31737  1.0000
  C   C95       1.0  0.16334  0.50650  0.40727  1.0000
  C   C96       1.0  0.18504  0.53099  0.44547  1.0000
  C   C97       1.0  0.22033  0.52784  0.43341  1.0000
  C   C98       1.0  0.23435  0.50075  0.38429  1.0000
  C   C99       1.0  0.21258  0.97679  0.34289  1.0000
  C   C100      1.0  0.17723  0.98037  0.35459  1.0000
  H   H65       1.0  0.16126  0.96261  0.32820  1.0000
  C   C101      1.0  0.26971  0.49558  0.39146  1.0000
  C   C102      1.0  0.28265  0.47978  0.46850  1.0000
  C   C103      1.0  0.31779  0.47611  0.48233  1.0000
  C   C104      1.0  0.34041  0.48869  0.41629  1.0000
  C   C105      1.0  0.32774  0.50405  0.33763  1.0000
  C   C106      1.0  0.29236  0.50735  0.32596  1.0000
  H   H66       1.0  0.26616  0.47142  0.51643  1.0000
  H   H67       1.0  0.23595  0.54455  0.46551  1.0000
  N   N20       1.0  0.32868  0.46143  0.55925  1.0000
  H   H68       1.0  0.31279  0.45326  0.60392  1.0000
  H   H69       1.0  0.35254  0.45836  0.57212  1.0000
  N   N21       1.0  0.17105  0.55662  0.50006  1.0000
  N   N22       1.0  0.22443  0.95002  0.29521  1.0000
  H   H70       1.0  0.24845  0.94666  0.28487  1.0000
  O   O23       1.0  0.17811  0.58555  0.47084  1.0000
  O   O24       1.0  0.18137  0.55436  0.57907  1.0000
  N   N23       1.0  0.12976  0.50606  0.42947  1.0000
  H   H71       1.0  0.11723  0.52678  0.41805  1.0000
  N   N24       1.0  0.37454  0.98810  0.43133  1.0000
  H   H72       1.0  0.38491  0.96588  0.42914  1.0000
  C   C107      1.0  0.50855  0.08220  0.26395  1.0000
  C   C108      1.0  0.97719  0.06847  0.23661  1.0000
  C   C109      1.0  0.97545  0.04378  0.16951  1.0000
  C   C110      1.0  0.50480  0.03135  0.12573  1.0000
  C   C111      1.0  0.53623  0.04384  0.15747  1.0000
  C   C112      1.0  0.53808  0.06893  0.22373  1.0000
  C   C113      1.0  0.00222  0.50133  0.06185  1.0000
  C   C114      1.0  0.99831  0.47286  0.13013  1.0000
  C   C115      1.0  0.52676  0.46108  0.17900  1.0000
  C   C116      1.0  0.52359  0.43778  0.24921  1.0000
  C   C117      1.0  0.99155  0.42546  0.27544  1.0000
  C   C118      1.0  0.96284  0.43828  0.23056  1.0000
  C   C119      1.0  0.96618  0.46159  0.16037  1.0000
  H   H73       1.0  0.94446  0.47077  0.13261  1.0000
  H   H74       1.0  0.93904  0.43037  0.24743  1.0000
  H   H75       1.0  0.54505  0.43046  0.28199  1.0000
  H   H76       1.0  0.55046  0.46979  0.16428  1.0000
  H   H77       1.0  0.55849  0.03432  0.13377  1.0000
  H   H78       1.0  0.95212  0.03439  0.15371  1.0000
  H   H79       1.0  0.95508  0.07568  0.26627  1.0000
  H   H80       1.0  0.56152  0.07750  0.24180  1.0000
  C   C120      1.0  0.98777  0.39964  0.34107  1.0000
  C   C121      1.0  0.51080  0.10935  0.32671  1.0000
  C   C122      1.0  0.49521  0.27101  0.40238  1.0000
  C   C123      1.0  0.96979  0.28973  0.35694  1.0000
  C   C124      1.0  0.97425  0.32496  0.34695  1.0000
  H   H81       1.0  0.95749  0.33796  0.30785  1.0000
  C   C125      1.0  0.49689  0.23541  0.39393  1.0000
  C   C126      1.0  0.49214  0.16509  0.36167  1.0000
  C   C127      1.0  0.50523  0.18683  0.29473  1.0000
  C   C128      1.0  0.50788  0.22176  0.31217  1.0000
  H   H82       1.0  0.51628  0.23748  0.26261  1.0000
  N   N25       1.0  0.51418  0.17341  0.21035  1.0000
  N   N26       1.0  0.94212  0.27497  0.31930  1.0000
  H   H83       1.0  0.92505  0.28834  0.28856  1.0000
  H   H84       1.0  0.93749  0.25098  0.32599  1.0000
  O   O25       1.0  0.49655  0.18585  0.14882  1.0000
  O   O26       1.0  0.54487  0.17838  0.19310  1.0000
  N   N27       1.0  0.98548  0.13231  0.33920  1.0000
  H   H85       1.0  0.96449  0.12944  0.30639  1.0000
  H   H86       1.0  0.78319  0.01906  0.27009  1.0000
  N   N28       1.0  0.85096  0.01611  0.27323  1.0000
  H   H87       1.0  0.70910  0.43391  0.26741  1.0000
  O   O27       1.0  0.84695  0.50147  0.19962  1.0000
  O   O28       1.0  0.84797  0.04743  0.26161  1.0000
  C   C129      1.0  0.97342  0.00452  0.66127  1.0000
  C   C130      1.0  0.53216  0.49657  0.66549  1.0000
  C   C131      1.0  0.54332  0.46403  0.63834  1.0000
  C   C132      1.0  0.57034  0.45980  0.57850  1.0000
  C   C133      1.0  0.58700  0.48794  0.54022  1.0000
  C   C134      1.0  0.57442  0.02044  0.56167  1.0000
  C   C135      1.0  0.54724  0.02450  0.62124  1.0000
  C   C136      1.0  0.96256  0.03630  0.62786  1.0000
  C   C137      1.0  0.93614  0.03898  0.56556  1.0000
  C   C138      1.0  0.91969  0.00996  0.53113  1.0000
  C   C139      1.0  0.93246  0.47811  0.55829  1.0000
  C   C140      1.0  0.95905  0.47557  0.62019  1.0000
  H   H88       1.0  0.57788  0.43568  0.56367  1.0000
  H   H89       1.0  0.53204  0.44271  0.66282  1.0000
  H   H90       1.0  0.58567  0.04180  0.53748  1.0000
  H   H91       1.0  0.53917  0.04855  0.63436  1.0000
  H   H92       1.0  0.97344  0.05820  0.64990  1.0000
  H   H93       1.0  0.92869  0.06272  0.54681  1.0000
  H   H94       1.0  0.92185  0.45607  0.53667  1.0000
  H   H95       1.0  0.96705  0.45190  0.63781  1.0000
  C   C141      1.0  0.61696  0.48307  0.48845  1.0000
  C   C142      1.0  0.88985  0.01359  0.47769  1.0000
  O   O29       1.0  0.87341  0.04368  0.48188  1.0000
  O   O30       1.0  0.54127  0.11593  0.36453  1.0000
  O   O31       1.0  0.63580  0.45539  0.50817  1.0000
  O   O32       1.0  0.95812  0.39780  0.38619  1.0000
  C   C143      1.0  0.50310  0.34196  0.38015  1.0000
  C   C144      1.0  0.52776  0.32318  0.42753  1.0000
  C   C145      1.0  0.52340  0.28795  0.43899  1.0000
  C   C146      1.0  0.48415  0.21363  0.46027  1.0000
  C   C147      1.0  0.48147  0.17837  0.44521  1.0000
  H   H96       1.0  0.47548  0.22375  0.51883  1.0000
  H   H97       1.0  0.54236  0.27431  0.46853  1.0000
  N   N29       1.0  0.46823  0.15831  0.51006  1.0000
  H   H98       1.0  0.46109  0.16764  0.56710  1.0000
  H   H99       1.0  0.46630  0.13397  0.50260  1.0000
  N   N30       1.0  0.55690  0.34010  0.45935  1.0000
  O   O33       1.0  0.58343  0.32846  0.42491  1.0000
  O   O34       1.0  0.55926  0.33777  0.54267  1.0000
  N   N31       1.0  0.51045  0.37386  0.34987  1.0000
  H   H100      1.0  0.53171  0.37551  0.31737  1.0000
  C   C148      1.0  0.66334  0.00650  0.40727  1.0000
  C   C149      1.0  0.68504  0.03099  0.44547  1.0000
  C   C150      1.0  0.72033  0.02784  0.43341  1.0000
  C   C151      1.0  0.73435  0.00075  0.38429  1.0000
  C   C152      1.0  0.71258  0.47679  0.34289  1.0000
  C   C153      1.0  0.67723  0.48037  0.35459  1.0000
  H   H101      1.0  0.66126  0.46261  0.32820  1.0000
  C   C154      1.0  0.76971  0.99558  0.39146  1.0000
  C   C155      1.0  0.78265  0.97978  0.46850  1.0000
  C   C156      1.0  0.81780  0.97611  0.48233  1.0000
  C   C157      1.0  0.84041  0.98869  0.41629  1.0000
  C   C158      1.0  0.82774  0.00405  0.33763  1.0000
  C   C159      1.0  0.79236  0.00735  0.32596  1.0000
  H   H102      1.0  0.76616  0.97142  0.51643  1.0000
  H   H103      1.0  0.73596  0.04455  0.46551  1.0000
  N   N32       1.0  0.82868  0.96143  0.55925  1.0000
  H   H104      1.0  0.81279  0.95326  0.60392  1.0000
  H   H105      1.0  0.85254  0.95836  0.57212  1.0000
  N   N33       1.0  0.67105  0.05663  0.50006  1.0000
  N   N34       1.0  0.72443  0.45002  0.29521  1.0000
  H   H106      1.0  0.74845  0.44666  0.28487  1.0000
  O   O35       1.0  0.67812  0.08555  0.47084  1.0000
  O   O36       1.0  0.68137  0.05436  0.57907  1.0000
  N   N35       1.0  0.62976  0.00606  0.42947  1.0000
  H   H107      1.0  0.61723  0.02678  0.41805  1.0000
  N   N36       1.0  0.87454  0.48810  0.43133  1.0000
  H   H108      1.0  0.88491  0.46588  0.42914  1.0000
  C   C160      1.0  0.50855  0.58220  0.26395  1.0000
  C   C161      1.0  0.97719  0.56847  0.23661  1.0000
  C   C162      1.0  0.97545  0.54378  0.16951  1.0000
  C   C163      1.0  0.50480  0.53135  0.12573  1.0000
  C   C164      1.0  0.53623  0.54384  0.15747  1.0000
  C   C165      1.0  0.53808  0.56893  0.22373  1.0000
  C   C166      1.0  0.00222  0.00133  0.06185  1.0000
  C   C167      1.0  0.99831  0.97286  0.13013  1.0000
  C   C168      1.0  0.52676  0.96108  0.17900  1.0000
  C   C169      1.0  0.52359  0.93778  0.24921  1.0000
  C   C170      1.0  0.99155  0.92546  0.27544  1.0000
  C   C171      1.0  0.96284  0.93828  0.23056  1.0000
  C   C172      1.0  0.96618  0.96159  0.16037  1.0000
  H   H109      1.0  0.94446  0.97077  0.13261  1.0000
  H   H110      1.0  0.93904  0.93037  0.24743  1.0000
  H   H111      1.0  0.54505  0.93046  0.28199  1.0000
  H   H112      1.0  0.55046  0.96979  0.16428  1.0000
  H   H113      1.0  0.55849  0.53431  0.13377  1.0000
  H   H114      1.0  0.95212  0.53439  0.15371  1.0000
  H   H115      1.0  0.95508  0.57568  0.26627  1.0000
  H   H116      1.0  0.56152  0.57750  0.24180  1.0000
  C   C173      1.0  0.98777  0.89964  0.34107  1.0000
  C   C174      1.0  0.51080  0.60935  0.32671  1.0000
  C   C175      1.0  0.49521  0.77101  0.40238  1.0000
  C   C176      1.0  0.96979  0.78973  0.35694  1.0000
  C   C177      1.0  0.97425  0.82496  0.34695  1.0000
  H   H117      1.0  0.95749  0.83796  0.30785  1.0000
  C   C178      1.0  0.49689  0.73541  0.39393  1.0000
  C   C179      1.0  0.49214  0.66509  0.36167  1.0000
  C   C180      1.0  0.50523  0.68683  0.29473  1.0000
  C   C181      1.0  0.50788  0.72176  0.31217  1.0000
  H   H118      1.0  0.51628  0.73748  0.26261  1.0000
  N   N37       1.0  0.51418  0.67341  0.21035  1.0000
  N   N38       1.0  0.94212  0.77497  0.31930  1.0000
  H   H119      1.0  0.92505  0.78834  0.28856  1.0000
  H   H120      1.0  0.93749  0.75098  0.32599  1.0000
  O   O37       1.0  0.49655  0.68585  0.14882  1.0000
  O   O38       1.0  0.54487  0.67838  0.19310  1.0000
  N   N39       1.0  0.98548  0.63231  0.33920  1.0000
  H   H121      1.0  0.96449  0.62944  0.30639  1.0000
  H   H122      1.0  0.78319  0.51906  0.27009  1.0000
  N   N40       1.0  0.85096  0.51611  0.27323  1.0000
  H   H123      1.0  0.70910  0.93391  0.26741  1.0000
  O   O39       1.0  0.84695  0.00147  0.19962  1.0000
  O   O40       1.0  0.84797  0.54743  0.26161  1.0000
  C   C182      1.0  0.97342  0.50452  0.66127  1.0000
  C   C183      1.0  0.53216  0.99657  0.66549  1.0000
  C   C184      1.0  0.54332  0.96403  0.63834  1.0000
  C   C185      1.0  0.57034  0.95980  0.57850  1.0000
  C   C186      1.0  0.58700  0.98794  0.54022  1.0000
  C   C187      1.0  0.57442  0.52044  0.56167  1.0000
  C   C188      1.0  0.54724  0.52450  0.62124  1.0000
  C   C189      1.0  0.96256  0.53629  0.62786  1.0000
  C   C190      1.0  0.93614  0.53898  0.56556  1.0000
  C   C191      1.0  0.91969  0.50996  0.53113  1.0000
  C   C192      1.0  0.93246  0.97811  0.55829  1.0000
  C   C193      1.0  0.95905  0.97556  0.62019  1.0000
  H   H124      1.0  0.57788  0.93568  0.56367  1.0000
  H   H125      1.0  0.53204  0.94271  0.66282  1.0000
  H   H126      1.0  0.58567  0.54180  0.53748  1.0000
  H   H127      1.0  0.53917  0.54855  0.63436  1.0000
  H   H128      1.0  0.97344  0.55820  0.64990  1.0000
  H   H129      1.0  0.92869  0.56272  0.54681  1.0000
  H   H130      1.0  0.92185  0.95607  0.53667  1.0000
  H   H131      1.0  0.96705  0.95190  0.63781  1.0000
  C   C194      1.0  0.61696  0.98306  0.48845  1.0000
  C   C195      1.0  0.88985  0.51359  0.47769  1.0000
  O   O41       1.0  0.87341  0.54368  0.48188  1.0000
  O   O42       1.0  0.54127  0.61593  0.36453  1.0000
  O   O43       1.0  0.63580  0.95539  0.50817  1.0000
  O   O44       1.0  0.95812  0.89780  0.38619  1.0000
  C   C196      1.0  0.50310  0.84196  0.38015  1.0000
  C   C197      1.0  0.52776  0.82318  0.42753  1.0000
  C   C198      1.0  0.52340  0.78795  0.43899  1.0000
  C   C199      1.0  0.48415  0.71363  0.46027  1.0000
  C   C200      1.0  0.48147  0.67837  0.44521  1.0000
  H   H132      1.0  0.47548  0.72375  0.51883  1.0000
  H   H133      1.0  0.54236  0.77431  0.46853  1.0000
  N   N41       1.0  0.46823  0.65831  0.51006  1.0000
  H   H134      1.0  0.46109  0.66764  0.56710  1.0000
  H   H135      1.0  0.46630  0.63397  0.50260  1.0000
  N   N42       1.0  0.55690  0.84010  0.45935  1.0000
  O   O45       1.0  0.58343  0.82846  0.42491  1.0000
  O   O46       1.0  0.55926  0.83777  0.54267  1.0000
  N   N43       1.0  0.51045  0.87386  0.34987  1.0000
  H   H136      1.0  0.53171  0.87551  0.31737  1.0000
  C   C201      1.0  0.66334  0.50650  0.40727  1.0000
  C   C202      1.0  0.68504  0.53099  0.44547  1.0000
  C   C203      1.0  0.72033  0.52784  0.43341  1.0000
  C   C204      1.0  0.73435  0.50075  0.38429  1.0000
  C   C205      1.0  0.71258  0.97679  0.34289  1.0000
  C   C206      1.0  0.67723  0.98037  0.35459  1.0000
  H   H137      1.0  0.66126  0.96261  0.32820  1.0000
  C   C207      1.0  0.76971  0.49558  0.39146  1.0000
  C   C208      1.0  0.78265  0.47978  0.46850  1.0000
  C   C209      1.0  0.81780  0.47611  0.48233  1.0000
  C   C210      1.0  0.84041  0.48869  0.41629  1.0000
  C   C211      1.0  0.82774  0.50405  0.33763  1.0000
  C   C212      1.0  0.79236  0.50735  0.32596  1.0000
  H   H138      1.0  0.76616  0.47142  0.51643  1.0000
  H   H139      1.0  0.73596  0.54455  0.46551  1.0000
  N   N44       1.0  0.82868  0.46143  0.55925  1.0000
  H   H140      1.0  0.81279  0.45326  0.60392  1.0000
  H   H141      1.0  0.85254  0.45836  0.57212  1.0000
  N   N45       1.0  0.67105  0.55662  0.50006  1.0000
  N   N46       1.0  0.72443  0.95002  0.29521  1.0000
  H   H142      1.0  0.74845  0.94666  0.28487  1.0000
  O   O47       1.0  0.67812  0.58555  0.47084  1.0000
  O   O48       1.0  0.68137  0.55436  0.57907  1.0000
  N   N47       1.0  0.62976  0.50606  0.42947  1.0000
  H   H143      1.0  0.61723  0.52678  0.41805  1.0000
  N   N48       1.0  0.87454  0.98810  0.43133  1.0000
  H   H144      1.0  0.88491  0.96588  0.42914  1.0000
