data_image0
_chemical_formula_structural       C3H2C2NC2NHCH3CHC2NC2NHCH3CHC2NC2NHCH3CHC2HC6H3CHC2HC6H3CHC2HC6H3CHC3HN3C6H3N3C6H3N3C6H3N3C2HC6H3CHC2HC6H3CHC2HC6H3CHC2NC2NHCH3CHC2NC2NHCH3CHC2NC2NHCH3CH
_chemical_formula_sum              "C114 H72 N24"
_cell_length_a       45.1131
_cell_length_b       45.1131
_cell_length_c       14.9673
_cell_angle_alpha    90
_cell_angle_beta     90
_cell_angle_gamma    120

_space_group_name_H-M_alt    "P 1"
_space_group_IT_number       1

loop_
  _space_group_symop_operation_xyz
  'x, y, z'

loop_
  _atom_site_type_symbol
  _atom_site_label
  _atom_site_symmetry_multiplicity
  _atom_site_fract_x
  _atom_site_fract_y
  _atom_site_fract_z
  _atom_site_occupancy
  C   C1        1.0  0.01658  0.03508  0.32986  1.0000
  C   C2        1.0  0.01460  0.98018  0.32986  1.0000
  C   C3        1.0  0.03396  0.01626  0.32883  1.0000
  H   H1        1.0  0.02699  0.96639  0.33189  1.0000
  H   H2        1.0  0.03037  0.06126  0.33189  1.0000
  C   C4        1.0  0.12525  0.06993  0.30372  1.0000
  C   C5        1.0  0.14794  0.07382  0.23287  1.0000
  N   N1        1.0  0.18207  0.08917  0.25017  1.0000
  C   C6        1.0  0.19652  0.10129  0.33136  1.0000
  C   C7        1.0  0.28812  0.13794  0.28124  1.0000
  N   N2        1.0  0.25353  0.12192  0.27374  1.0000
  H   H3        1.0  0.30203  0.13981  0.22549  1.0000
  C   C8        1.0  0.13773  0.06238  0.13947  1.0000
  H   H4        1.0  0.11011  0.04929  0.12940  1.0000
  H   H5        1.0  0.14661  0.04473  0.12078  1.0000
  H   H6        1.0  0.14951  0.08448  0.09493  1.0000
  C   C9        1.0  0.09069  0.05764  0.29034  1.0000
  H   H7        1.0  0.08377  0.06968  0.24663  1.0000
  C   C10       1.0  0.92678  0.05593  0.30374  1.0000
  C   C11       1.0  0.92300  0.07477  0.23283  1.0000
  N   N3        1.0  0.90775  0.09365  0.25006  1.0000
  C   C12       1.0  0.89563  0.09603  0.33120  1.0000
  C   C13       1.0  0.85964  0.15155  0.28101  1.0000
  N   N4        1.0  0.87536  0.13271  0.27350  1.0000
  H   H8        1.0  0.85794  0.16373  0.22535  1.0000
  C   C14       1.0  0.93447  0.07597  0.13947  1.0000
  H   H9        1.0  0.94747  0.06135  0.12946  1.0000
  H   H10       1.0  0.95221  0.10248  0.12083  1.0000
  H   H11       1.0  0.91239  0.06574  0.09486  1.0000
  C   C15       1.0  0.93906  0.03365  0.29046  1.0000
  H   H12       1.0  0.92699  0.01464  0.24688  1.0000
  C   C16       1.0  0.94081  0.87152  0.30359  1.0000
  C   C17       1.0  0.92205  0.84878  0.23279  1.0000
  N   N5        1.0  0.90338  0.81465  0.25016  1.0000
  C   C18       1.0  0.90112  0.80024  0.33138  1.0000
  C   C19       1.0  0.84682  0.70854  0.28129  1.0000
  N   N6        1.0  0.86507  0.74314  0.27380  1.0000
  H   H13       1.0  0.83496  0.69460  0.22545  1.0000
  C   C20       1.0  0.92078  0.85894  0.13936  1.0000
  H   H14       1.0  0.93522  0.88656  0.12924  1.0000
  H   H15       1.0  0.89424  0.84995  0.12064  1.0000
  H   H16       1.0  0.93118  0.84722  0.09487  1.0000
  C   C21       1.0  0.96302  0.90609  0.29013  1.0000
  H   H17       1.0  0.98191  0.91304  0.24618  1.0000
  C   C22       1.0  0.54539  0.15698  0.27134  1.0000
  C   C23       1.0  0.51934  0.16519  0.28503  1.0000
  H   H18       1.0  0.50762  0.16843  0.23030  1.0000
  C   C24       1.0  0.59200  0.15068  0.33547  1.0000
  C   C25       1.0  0.65261  0.14809  0.31455  1.0000
  C   C26       1.0  0.63279  0.14569  0.23886  1.0000
  C   C27       1.0  0.60242  0.14727  0.24826  1.0000
  C   C28       1.0  0.58334  0.14744  0.17365  1.0000
  C   C29       1.0  0.55511  0.15233  0.18508  1.0000
  H   H19       1.0  0.59065  0.14539  0.11031  1.0000
  H   H20       1.0  0.54256  0.15375  0.12976  1.0000
  H   H21       1.0  0.64157  0.14490  0.17625  1.0000
  C   C30       1.0  0.68493  0.15240  0.30489  1.0000
  H   H22       1.0  0.68813  0.13418  0.27728  1.0000
  C   C31       1.0  0.83964  0.38895  0.27173  1.0000
  C   C32       1.0  0.83144  0.35469  0.28528  1.0000
  H   H23       1.0  0.82821  0.33974  0.23053  1.0000
  C   C33       1.0  0.84600  0.44187  0.33611  1.0000
  C   C34       1.0  0.84873  0.50518  0.31550  1.0000
  C   C35       1.0  0.85105  0.48774  0.23974  1.0000
  C   C36       1.0  0.84941  0.45575  0.24897  1.0000
  C   C37       1.0  0.84918  0.43651  0.17427  1.0000
  C   C38       1.0  0.84424  0.40336  0.18553  1.0000
  H   H24       1.0  0.85127  0.44592  0.11096  1.0000
  H   H25       1.0  0.84286  0.38944  0.13015  1.0000
  H   H26       1.0  0.85184  0.49734  0.17718  1.0000
  C   C39       1.0  0.84446  0.53324  0.30595  1.0000
  H   H27       1.0  0.86229  0.55432  0.27609  1.0000
  C   C40       1.0  0.60772  0.45114  0.27132  1.0000
  C   C41       1.0  0.64200  0.47714  0.28492  1.0000
  H   H28       1.0  0.65692  0.48892  0.23017  1.0000
  C   C42       1.0  0.55480  0.40460  0.33559  1.0000
  C   C43       1.0  0.49152  0.34405  0.31487  1.0000
  C   C44       1.0  0.50895  0.36382  0.23912  1.0000
  C   C45       1.0  0.54092  0.39417  0.24843  1.0000
  C   C46       1.0  0.56016  0.41322  0.17377  1.0000
  C   C47       1.0  0.59330  0.44143  0.18510  1.0000
  H   H29       1.0  0.55076  0.40592  0.11045  1.0000
  H   H30       1.0  0.60726  0.45396  0.12975  1.0000
  H   H31       1.0  0.49934  0.35506  0.17654  1.0000
  C   C48       1.0  0.46351  0.31172  0.30523  1.0000
  H   H32       1.0  0.44217  0.30851  0.27701  1.0000
  C   C49       1.0  0.98050  0.01836  0.32892  1.0000
  C   C50       1.0  0.97840  0.96280  0.32885  1.0000
  C   C51       1.0  0.96168  0.98215  0.32989  1.0000
  H   H33       1.0  0.93550  0.96976  0.33197  1.0000
  N   N7        1.0  0.96562  0.03744  0.33242  1.0000
  N   N8        1.0  0.06792  0.03113  0.33239  1.0000
  N   N9        1.0  0.95933  0.92884  0.33245  1.0000
  C   C52       1.0  0.44906  0.19817  0.32606  1.0000
  C   C53       1.0  0.41308  0.18003  0.31793  1.0000
  C   C54       1.0  0.39459  0.19770  0.31440  1.0000
  C   C55       1.0  0.41241  0.23387  0.31515  1.0000
  C   C56       1.0  0.44849  0.25245  0.32116  1.0000
  C   C57       1.0  0.46637  0.23434  0.32659  1.0000
  H   H34       1.0  0.39903  0.24665  0.31271  1.0000
  H   H35       1.0  0.49258  0.24772  0.32991  1.0000
  H   H36       1.0  0.40023  0.15383  0.31636  1.0000
  N   N10       1.0  0.46670  0.18170  0.32717  1.0000
  N   N11       1.0  0.36069  0.18075  0.30927  1.0000
  N   N12       1.0  0.46748  0.28623  0.32470  1.0000
  C   C58       1.0  0.79857  0.25138  0.32649  1.0000
  C   C59       1.0  0.81664  0.23344  0.31891  1.0000
  C   C60       1.0  0.79888  0.19726  0.31505  1.0000
  C   C61       1.0  0.76272  0.17903  0.31509  1.0000
  C   C62       1.0  0.74422  0.19662  0.32084  1.0000
  C   C63       1.0  0.76240  0.23260  0.32646  1.0000
  H   H37       1.0  0.74986  0.15287  0.31248  1.0000
  H   H38       1.0  0.74907  0.24548  0.32951  1.0000
  H   H39       1.0  0.84284  0.24672  0.31761  1.0000
  N   N13       1.0  0.81510  0.28551  0.32759  1.0000
  N   N14       1.0  0.81557  0.18005  0.31016  1.0000
  N   N15       1.0  0.71044  0.18188  0.32414  1.0000
  C   C64       1.0  0.74524  0.54747  0.32568  1.0000
  C   C65       1.0  0.76296  0.58343  0.31711  1.0000
  C   C66       1.0  0.79912  0.60204  0.31417  1.0000
  C   C67       1.0  0.81760  0.58434  0.31582  1.0000
  C   C68       1.0  0.80020  0.54826  0.32201  1.0000
  C   C69       1.0  0.76420  0.53027  0.32701  1.0000
  H   H40       1.0  0.84377  0.59781  0.31370  1.0000
  H   H41       1.0  0.75145  0.50407  0.33060  1.0000
  H   H42       1.0  0.74952  0.59618  0.31507  1.0000
  N   N16       1.0  0.71113  0.52975  0.32664  1.0000
  N   N17       1.0  0.81574  0.63594  0.30889  1.0000
  N   N18       1.0  0.81507  0.52935  0.32604  1.0000
  C   C70       1.0  0.17494  0.09771  0.40448  1.0000
  C   C71       1.0  0.13934  0.08198  0.38954  1.0000
  H   H43       1.0  0.12364  0.08006  0.44142  1.0000
  C   C72       1.0  0.23238  0.11776  0.34320  1.0000
  C   C73       1.0  0.30430  0.15153  0.36423  1.0000
  C   C74       1.0  0.28285  0.14740  0.43790  1.0000
  C   C75       1.0  0.24688  0.13069  0.42853  1.0000
  C   C76       1.0  0.22522  0.12676  0.50113  1.0000
  C   C77       1.0  0.18956  0.11044  0.48919  1.0000
  H   H44       1.0  0.23523  0.13598  0.56301  1.0000
  H   H45       1.0  0.17441  0.10818  0.54262  1.0000
  H   H46       1.0  0.29350  0.15695  0.49916  1.0000
  C   C78       1.0  0.33969  0.16823  0.37526  1.0000
  H   H47       1.0  0.34909  0.17146  0.43706  1.0000
  C   C79       1.0  0.89912  0.07801  0.40438  1.0000
  C   C80       1.0  0.91475  0.05804  0.38953  1.0000
  H   H48       1.0  0.91662  0.04423  0.44145  1.0000
  C   C81       1.0  0.87936  0.11561  0.34300  1.0000
  C   C82       1.0  0.84628  0.15439  0.36410  1.0000
  C   C83       1.0  0.85020  0.13695  0.43780  1.0000
  C   C84       1.0  0.86656  0.11737  0.42837  1.0000
  C   C85       1.0  0.87034  0.09954  0.50099  1.0000
  C   C86       1.0  0.88644  0.07999  0.48907  1.0000
  H   H49       1.0  0.86122  0.10047  0.56290  1.0000
  H   H50       1.0  0.88866  0.06710  0.54255  1.0000
  H   H51       1.0  0.84081  0.13827  0.49910  1.0000
  C   C87       1.0  0.83021  0.17364  0.37515  1.0000
  H   H52       1.0  0.82899  0.18170  0.43637  1.0000
  C   C88       1.0  0.91905  0.82188  0.40447  1.0000
  C   C89       1.0  0.93880  0.85749  0.38947  1.0000
  H   H53       1.0  0.95257  0.87323  0.44131  1.0000
  C   C90       1.0  0.88193  0.76437  0.34326  1.0000
  C   C91       1.0  0.84449  0.69239  0.36419  1.0000
  C   C92       1.0  0.86165  0.71395  0.43786  1.0000
  C   C93       1.0  0.88053  0.74993  0.42856  1.0000
  C   C94       1.0  0.89814  0.77165  0.50115  1.0000
  C   C95       1.0  0.91727  0.80732  0.48920  1.0000
  H   H54       1.0  0.89747  0.76167  0.56302  1.0000
  H   H55       1.0  0.93010  0.82251  0.54260  1.0000
  H   H56       1.0  0.86074  0.70336  0.49910  1.0000
  C   C96       1.0  0.82643  0.65695  0.37514  1.0000
  H   H57       1.0  0.82227  0.64749  0.43701  1.0000
  C   C97       1.0  0.51142  0.17195  0.37175  1.0000
  C   C98       1.0  0.52958  0.16853  0.44520  1.0000
  N   N19       1.0  0.55456  0.16075  0.42910  1.0000
  C   C99       1.0  0.56352  0.15534  0.34678  1.0000
  C   C100      1.0  0.64044  0.15058  0.39957  1.0000
  N   N20       1.0  0.61126  0.15205  0.40686  1.0000
  H   H58       1.0  0.65417  0.15304  0.45622  1.0000
  C   C101      1.0  0.52399  0.17418  0.53980  1.0000
  H   H59       1.0  0.49712  0.15763  0.55734  1.0000
  H   H60       1.0  0.53097  0.20083  0.55012  1.0000
  H   H61       1.0  0.53943  0.16841  0.58506  1.0000
  C   C102      1.0  0.49073  0.18652  0.38208  1.0000
  H   H62       1.0  0.49699  0.20403  0.42981  1.0000
  C   C103      1.0  0.82476  0.33999  0.37196  1.0000
  C   C104      1.0  0.82824  0.36156  0.44552  1.0000
  N   N21       1.0  0.83598  0.39432  0.42954  1.0000
  C   C105      1.0  0.84132  0.40871  0.34727  1.0000
  C   C106      1.0  0.84618  0.49043  0.40043  1.0000
  N   N22       1.0  0.84468  0.45976  0.40759  1.0000
  H   H63       1.0  0.84380  0.50171  0.45715  1.0000
  C   C107      1.0  0.82269  0.35031  0.54011  1.0000
  H   H64       1.0  0.83927  0.33999  0.55741  1.0000
  H   H65       1.0  0.79605  0.33061  0.55058  1.0000
  H   H66       1.0  0.82849  0.37151  0.58544  1.0000
  C   C108      1.0  0.81021  0.30472  0.38230  1.0000
  H   H67       1.0  0.79261  0.29350  0.42983  1.0000
  C   C109      1.0  0.65669  0.48508  0.37161  1.0000
  C   C110      1.0  0.63512  0.46698  0.44515  1.0000
  N   N23       1.0  0.60235  0.44201  0.42910  1.0000
  C   C111      1.0  0.58797  0.43304  0.34682  1.0000
  C   C112      1.0  0.50623  0.35621  0.39984  1.0000
  N   N24       1.0  0.53691  0.38536  0.40704  1.0000
  H   H68       1.0  0.49498  0.34251  0.45651  1.0000
  C   C113      1.0  0.64637  0.47261  0.53974  1.0000
  H   H69       1.0  0.65671  0.49949  0.55718  1.0000
  H   H70       1.0  0.66604  0.46562  0.55011  1.0000
  H   H71       1.0  0.62516  0.45720  0.58503  1.0000
  C   C114      1.0  0.69195  0.50588  0.38195  1.0000
  H   H72       1.0  0.70321  0.49982  0.43010  1.0000
