data_image0
_chemical_formula_structural       C8HC7HCH4N3C8HC7HCH4N4C2HC4HN2H2O2CHC2HC4HN2H2O2CHC2HC4HN2H2O2CHC2HC4HN2H2O2CHC2HC4HN2H2O2CHC2HC4HN2H2O2CHC8HC7HCH4N5C6H2NH2NO2CHC6H2NH2NO2CHC6H2NH2NO2CHC6H2NH2NO2CHC6H2NH2NO2CHC6H2NH2NO2CH
_chemical_formula_sum              "C132 H78 N36 O24"
_cell_length_a       38.4281
_cell_length_b       38.4282
_cell_length_c       14.9444
_cell_angle_alpha    90.0002
_cell_angle_beta     89.9998
_cell_angle_gamma    120

_space_group_name_H-M_alt    "P 1"
_space_group_IT_number       1

loop_
  _space_group_symop_operation_xyz
  'x, y, z'

loop_
  _atom_site_type_symbol
  _atom_site_label
  _atom_site_symmetry_multiplicity
  _atom_site_fract_x
  _atom_site_fract_y
  _atom_site_fract_z
  _atom_site_occupancy
  C   C1        1.0  0.55480  0.57931  0.34008  1.0000
  C   C2        1.0  0.59245  0.58033  0.34039  1.0000
  C   C3        1.0  0.62904  0.61769  0.34338  1.0000
  C   C4        1.0  0.62751  0.65365  0.34593  1.0000
  C   C5        1.0  0.59079  0.65351  0.34427  1.0000
  C   C6        1.0  0.55412  0.61614  0.34124  1.0000
  C   C7        1.0  0.59233  0.54348  0.33952  1.0000
  C   C8        1.0  0.51643  0.61420  0.34032  1.0000
  H   H1        1.0  0.65378  0.68066  0.34742  1.0000
  C   C9        1.0  0.51796  0.54153  0.34007  1.0000
  C   C10       1.0  0.51864  0.50471  0.34122  1.0000
  C   C11       1.0  0.48196  0.46734  0.34424  1.0000
  C   C12       1.0  0.44524  0.46720  0.34587  1.0000
  C   C13       1.0  0.44372  0.50317  0.34334  1.0000
  C   C14       1.0  0.48030  0.54052  0.34037  1.0000
  C   C15       1.0  0.55633  0.50665  0.34029  1.0000
  H   H2        1.0  0.41898  0.44018  0.34737  1.0000
  C   C16       1.0  0.48042  0.57737  0.33952  1.0000
  H   H3        1.0  0.55839  0.48123  0.33993  1.0000
  H   H4        1.0  0.61863  0.54281  0.33968  1.0000
  H   H5        1.0  0.45413  0.57804  0.33969  1.0000
  H   H6        1.0  0.51436  0.63961  0.33997  1.0000
  N   N1        1.0  0.59327  0.68928  0.35249  1.0000
  N   N2        1.0  0.40863  0.50256  0.34141  1.0000
  N   N3        1.0  0.47947  0.43156  0.35243  1.0000
  C   C17       1.0  0.51750  0.05996  0.34017  1.0000
  C   C18       1.0  0.51648  0.09659  0.34049  1.0000
  C   C19       1.0  0.47913  0.09582  0.34346  1.0000
  C   C20       1.0  0.44316  0.05834  0.34603  1.0000
  C   C21       1.0  0.44331  0.02176  0.34453  1.0000
  C   C22       1.0  0.48067  0.02245  0.34137  1.0000
  C   C23       1.0  0.55333  0.13333  0.33959  1.0000
  C   C24       1.0  0.48262  0.98670  0.34044  1.0000
  H   H7        1.0  0.41615  0.05759  0.34753  1.0000
  C   C25       1.0  0.55528  0.06090  0.34017  1.0000
  C   C26       1.0  0.59210  0.09840  0.34136  1.0000
  C   C27       1.0  0.62947  0.09910  0.34451  1.0000
  C   C28       1.0  0.62961  0.06252  0.34598  1.0000
  C   C29       1.0  0.59365  0.02503  0.34341  1.0000
  C   C30       1.0  0.55630  0.02426  0.34045  1.0000
  C   C31       1.0  0.59016  0.13415  0.34044  1.0000
  H   H8        1.0  0.65663  0.06327  0.34749  1.0000
  C   C32       1.0  0.51945  0.98753  0.33956  1.0000
  H   H9        1.0  0.61557  0.16164  0.34014  1.0000
  H   H10       1.0  0.55399  0.16029  0.33982  1.0000
  H   H11       1.0  0.51878  0.96057  0.33979  1.0000
  H   H12       1.0  0.45720  0.95922  0.34015  1.0000
  N   N4        1.0  0.40753  0.98846  0.35260  1.0000
  N   N5        1.0  0.47852  0.13031  0.34149  1.0000
  N   N6        1.0  0.59426  0.99054  0.34146  1.0000
  N   N7        1.0  0.66524  0.13240  0.35259  1.0000
  C   C33       1.0  0.29993  0.50131  0.26520  1.0000
  C   C34       1.0  0.33310  0.49544  0.27944  1.0000
  H   H13       1.0  0.35153  0.49885  0.22656  1.0000
  C   C35       1.0  0.23870  0.49940  0.33028  1.0000
  C   C36       1.0  0.16901  0.50749  0.31288  1.0000
  C   C37       1.0  0.17301  0.47871  0.26067  1.0000
  C   C38       1.0  0.20744  0.47466  0.27106  1.0000
  H   H14       1.0  0.20994  0.45376  0.23342  1.0000
  N   N8        1.0  0.14252  0.45417  0.19869  1.0000
  N   N9        1.0  0.29507  0.51305  0.18230  1.0000
  H   H15       1.0  0.31375  0.51732  0.13377  1.0000
  H   H16       1.0  0.27452  0.52006  0.16996  1.0000
  O   O1        1.0  0.15592  0.45960  0.12011  1.0000
  O   O2        1.0  0.12706  0.41755  0.21795  1.0000
  C   C39       1.0  0.13675  0.51332  0.29543  1.0000
  H   H17       1.0  0.13490  0.52352  0.23534  1.0000
  C   C40       1.0  0.59553  0.88310  0.26522  1.0000
  C   C41       1.0  0.60139  0.92215  0.27947  1.0000
  H   H18       1.0  0.59798  0.93717  0.22659  1.0000
  C   C42       1.0  0.59744  0.82379  0.33027  1.0000
  C   C43       1.0  0.58934  0.74601  0.31282  1.0000
  C   C44       1.0  0.61814  0.77880  0.26065  1.0000
  C   C45       1.0  0.62218  0.81727  0.27107  1.0000
  H   H19       1.0  0.64310  0.84068  0.23345  1.0000
  N   N10       1.0  0.64268  0.77286  0.19868  1.0000
  N   N11       1.0  0.58380  0.86652  0.18230  1.0000
  H   H20       1.0  0.57953  0.88093  0.13378  1.0000
  H   H21       1.0  0.57679  0.83896  0.16996  1.0000
  O   O3        1.0  0.63727  0.78084  0.12010  1.0000
  O   O4        1.0  0.67930  0.79401  0.21797  1.0000
  C   C46       1.0  0.58349  0.70791  0.29532  1.0000
  H   H22       1.0  0.57334  0.69591  0.23516  1.0000
  C   C47       1.0  0.21373  0.79688  0.26518  1.0000
  C   C48       1.0  0.17468  0.76370  0.27942  1.0000
  H   H23       1.0  0.15966  0.74527  0.22655  1.0000
  C   C49       1.0  0.27305  0.85810  0.33024  1.0000
  C   C50       1.0  0.35082  0.92779  0.31283  1.0000
  C   C51       1.0  0.31804  0.92379  0.26063  1.0000
  C   C52       1.0  0.27957  0.88936  0.27102  1.0000
  H   H24       1.0  0.25616  0.88686  0.23339  1.0000
  N   N12       1.0  0.32398  0.95428  0.19865  1.0000
  N   N13       1.0  0.23032  0.80173  0.18227  1.0000
  H   H25       1.0  0.21591  0.78305  0.13375  1.0000
  H   H26       1.0  0.25788  0.82228  0.16994  1.0000
  O   O5        1.0  0.31602  0.94089  0.12007  1.0000
  O   O6        1.0  0.30283  0.96974  0.21791  1.0000
  C   C53       1.0  0.38891  0.96006  0.29539  1.0000
  H   H27       1.0  0.40097  0.96189  0.23533  1.0000
  C   C54       1.0  0.77282  0.61954  0.26520  1.0000
  C   C55       1.0  0.73965  0.62541  0.27946  1.0000
  H   H28       1.0  0.72122  0.62200  0.22657  1.0000
  C   C56       1.0  0.83406  0.62145  0.33023  1.0000
  C   C57       1.0  0.90375  0.61338  0.31275  1.0000
  C   C58       1.0  0.89974  0.64217  0.26058  1.0000
  C   C59       1.0  0.86531  0.64620  0.27102  1.0000
  H   H29       1.0  0.86281  0.66711  0.23340  1.0000
  N   N14       1.0  0.93022  0.66671  0.19860  1.0000
  N   N15       1.0  0.77768  0.60781  0.18228  1.0000
  H   H30       1.0  0.75900  0.60354  0.13376  1.0000
  H   H31       1.0  0.79823  0.60080  0.16993  1.0000
  O   O7        1.0  0.91683  0.66129  0.12003  1.0000
  O   O8        1.0  0.94568  0.70333  0.21789  1.0000
  C   C60       1.0  0.93602  0.60756  0.29525  1.0000
  H   H32       1.0  0.93783  0.59733  0.23516  1.0000
  C   C61       1.0  0.47727  0.23775  0.26522  1.0000
  C   C62       1.0  0.47140  0.19871  0.27948  1.0000
  H   H33       1.0  0.47480  0.18368  0.22661  1.0000
  C   C63       1.0  0.47536  0.29707  0.33024  1.0000
  C   C64       1.0  0.48343  0.37484  0.31277  1.0000
  C   C65       1.0  0.45464  0.34205  0.26059  1.0000
  C   C66       1.0  0.45061  0.30358  0.27103  1.0000
  H   H34       1.0  0.42970  0.28016  0.23342  1.0000
  N   N16       1.0  0.43009  0.34798  0.19862  1.0000
  N   N17       1.0  0.48900  0.25433  0.18230  1.0000
  H   H35       1.0  0.49326  0.23992  0.13378  1.0000
  H   H36       1.0  0.49601  0.28189  0.16994  1.0000
  O   O9        1.0  0.43552  0.34000  0.12004  1.0000
  O   O10       1.0  0.39348  0.32682  0.21790  1.0000
  C   C67       1.0  0.48925  0.41293  0.29526  1.0000
  H   H37       1.0  0.49948  0.42497  0.23517  1.0000
  C   C68       1.0  0.85905  0.32398  0.26521  1.0000
  C   C69       1.0  0.89810  0.35716  0.27947  1.0000
  H   H38       1.0  0.91312  0.37559  0.22660  1.0000
  C   C70       1.0  0.79973  0.26275  0.33025  1.0000
  C   C71       1.0  0.72195  0.19306  0.31283  1.0000
  C   C72       1.0  0.75474  0.19707  0.26063  1.0000
  C   C73       1.0  0.79321  0.23149  0.27104  1.0000
  H   H39       1.0  0.81662  0.23399  0.23340  1.0000
  N   N18       1.0  0.74879  0.16658  0.19865  1.0000
  N   N19       1.0  0.84247  0.31913  0.18229  1.0000
  H   H40       1.0  0.85688  0.33781  0.13378  1.0000
  H   H41       1.0  0.81491  0.29858  0.16994  1.0000
  O   O11       1.0  0.75676  0.17997  0.12008  1.0000
  O   O12       1.0  0.76995  0.15112  0.21791  1.0000
  C   C74       1.0  0.68386  0.16080  0.29538  1.0000
  H   H42       1.0  0.67181  0.15895  0.23529  1.0000
  C   C75       1.0  0.03685  0.54201  0.34017  1.0000
  C   C76       1.0  0.00022  0.50436  0.34048  1.0000
  C   C77       1.0  0.00099  0.46777  0.34346  1.0000
  C   C78       1.0  0.03847  0.46929  0.34606  1.0000
  C   C79       1.0  0.07505  0.50601  0.34456  1.0000
  C   C80       1.0  0.07436  0.54269  0.34139  1.0000
  C   C81       1.0  0.96349  0.50448  0.33955  1.0000
  C   C82       1.0  0.11011  0.58038  0.34046  1.0000
  H   H43       1.0  0.03922  0.44303  0.34754  1.0000
  C   C83       1.0  0.03592  0.57885  0.34012  1.0000
  C   C84       1.0  0.99841  0.57817  0.34124  1.0000
  C   C85       1.0  0.99772  0.61485  0.34424  1.0000
  C   C86       1.0  0.03430  0.65156  0.34588  1.0000
  C   C87       1.0  0.07179  0.65309  0.34337  1.0000
  C   C88       1.0  0.07256  0.61650  0.34043  1.0000
  C   C89       1.0  0.96266  0.54048  0.34031  1.0000
  H   H44       1.0  0.03355  0.67784  0.34733  1.0000
  C   C90       1.0  0.10929  0.61639  0.33960  1.0000
  H   H45       1.0  0.93518  0.53842  0.33991  1.0000
  H   H46       1.0  0.93653  0.47818  0.33969  1.0000
  H   H47       1.0  0.13625  0.64268  0.33979  1.0000
  H   H48       1.0  0.13759  0.58245  0.34018  1.0000
  N   N20       1.0  0.10835  0.50353  0.35264  1.0000
  N   N21       1.0  0.96649  0.43268  0.34149  1.0000
  N   N22       1.0  0.10628  0.68818  0.34143  1.0000
  N   N23       1.0  0.96443  0.61734  0.35241  1.0000
  N   N24       1.0  0.66413  0.61829  0.34145  1.0000
  C   C91       1.0  0.34167  0.48509  0.36422  1.0000
  C   C92       1.0  0.31610  0.48041  0.43722  1.0000
  C   C93       1.0  0.28262  0.48570  0.42328  1.0000
  C   C94       1.0  0.27383  0.49575  0.33841  1.0000
  C   C95       1.0  0.23383  0.52708  0.38323  1.0000
  C   C96       1.0  0.19951  0.53158  0.37616  1.0000
  H   H49       1.0  0.25624  0.54492  0.42702  1.0000
  H   H50       1.0  0.26409  0.48155  0.47644  1.0000
  N   N25       1.0  0.19773  0.55923  0.43012  1.0000
  H   H51       1.0  0.21894  0.57505  0.47303  1.0000
  H   H52       1.0  0.17452  0.56280  0.43121  1.0000
  N   N26       1.0  0.32449  0.47087  0.52330  1.0000
  O   O13       1.0  0.29612  0.43802  0.55119  1.0000
  O   O14       1.0  0.33093  0.49792  0.57913  1.0000
  C   C97       1.0  0.37381  0.47838  0.37453  1.0000
  H   H53       1.0  0.37009  0.45526  0.41161  1.0000
  C   C98       1.0  0.61173  0.94106  0.36426  1.0000
  C   C99       1.0  0.61641  0.92017  0.43725  1.0000
  C   C100      1.0  0.61112  0.88140  0.42330  1.0000
  C   C101      1.0  0.60108  0.86256  0.33842  1.0000
  C   C102      1.0  0.56974  0.79122  0.38319  1.0000
  C   C103      1.0  0.56524  0.75241  0.37609  1.0000
  H   H54       1.0  0.55190  0.79580  0.42698  1.0000
  H   H55       1.0  0.61526  0.86700  0.47645  1.0000
  N   N27       1.0  0.53757  0.72297  0.43001  1.0000
  H   H56       1.0  0.52175  0.72836  0.47291  1.0000
  H   H57       1.0  0.53399  0.69618  0.43106  1.0000
  N   N28       1.0  0.62594  0.93809  0.52334  1.0000
  O   O15       1.0  0.65878  0.94255  0.55124  1.0000
  O   O16       1.0  0.59888  0.91747  0.57915  1.0000
  C   C104      1.0  0.61844  0.97991  0.37458  1.0000
  H   H58       1.0  0.64154  0.99930  0.41169  1.0000
  C   C105      1.0  0.15577  0.75513  0.36421  1.0000
  C   C106      1.0  0.17666  0.78071  0.43721  1.0000
  C   C107      1.0  0.21543  0.81419  0.42326  1.0000
  C   C108      1.0  0.23427  0.82298  0.33839  1.0000
  C   C109      1.0  0.30561  0.86298  0.38319  1.0000
  C   C110      1.0  0.34442  0.89729  0.37612  1.0000
  H   H59       1.0  0.30103  0.84056  0.42699  1.0000
  H   H60       1.0  0.22982  0.83272  0.47641  1.0000
  N   N29       1.0  0.37385  0.89908  0.43007  1.0000
  H   H61       1.0  0.36845  0.87786  0.47299  1.0000
  H   H62       1.0  0.40064  0.92229  0.43116  1.0000
  N   N30       1.0  0.15873  0.77232  0.52329  1.0000
  O   O17       1.0  0.15426  0.80070  0.55118  1.0000
  O   O18       1.0  0.17933  0.76588  0.57911  1.0000
  C   C111      1.0  0.11691  0.72300  0.37452  1.0000
  H   H63       1.0  0.09751  0.72672  0.41161  1.0000
  C   C112      1.0  0.73108  0.63575  0.36424  1.0000
  C   C113      1.0  0.75665  0.64043  0.43723  1.0000
  C   C114      1.0  0.79014  0.63513  0.42328  1.0000
  C   C115      1.0  0.79893  0.62509  0.33839  1.0000
  C   C116      1.0  0.83894  0.59377  0.38315  1.0000
  C   C117      1.0  0.87326  0.58927  0.37603  1.0000
  H   H64       1.0  0.81653  0.57592  0.42694  1.0000
  H   H65       1.0  0.80867  0.63928  0.47642  1.0000
  N   N31       1.0  0.87505  0.56162  0.42995  1.0000
  H   H66       1.0  0.85384  0.54579  0.47287  1.0000
  H   H67       1.0  0.89826  0.55805  0.43101  1.0000
  N   N32       1.0  0.74827  0.64996  0.52332  1.0000
  O   O19       1.0  0.77664  0.68280  0.55122  1.0000
  O   O20       1.0  0.74183  0.62291  0.57913  1.0000
  C   C118      1.0  0.69894  0.64246  0.37457  1.0000
  H   H68       1.0  0.70266  0.66557  0.41168  1.0000
  C   C119      1.0  0.46106  0.17980  0.36428  1.0000
  C   C120      1.0  0.45638  0.20070  0.43727  1.0000
  C   C121      1.0  0.46167  0.23947  0.42330  1.0000
  C   C122      1.0  0.47171  0.25830  0.33841  1.0000
  C   C123      1.0  0.50304  0.32965  0.38316  1.0000
  C   C124      1.0  0.50754  0.36845  0.37605  1.0000
  H   H69       1.0  0.52089  0.32508  0.42696  1.0000
  H   H70       1.0  0.45753  0.25387  0.47645  1.0000
  N   N33       1.0  0.53519  0.39790  0.42997  1.0000
  H   H71       1.0  0.55101  0.39252  0.47289  1.0000
  H   H72       1.0  0.53876  0.42469  0.43103  1.0000
  N   N34       1.0  0.44685  0.18278  0.52336  1.0000
  O   O21       1.0  0.41401  0.17832  0.55126  1.0000
  O   O22       1.0  0.47390  0.20340  0.57917  1.0000
  C   C125      1.0  0.45435  0.14095  0.37461  1.0000
  H   H73       1.0  0.43124  0.12156  0.41174  1.0000
  C   C126      1.0  0.91700  0.36572  0.36426  1.0000
  C   C127      1.0  0.89611  0.34015  0.43725  1.0000
  C   C128      1.0  0.85734  0.30667  0.42329  1.0000
  C   C129      1.0  0.83850  0.29788  0.33841  1.0000
  C   C130      1.0  0.76717  0.25788  0.38319  1.0000
  C   C131      1.0  0.72836  0.22356  0.37612  1.0000
  H   H74       1.0  0.77174  0.28029  0.42699  1.0000
  H   H75       1.0  0.84295  0.28813  0.47643  1.0000
  N   N35       1.0  0.69892  0.22178  0.43007  1.0000
  H   H76       1.0  0.70432  0.24299  0.47298  1.0000
  H   H77       1.0  0.67214  0.19857  0.43116  1.0000
  N   N36       1.0  0.91403  0.34853  0.52334  1.0000
  O   O23       1.0  0.91849  0.32015  0.55123  1.0000
  O   O24       1.0  0.89342  0.35497  0.57915  1.0000
  C   C132      1.0  0.95586  0.39786  0.37459  1.0000
  H   H78       1.0  0.97525  0.39414  0.41171  1.0000
