data_image0
_chemical_formula_structural       CHC4HC9HC7HCH4N3C8HC7HCH4N4C4H3CH3CHC4H3CH3CHC4H3CH3CHC4H3CH3CHC4H3CH3CHC4H3CH3CHC10H4N5C4H3CH3CHC4H3CH3CHC4H3CH3CHC4H3CH3CHC4H3CH3CHC4H3CH3CH
_chemical_formula_sum              "C120 H102 N12"
_cell_length_a       30.8795
_cell_length_b       30.8794
_cell_length_c       14.9193
_cell_angle_alpha    90.0004
_cell_angle_beta     89.9996
_cell_angle_gamma    120

_space_group_name_H-M_alt    "P 1"
_space_group_IT_number       1

loop_
  _space_group_symop_operation_xyz
  'x, y, z'

loop_
  _atom_site_type_symbol
  _atom_site_label
  _atom_site_symmetry_multiplicity
  _atom_site_fract_x
  _atom_site_fract_y
  _atom_site_fract_z
  _atom_site_occupancy
  C   C1        1.0  0.03945  0.45750  0.32419  1.0000
  H   H1        1.0  0.03766  0.42352  0.32621  1.0000
  C   C2        1.0  0.00474  0.64984  0.33009  1.0000
  C   C3        1.0  0.04468  0.55161  0.33041  1.0000
  C   C4        1.0  0.04692  0.59933  0.33041  1.0000
  C   C5        1.0  0.05214  0.69344  0.32417  1.0000
  H   H2        1.0  0.05395  0.72742  0.32619  1.0000
  C   C6        1.0  0.08686  0.50110  0.33014  1.0000
  C   C7        1.0  0.56966  0.59821  0.33045  1.0000
  C   C8        1.0  0.61476  0.59614  0.32770  1.0000
  C   C9        1.0  0.66230  0.64063  0.32517  1.0000
  C   C10       1.0  0.66376  0.68710  0.32426  1.0000
  C   C11       1.0  0.62016  0.69090  0.33015  1.0000
  C   C12       1.0  0.57269  0.64594  0.32930  1.0000
  C   C13       1.0  0.61054  0.54868  0.31955  1.0000
  C   C14       1.0  0.52746  0.64627  0.31849  1.0000
  H   H3        1.0  0.69774  0.71928  0.32630  1.0000
  C   C15       1.0  0.52194  0.55273  0.33047  1.0000
  C   C16       1.0  0.51890  0.50500  0.32927  1.0000
  C   C17       1.0  0.47143  0.46004  0.33016  1.0000
  C   C18       1.0  0.42783  0.46385  0.32433  1.0000
  C   C19       1.0  0.42930  0.51032  0.32521  1.0000
  C   C20       1.0  0.47683  0.55480  0.32778  1.0000
  C   C21       1.0  0.56414  0.50469  0.31829  1.0000
  H   H4        1.0  0.39385  0.43166  0.32626  1.0000
  C   C22       1.0  0.48106  0.60226  0.31962  1.0000
  H   H5        1.0  0.56444  0.47281  0.30236  1.0000
  H   H6        1.0  0.64121  0.54531  0.30881  1.0000
  H   H7        1.0  0.45039  0.60563  0.30878  1.0000
  H   H8        1.0  0.52715  0.67811  0.30229  1.0000
  N   N1        1.0  0.62949  0.73889  0.33860  1.0000
  N   N2        1.0  0.38655  0.51319  0.32821  1.0000
  N   N3        1.0  0.46210  0.41205  0.33858  1.0000
  C   C23       1.0  0.52305  0.07659  0.33075  1.0000
  C   C24       1.0  0.52512  0.12376  0.32792  1.0000
  C   C25       1.0  0.48064  0.12681  0.32530  1.0000
  C   C26       1.0  0.43417  0.08181  0.32443  1.0000
  C   C27       1.0  0.43036  0.03441  0.33036  1.0000
  C   C28       1.0  0.47532  0.03189  0.32959  1.0000
  C   C29       1.0  0.57258  0.16700  0.31980  1.0000
  C   C30       1.0  0.47500  0.98634  0.31870  1.0000
  H   H9        1.0  0.40199  0.08362  0.32628  1.0000
  C   C31       1.0  0.56853  0.07434  0.33077  1.0000
  C   C32       1.0  0.61626  0.11904  0.32957  1.0000
  C   C33       1.0  0.66122  0.11653  0.33039  1.0000
  C   C34       1.0  0.65741  0.06913  0.32455  1.0000
  C   C35       1.0  0.61094  0.02412  0.32541  1.0000
  C   C36       1.0  0.56646  0.02717  0.32805  1.0000
  C   C37       1.0  0.61658  0.16459  0.31860  1.0000
  H   H10       1.0  0.68959  0.06732  0.32629  1.0000
  C   C38       1.0  0.51900  0.98393  0.31997  1.0000
  H   H11       1.0  0.64843  0.19672  0.30231  1.0000
  H   H12       1.0  0.57593  0.20101  0.30869  1.0000
  H   H13       1.0  0.51564  0.94992  0.30884  1.0000
  H   H14       1.0  0.44316  0.95419  0.30242  1.0000
  N   N4        1.0  0.38237  0.99575  0.33869  1.0000
  N   N5        1.0  0.48351  0.17243  0.32829  1.0000
  N   N6        1.0  0.60807  0.97850  0.32837  1.0000
  N   N7        1.0  0.70922  0.15519  0.33868  1.0000
  C   C39       1.0  0.29609  0.48921  0.33289  1.0000
  C   C40       1.0  0.24596  0.45119  0.31111  1.0000
  C   C41       1.0  0.20672  0.46314  0.30900  1.0000
  C   C42       1.0  0.23392  0.39857  0.29197  1.0000
  H   H15       1.0  0.25110  0.38632  0.34243  1.0000
  H   H16       1.0  0.24775  0.39648  0.22570  1.0000
  H   H17       1.0  0.19410  0.37131  0.29530  1.0000
  C   C43       1.0  0.16207  0.43375  0.25000  1.0000
  H   H18       1.0  0.15542  0.45905  0.20883  1.0000
  H   H19       1.0  0.12912  0.41052  0.29081  1.0000
  H   H20       1.0  0.16665  0.40969  0.20211  1.0000
  C   C44       1.0  0.33692  0.48030  0.31839  1.0000
  H   H21       1.0  0.32930  0.44630  0.29489  1.0000
  C   C45       1.0  0.63204  0.91201  0.33299  1.0000
  C   C46       1.0  0.67008  0.89992  0.31126  1.0000
  C   C47       1.0  0.65814  0.84872  0.30915  1.0000
  C   C48       1.0  0.72270  0.94050  0.29219  1.0000
  H   H22       1.0  0.73492  0.96991  0.34266  1.0000
  H   H23       1.0  0.72482  0.95644  0.22592  1.0000
  H   H24       1.0  0.74996  0.92794  0.29554  1.0000
  C   C49       1.0  0.68754  0.83349  0.25016  1.0000
  H   H25       1.0  0.66225  0.80154  0.20897  1.0000
  H   H26       1.0  0.71076  0.82376  0.29098  1.0000
  H   H27       1.0  0.71161  0.86213  0.20230  1.0000
  C   C50       1.0  0.64095  0.96176  0.31851  1.0000
  H   H28       1.0  0.67496  0.98814  0.29504  1.0000
  C   C51       1.0  0.20924  0.82517  0.33285  1.0000
  C   C52       1.0  0.22135  0.87531  0.31112  1.0000
  C   C53       1.0  0.27254  0.91456  0.30907  1.0000
  C   C54       1.0  0.18077  0.88734  0.29195  1.0000
  H   H29       1.0  0.15134  0.87016  0.34240  1.0000
  H   H30       1.0  0.16487  0.87353  0.22568  1.0000
  H   H31       1.0  0.19334  0.92717  0.29530  1.0000
  C   C55       1.0  0.28781  0.95921  0.25009  1.0000
  H   H32       1.0  0.31978  0.96588  0.20895  1.0000
  H   H33       1.0  0.29751  0.99215  0.29091  1.0000
  H   H34       1.0  0.25919  0.95464  0.20218  1.0000
  C   C56       1.0  0.15951  0.78434  0.31829  1.0000
  H   H35       1.0  0.13313  0.79198  0.29482  1.0000
  C   C57       1.0  0.79551  0.66174  0.33290  1.0000
  C   C58       1.0  0.84564  0.69978  0.31118  1.0000
  C   C59       1.0  0.88489  0.68784  0.30908  1.0000
  C   C60       1.0  0.85767  0.75240  0.29210  1.0000
  H   H36       1.0  0.84048  0.76462  0.34256  1.0000
  H   H37       1.0  0.84387  0.75452  0.22582  1.0000
  H   H38       1.0  0.89750  0.77966  0.29548  1.0000
  C   C61       1.0  0.92955  0.71725  0.25012  1.0000
  H   H39       1.0  0.93621  0.69197  0.20892  1.0000
  H   H40       1.0  0.96249  0.74046  0.29097  1.0000
  H   H41       1.0  0.92498  0.74133  0.20227  1.0000
  C   C62       1.0  0.75467  0.67064  0.31839  1.0000
  H   H42       1.0  0.76230  0.70465  0.29490  1.0000
  C   C63       1.0  0.45954  0.23892  0.33294  1.0000
  C   C64       1.0  0.42152  0.25102  0.31118  1.0000
  C   C65       1.0  0.43346  0.30222  0.30908  1.0000
  C   C66       1.0  0.36890  0.21044  0.29209  1.0000
  H   H43       1.0  0.35666  0.18103  0.34256  1.0000
  H   H44       1.0  0.36678  0.19451  0.22582  1.0000
  H   H45       1.0  0.34164  0.22301  0.29544  1.0000
  C   C67       1.0  0.40406  0.31746  0.25011  1.0000
  H   H46       1.0  0.42935  0.34942  0.20892  1.0000
  H   H47       1.0  0.38084  0.32718  0.29094  1.0000
  H   H48       1.0  0.37999  0.28882  0.20223  1.0000
  C   C68       1.0  0.45064  0.18918  0.31843  1.0000
  H   H49       1.0  0.41663  0.16280  0.29494  1.0000
  C   C69       1.0  0.88234  0.32577  0.33281  1.0000
  C   C70       1.0  0.87024  0.27563  0.31116  1.0000
  C   C71       1.0  0.81905  0.23638  0.30910  1.0000
  C   C72       1.0  0.91082  0.26358  0.29213  1.0000
  H   H50       1.0  0.94024  0.28079  0.34260  1.0000
  H   H51       1.0  0.92675  0.27737  0.22586  1.0000
  H   H52       1.0  0.89826  0.22376  0.29556  1.0000
  C   C73       1.0  0.80381  0.19170  0.25021  1.0000
  H   H53       1.0  0.77185  0.18501  0.20901  1.0000
  H   H54       1.0  0.79409  0.15877  0.29109  1.0000
  H   H55       1.0  0.83244  0.19625  0.20234  1.0000
  C   C74       1.0  0.93208  0.36660  0.31829  1.0000
  H   H56       1.0  0.95846  0.35896  0.29485  1.0000
  C   C75       1.0  0.99751  0.50651  0.32768  1.0000
  C   C76       1.0  0.99445  0.45897  0.32510  1.0000
  C   C77       1.0  0.08937  0.54857  0.32924  1.0000
  C   C78       1.0  0.95427  0.51073  0.31952  1.0000
  C   C79       1.0  0.13493  0.59381  0.31831  1.0000
  C   C80       1.0  0.00222  0.60236  0.32925  1.0000
  C   C81       1.0  0.09714  0.69197  0.32508  1.0000
  C   C82       1.0  0.09409  0.64443  0.32764  1.0000
  C   C83       1.0  0.95665  0.55713  0.31849  1.0000
  C   C84       1.0  0.13734  0.64022  0.31953  1.0000
  H   H57       1.0  0.92451  0.55683  0.30222  1.0000
  H   H58       1.0  0.92024  0.48007  0.30870  1.0000
  H   H59       1.0  0.17136  0.67088  0.30869  1.0000
  H   H60       1.0  0.16709  0.59410  0.30229  1.0000
  N   N8        1.0  0.12551  0.49177  0.33852  1.0000
  N   N9        1.0  0.94883  0.41623  0.32811  1.0000
  N   N10       1.0  0.14276  0.73471  0.32811  1.0000
  N   N11       1.0  0.96608  0.65917  0.33853  1.0000
  N   N12       1.0  0.70504  0.63776  0.32819  1.0000
  C   C85       1.0  0.21209  0.50525  0.35844  1.0000
  C   C86       1.0  0.25974  0.53764  0.39829  1.0000
  C   C87       1.0  0.30242  0.53457  0.37102  1.0000
  C   C88       1.0  0.35271  0.58066  0.37655  1.0000
  H   H61       1.0  0.35189  0.61459  0.39326  1.0000
  H   H62       1.0  0.36992  0.58779  0.31049  1.0000
  H   H63       1.0  0.37598  0.57599  0.42626  1.0000
  C   C89       1.0  0.26513  0.57314  0.47211  1.0000
  H   H64       1.0  0.23347  0.55538  0.51816  1.0000
  H   H65       1.0  0.26717  0.60676  0.44404  1.0000
  H   H66       1.0  0.29815  0.58412  0.51353  1.0000
  C   C90       1.0  0.17375  0.51815  0.36599  1.0000
  H   H67       1.0  0.18217  0.55024  0.39872  1.0000
  C   C91       1.0  0.61601  0.81198  0.35854  1.0000
  C   C92       1.0  0.58359  0.82722  0.39835  1.0000
  C   C93       1.0  0.58667  0.87297  0.37108  1.0000
  C   C94       1.0  0.54058  0.87718  0.37658  1.0000
  H   H68       1.0  0.50664  0.84241  0.39323  1.0000
  H   H69       1.0  0.53347  0.88728  0.31052  1.0000
  H   H70       1.0  0.54522  0.90508  0.42631  1.0000
  C   C95       1.0  0.54808  0.79710  0.47214  1.0000
  H   H71       1.0  0.56581  0.78319  0.51820  1.0000
  H   H72       1.0  0.51446  0.76553  0.44404  1.0000
  H   H73       1.0  0.53709  0.81914  0.51355  1.0000
  C   C96       1.0  0.60311  0.76073  0.36608  1.0000
  H   H74       1.0  0.57100  0.73706  0.39874  1.0000
  C   C97       1.0  0.30926  0.90918  0.35855  1.0000
  C   C98       1.0  0.29401  0.86151  0.39831  1.0000
  C   C99       1.0  0.24827  0.81884  0.37098  1.0000
  C   C100      1.0  0.24406  0.76854  0.37652  1.0000
  H   H75       1.0  0.27882  0.76936  0.39326  1.0000
  H   H76       1.0  0.23400  0.75134  0.31045  1.0000
  H   H77       1.0  0.21612  0.74527  0.42620  1.0000
  C   C101      1.0  0.32407  0.85610  0.47219  1.0000
  H   H78       1.0  0.33797  0.88776  0.51824  1.0000
  H   H79       1.0  0.35565  0.85405  0.44418  1.0000
  H   H80       1.0  0.30200  0.82308  0.51360  1.0000
  C   C102      1.0  0.36051  0.94751  0.36613  1.0000
  H   H81       1.0  0.38417  0.93906  0.39881  1.0000
  C   C103      1.0  0.87952  0.64572  0.35848  1.0000
  C   C104      1.0  0.83184  0.61328  0.39823  1.0000
  C   C105      1.0  0.78917  0.61636  0.37096  1.0000
  C   C106      1.0  0.73889  0.57026  0.37637  1.0000
  H   H82       1.0  0.73972  0.53632  0.39299  1.0000
  H   H83       1.0  0.72170  0.56317  0.31028  1.0000
  H   H84       1.0  0.71560  0.57487  0.42608  1.0000
  C   C107      1.0  0.82643  0.57775  0.47201  1.0000
  H   H85       1.0  0.85807  0.59548  0.51809  1.0000
  H   H86       1.0  0.82439  0.54414  0.44390  1.0000
  H   H87       1.0  0.79339  0.56675  0.51340  1.0000
  C   C108      1.0  0.91785  0.63280  0.36600  1.0000
  H   H88       1.0  0.90940  0.60068  0.39865  1.0000
  C   C109      1.0  0.47558  0.33896  0.35849  1.0000
  C   C110      1.0  0.50799  0.32371  0.39831  1.0000
  C   C111      1.0  0.50492  0.27796  0.37103  1.0000
  C   C112      1.0  0.55100  0.27375  0.37653  1.0000
  H   H89       1.0  0.58494  0.30852  0.39319  1.0000
  H   H90       1.0  0.55812  0.26366  0.31046  1.0000
  H   H91       1.0  0.54635  0.24583  0.42624  1.0000
  C   C113      1.0  0.54350  0.35382  0.47210  1.0000
  H   H92       1.0  0.52576  0.36773  0.51817  1.0000
  H   H93       1.0  0.57711  0.38540  0.44401  1.0000
  H   H94       1.0  0.55450  0.33178  0.51351  1.0000
  C   C114      1.0  0.48848  0.39020  0.36606  1.0000
  H   H95       1.0  0.52058  0.41387  0.39875  1.0000
  C   C115      1.0  0.78231  0.24178  0.35846  1.0000
  C   C116      1.0  0.79755  0.28946  0.39817  1.0000
  C   C117      1.0  0.84330  0.33212  0.37086  1.0000
  C   C118      1.0  0.84749  0.38241  0.37621  1.0000
  H   H96       1.0  0.81272  0.38159  0.39280  1.0000
  H   H97       1.0  0.85760  0.39958  0.31012  1.0000
  H   H98       1.0  0.87540  0.40571  0.42592  1.0000
  C   C119      1.0  0.76746  0.29490  0.47195  1.0000
  H   H99       1.0  0.75358  0.26329  0.51809  1.0000
  H   H100      1.0  0.73586  0.29690  0.44385  1.0000
  H   H101      1.0  0.78950  0.32797  0.51328  1.0000
  C   C120      1.0  0.73107  0.20344  0.36607  1.0000
  H   H102      1.0  0.70740  0.21189  0.39875  1.0000
