data_image0
_chemical_formula_structural       C7H4CNCH2CHC7H4CNCH2CHC3NH2NH2NC3NH2NH2NC3NH2NH2NC11H6NCNC2H2C11H6NCNC2H2C3NH2NH2NC3NH2NH2NC3NH2NH2N
_chemical_formula_sum              "C66 H54 N24"
_cell_length_a       37.1144
_cell_length_b       37.1144
_cell_length_c       14.5321
_cell_angle_alpha    90
_cell_angle_beta     90
_cell_angle_gamma    120

_space_group_name_H-M_alt    "P 1"
_space_group_IT_number       1

loop_
  _space_group_symop_operation_xyz
  'x, y, z'

loop_
  _atom_site_type_symbol
  _atom_site_label
  _atom_site_symmetry_multiplicity
  _atom_site_fract_x
  _atom_site_fract_y
  _atom_site_fract_z
  _atom_site_occupancy
  C   C1        1.0  0.40802  0.64574  0.36821  1.0000
  C   C2        1.0  0.39451  0.77034  0.36819  1.0000
  C   C3        1.0  0.46057  0.60853  0.36774  1.0000
  C   C4        1.0  0.47756  0.65225  0.36768  1.0000
  C   C5        1.0  0.45202  0.67035  0.36791  1.0000
  C   C6        1.0  0.43831  0.79713  0.36828  1.0000
  C   C7        1.0  0.45650  0.84090  0.36802  1.0000
  H   H1        1.0  0.46627  0.70212  0.36781  1.0000
  H   H2        1.0  0.50914  0.67172  0.36742  1.0000
  H   H3        1.0  0.45773  0.78501  0.36850  1.0000
  H   H4        1.0  0.48826  0.85868  0.36805  1.0000
  C   C8        1.0  0.37570  0.72577  0.36832  1.0000
  N   N1        1.0  0.39897  0.70670  0.36832  1.0000
  C   C9        1.0  0.38227  0.66454  0.36833  1.0000
  H   H5        1.0  0.25523  0.68078  0.36851  1.0000
  H   H6        1.0  0.18156  0.63763  0.36812  1.0000
  C   C10       1.0  0.48729  0.59197  0.36739  1.0000
  H   H7        1.0  0.51787  0.61178  0.36695  1.0000
  C   C11       1.0  0.64026  0.38645  0.36488  1.0000
  C   C12       1.0  0.65380  0.26186  0.36487  1.0000
  C   C13       1.0  0.58771  0.42365  0.36541  1.0000
  C   C14       1.0  0.57072  0.37993  0.36524  1.0000
  C   C15       1.0  0.59627  0.36183  0.36498  1.0000
  C   C16       1.0  0.60999  0.23507  0.36496  1.0000
  C   C17       1.0  0.59181  0.19130  0.36521  1.0000
  H   H8        1.0  0.58202  0.33006  0.36491  1.0000
  H   H9        1.0  0.53914  0.36046  0.36534  1.0000
  H   H10       1.0  0.59056  0.24718  0.36489  1.0000
  H   H11       1.0  0.56005  0.17351  0.36530  1.0000
  C   C18       1.0  0.67260  0.30642  0.36476  1.0000
  N   N2        1.0  0.64932  0.32550  0.36477  1.0000
  C   C19       1.0  0.66602  0.36765  0.36476  1.0000
  H   H12       1.0  0.79307  0.35143  0.36494  1.0000
  H   H13       1.0  0.86674  0.39459  0.36538  1.0000
  C   C20       1.0  0.56099  0.44021  0.36579  1.0000
  H   H14       1.0  0.53041  0.42040  0.36608  1.0000
  C   C21       1.0  0.54911  0.49708  0.36622  1.0000
  C   C22       1.0  0.53712  0.50707  0.28093  1.0000
  C   C23       1.0  0.51076  0.52502  0.28138  1.0000
  N   N3        1.0  0.55214  0.50016  0.20073  1.0000
  H   H15       1.0  0.57090  0.48902  0.20017  1.0000
  H   H16       1.0  0.54856  0.50983  0.14159  1.0000
  N   N4        1.0  0.49535  0.53185  0.20166  1.0000
  H   H17       1.0  0.47658  0.54298  0.20172  1.0000
  H   H18       1.0  0.49864  0.52212  0.14234  1.0000
  N   N5        1.0  0.57325  0.47945  0.36582  1.0000
  C   C24       1.0  0.54317  0.06008  0.36628  1.0000
  C   C25       1.0  0.53313  0.03809  0.28101  1.0000
  C   C26       1.0  0.51525  0.99379  0.28145  1.0000
  N   N6        1.0  0.53992  0.05999  0.20080  1.0000
  H   H19       1.0  0.55101  0.08988  0.20023  1.0000
  H   H20       1.0  0.53009  0.04669  0.14175  1.0000
  N   N7        1.0  0.50850  0.97158  0.20172  1.0000
  H   H21       1.0  0.49756  0.94171  0.20185  1.0000
  H   H22       1.0  0.51857  0.98471  0.14259  1.0000
  N   N8        1.0  0.56079  0.10184  0.36586  1.0000
  C   C27       1.0  0.98016  0.49113  0.36623  1.0000
  C   C28       1.0  0.00215  0.50314  0.28095  1.0000
  C   C29       1.0  0.04646  0.52950  0.28140  1.0000
  N   N9        1.0  0.98021  0.48813  0.20075  1.0000
  H   H23       1.0  0.95032  0.46937  0.20018  1.0000
  H   H24       1.0  0.99347  0.49171  0.14160  1.0000
  N   N10       1.0  0.06870  0.54493  0.20169  1.0000
  H   H25       1.0  0.09860  0.56369  0.20175  1.0000
  H   H26       1.0  0.05566  0.54164  0.14237  1.0000
  N   N11       1.0  0.93840  0.46700  0.36584  1.0000
  C   C30       1.0  0.26991  0.63222  0.36821  1.0000
  C   C31       1.0  0.24312  0.64923  0.36830  1.0000
  C   C32       1.0  0.19935  0.62365  0.36807  1.0000
  C   C33       1.0  0.18016  0.57968  0.36774  1.0000
  C   C34       1.0  0.20689  0.56268  0.36768  1.0000
  C   C35       1.0  0.25053  0.58823  0.36792  1.0000
  C   C36       1.0  0.39101  0.60193  0.36832  1.0000
  C   C37       1.0  0.41660  0.58375  0.36809  1.0000
  C   C38       1.0  0.43172  0.86009  0.36765  1.0000
  C   C39       1.0  0.38799  0.83336  0.36761  1.0000
  C   C40       1.0  0.36989  0.78971  0.36788  1.0000
  H   H27       1.0  0.19477  0.53110  0.36743  1.0000
  H   H28       1.0  0.26805  0.57398  0.36783  1.0000
  H   H29       1.0  0.35947  0.58251  0.36853  1.0000
  H   H30       1.0  0.40262  0.55198  0.36814  1.0000
  H   H31       1.0  0.36852  0.84547  0.36734  1.0000
  H   H32       1.0  0.33812  0.77219  0.36779  1.0000
  N   N12       1.0  0.33992  0.64127  0.36832  1.0000
  C   C41       1.0  0.31447  0.65797  0.36833  1.0000
  N   N13       1.0  0.33355  0.70032  0.36832  1.0000
  C   C42       1.0  0.44827  0.90337  0.36725  1.0000
  C   C43       1.0  0.13687  0.55295  0.36738  1.0000
  H   H33       1.0  0.12611  0.52238  0.36690  1.0000
  H   H34       1.0  0.42846  0.91414  0.36665  1.0000
  C   C44       1.0  0.77838  0.39998  0.36489  1.0000
  C   C45       1.0  0.80518  0.38298  0.36500  1.0000
  C   C46       1.0  0.84895  0.40856  0.36526  1.0000
  C   C47       1.0  0.86813  0.45253  0.36542  1.0000
  C   C48       1.0  0.84140  0.46952  0.36525  1.0000
  C   C49       1.0  0.79776  0.44398  0.36498  1.0000
  C   C50       1.0  0.65727  0.43025  0.36499  1.0000
  C   C51       1.0  0.63168  0.44844  0.36525  1.0000
  C   C52       1.0  0.61659  0.17211  0.36537  1.0000
  C   C53       1.0  0.66032  0.19884  0.36523  1.0000
  C   C54       1.0  0.67841  0.24249  0.36499  1.0000
  H   H35       1.0  0.85352  0.50111  0.36535  1.0000
  H   H36       1.0  0.78023  0.45822  0.36492  1.0000
  H   H37       1.0  0.68881  0.44968  0.36494  1.0000
  H   H38       1.0  0.64565  0.48020  0.36538  1.0000
  H   H39       1.0  0.67979  0.18673  0.36535  1.0000
  H   H40       1.0  0.71018  0.26001  0.36494  1.0000
  N   N14       1.0  0.70837  0.39092  0.36477  1.0000
  C   C55       1.0  0.73382  0.37423  0.36476  1.0000
  N   N15       1.0  0.71475  0.33188  0.36477  1.0000
  C   C56       1.0  0.60004  0.12883  0.36573  1.0000
  C   C57       1.0  0.91142  0.47926  0.36580  1.0000
  H   H41       1.0  0.92218  0.50984  0.36609  1.0000
  H   H42       1.0  0.61985  0.11806  0.36598  1.0000
  C   C58       1.0  0.49916  0.53510  0.36708  1.0000
  C   C59       1.0  0.51113  0.52507  0.45235  1.0000
  C   C60       1.0  0.53755  0.50719  0.45191  1.0000
  N   N16       1.0  0.55300  0.50044  0.53166  1.0000
  H   H43       1.0  0.54996  0.51052  0.59077  1.0000
  H   H44       1.0  0.57193  0.48951  0.53150  1.0000
  N   N17       1.0  0.49605  0.53189  0.53258  1.0000
  H   H45       1.0  0.47717  0.54289  0.53307  1.0000
  H   H46       1.0  0.49943  0.52196  0.59159  1.0000
  N   N18       1.0  0.47503  0.55272  0.36750  1.0000
  C   C61       1.0  0.50514  0.97212  0.36715  1.0000
  C   C62       1.0  0.51515  0.99411  0.45243  1.0000
  C   C63       1.0  0.53309  0.03842  0.45198  1.0000
  N   N19       1.0  0.53993  0.06064  0.53172  1.0000
  H   H47       1.0  0.52996  0.04756  0.59091  1.0000
  H   H48       1.0  0.55091  0.09052  0.53155  1.0000
  N   N20       1.0  0.50827  0.97218  0.53262  1.0000
  H   H49       1.0  0.49713  0.94228  0.53320  1.0000
  H   H50       1.0  0.51802  0.98545  0.59174  1.0000
  N   N21       1.0  0.48752  0.93035  0.36756  1.0000
  C   C64       1.0  0.06813  0.54108  0.36710  1.0000
  C   C65       1.0  0.04614  0.52910  0.45237  1.0000
  C   C66       1.0  0.00184  0.50268  0.45192  1.0000
  N   N22       1.0  0.97964  0.48722  0.53166  1.0000
  H   H51       1.0  0.99276  0.49025  0.59079  1.0000
  H   H52       1.0  0.94977  0.46830  0.53151  1.0000
  N   N23       1.0  0.06803  0.54417  0.53260  1.0000
  H   H53       1.0  0.09791  0.56304  0.53310  1.0000
  H   H54       1.0  0.05473  0.54077  0.59162  1.0000
  N   N24       1.0  0.10989  0.56522  0.36752  1.0000
