data_image0
_chemical_formula_structural       C4HNO2C2H2C2HC6H3C2H2C4HOC4H2C2HC2H2C3HNOC3NO2H2CHCHC4H2C4HC4H2NO2C4HC4H2NO2C4H4C4H4C4H4C4H4C6H3C6H3C6H3C6H3C6H3C2H2C4H4C4H4C4HC4H2NO2C4HC4H2NO2C4HC4H2NO2C4HC4H2NO2
_chemical_formula_sum              "C144 H81 N9 O18"
_cell_length_a       46.4699
_cell_length_b       46.4699
_cell_length_c       14.7594
_cell_angle_alpha    90
_cell_angle_beta     90
_cell_angle_gamma    120

_space_group_name_H-M_alt    "P 1"
_space_group_IT_number       1

loop_
  _space_group_symop_operation_xyz
  'x, y, z'

loop_
  _atom_site_type_symbol
  _atom_site_label
  _atom_site_symmetry_multiplicity
  _atom_site_fract_x
  _atom_site_fract_y
  _atom_site_fract_z
  _atom_site_occupancy
  C   C1        1.0  0.10183  0.55276  0.35125  1.0000
  C   C2        1.0  0.03049  0.51726  0.34831  1.0000
  C   C3        1.0  0.04889  0.53436  0.26981  1.0000
  C   C4        1.0  0.08417  0.55214  0.27265  1.0000
  H   H1        1.0  0.09709  0.56439  0.21570  1.0000
  N   N1        1.0  0.03177  0.53409  0.19012  1.0000
  O   O1        1.0  0.03867  0.52120  0.12490  1.0000
  O   O2        1.0  0.03845  0.56288  0.16785  1.0000
  C   C5        1.0  0.21412  0.53863  0.29264  1.0000
  C   C6        1.0  0.24116  0.53294  0.28868  1.0000
  H   H2        1.0  0.19998  0.53453  0.23571  1.0000
  H   H3        1.0  0.24515  0.52397  0.22947  1.0000
  C   C7        1.0  0.26171  0.70486  0.27240  1.0000
  C   C8        1.0  0.23546  0.67187  0.26599  1.0000
  H   H4        1.0  0.23626  0.65715  0.21550  1.0000
  C   C9        1.0  0.18991  0.56958  0.36222  1.0000
  C   C10       1.0  0.20733  0.60443  0.35193  1.0000
  C   C11       1.0  0.19078  0.62274  0.34142  1.0000
  C   C12       1.0  0.15562  0.60529  0.34259  1.0000
  C   C13       1.0  0.13728  0.57020  0.35219  1.0000
  C   C14       1.0  0.15480  0.55261  0.36153  1.0000
  H   H5        1.0  0.14330  0.61830  0.33590  1.0000
  H   H6        1.0  0.14195  0.52727  0.36774  1.0000
  H   H7        1.0  0.23284  0.61684  0.35234  1.0000
  C   C15       1.0  0.08334  0.53535  0.42837  1.0000
  C   C16       1.0  0.04833  0.51831  0.42725  1.0000
  H   H8        1.0  0.09528  0.53535  0.48667  1.0000
  H   H9        1.0  0.03587  0.50604  0.48469  1.0000
  C   C17       1.0  0.20899  0.55346  0.36968  1.0000
  C   C18       1.0  0.26430  0.54232  0.36077  1.0000
  C   C19       1.0  0.25861  0.55623  0.44010  1.0000
  C   C20       1.0  0.23095  0.56125  0.44368  1.0000
  H   H10       1.0  0.22868  0.57365  0.49816  1.0000
  O   O3        1.0  0.26926  0.55407  0.58520  1.0000
  C   C21       1.0  0.26409  0.72524  0.34662  1.0000
  C   C22       1.0  0.21060  0.65797  0.33367  1.0000
  C   C23       1.0  0.21165  0.67883  0.40483  1.0000
  C   C24       1.0  0.23793  0.71199  0.41088  1.0000
  H   H11       1.0  0.19499  0.66924  0.45710  1.0000
  H   H12       1.0  0.23896  0.72577  0.46615  1.0000
  C   C25       1.0  0.31556  0.56100  0.27232  1.0000
  C   C26       1.0  0.34855  0.56775  0.26595  1.0000
  H   H13       1.0  0.30752  0.57182  0.22594  1.0000
  C   C27       1.0  0.34081  0.80630  0.29285  1.0000
  C   C28       1.0  0.30812  0.77922  0.28877  1.0000
  H   H14       1.0  0.28065  0.71283  0.22629  1.0000
  H   H15       1.0  0.29519  0.77522  0.22950  1.0000
  C   C29       1.0  0.29518  0.54301  0.34657  1.0000
  C   C30       1.0  0.34158  0.53696  0.40482  1.0000
  C   C31       1.0  0.30842  0.53011  0.41087  1.0000
  H   H16       1.0  0.29467  0.51741  0.46624  1.0000
  N   N2        1.0  0.28220  0.56809  0.51144  1.0000
  O   O4        1.0  0.29541  0.59900  0.52170  1.0000
  C   C32       1.0  0.29430  0.75609  0.36091  1.0000
  C   C33       1.0  0.31385  0.76179  0.44034  1.0000
  C   C34       1.0  0.34653  0.78944  0.44404  1.0000
  N   N3        1.0  0.30208  0.73821  0.51169  1.0000
  O   O5        1.0  0.30097  0.75116  0.58540  1.0000
  O   O6        1.0  0.31977  0.72499  0.52210  1.0000
  H   H17       1.0  0.36323  0.58313  0.21520  1.0000
  H   H18       1.0  0.35092  0.82034  0.23580  1.0000
  C   C35       1.0  0.36243  0.55679  0.33366  1.0000
  H   H19       1.0  0.35118  0.52999  0.45727  1.0000
  C   C36       1.0  0.36073  0.81135  0.36996  1.0000
  H   H20       1.0  0.36122  0.79170  0.49845  1.0000
  C   C37       1.0  0.99486  0.49930  0.34987  1.0000
  C   C38       1.0  0.92322  0.46376  0.35203  1.0000
  C   C39       1.0  0.94126  0.45552  0.28996  1.0000
  C   C40       1.0  0.97630  0.47296  0.28870  1.0000
  H   H21       1.0  0.92897  0.43702  0.24336  1.0000
  H   H22       1.0  0.98824  0.46606  0.24276  1.0000
  C   C41       1.0  0.46761  0.55316  0.35129  1.0000
  C   C42       1.0  0.50312  0.51734  0.34836  1.0000
  C   C43       1.0  0.48604  0.51865  0.26983  1.0000
  C   C44       1.0  0.46826  0.53615  0.27266  1.0000
  H   H23       1.0  0.45603  0.53685  0.21569  1.0000
  C   C45       1.0  0.52108  0.49966  0.34992  1.0000
  C   C46       1.0  0.55663  0.46357  0.35205  1.0000
  C   C47       1.0  0.56488  0.48987  0.29004  1.0000
  C   C48       1.0  0.54744  0.50747  0.28879  1.0000
  H   H24       1.0  0.58339  0.49609  0.24344  1.0000
  H   H25       1.0  0.55434  0.52631  0.24286  1.0000
  N   N4        1.0  0.48634  0.50183  0.19012  1.0000
  O   O7        1.0  0.49925  0.52164  0.12495  1.0000
  O   O8        1.0  0.45756  0.47974  0.16774  1.0000
  C   C49       1.0  0.46721  0.91851  0.35126  1.0000
  C   C50       1.0  0.50305  0.98984  0.34833  1.0000
  C   C51       1.0  0.50178  0.97144  0.26984  1.0000
  C   C52       1.0  0.48428  0.93616  0.27269  1.0000
  H   H26       1.0  0.48361  0.92324  0.21575  1.0000
  C   C53       1.0  0.52073  0.02547  0.34988  1.0000
  C   C54       1.0  0.55683  0.09711  0.35202  1.0000
  C   C55       1.0  0.53054  0.07907  0.28998  1.0000
  C   C56       1.0  0.51294  0.04403  0.28870  1.0000
  H   H27       1.0  0.52435  0.09136  0.24332  1.0000
  H   H28       1.0  0.49412  0.03209  0.24273  1.0000
  N   N5        1.0  0.51865  0.98857  0.19018  1.0000
  O   O9        1.0  0.49888  0.98166  0.12492  1.0000
  O   O10       1.0  0.54076  0.98188  0.16796  1.0000
  C   C57       1.0  0.48185  0.67961  0.29246  1.0000
  C   C58       1.0  0.48751  0.71232  0.28847  1.0000
  C   C59       1.0  0.45939  0.75863  0.27217  1.0000
  C   C60       1.0  0.45265  0.78488  0.26574  1.0000
  H   H29       1.0  0.44853  0.73973  0.22590  1.0000
  H   H30       1.0  0.43718  0.78410  0.21514  1.0000
  H   H31       1.0  0.48590  0.66954  0.23552  1.0000
  H   H32       1.0  0.49646  0.72528  0.22926  1.0000
  C   C61       1.0  0.81025  0.47776  0.29141  1.0000
  C   C62       1.0  0.78324  0.48350  0.28803  1.0000
  C   C63       1.0  0.70890  0.45557  0.27264  1.0000
  C   C64       1.0  0.67587  0.44873  0.26674  1.0000
  H   H33       1.0  0.71687  0.44472  0.22614  1.0000
  H   H34       1.0  0.66114  0.43330  0.21613  1.0000
  H   H35       1.0  0.82423  0.48174  0.23420  1.0000
  H   H36       1.0  0.77909  0.49238  0.22888  1.0000
  C   C65       1.0  0.54259  0.33653  0.29130  1.0000
  C   C66       1.0  0.53687  0.30379  0.28799  1.0000
  C   C67       1.0  0.56488  0.25743  0.27273  1.0000
  C   C68       1.0  0.57171  0.23124  0.26685  1.0000
  H   H37       1.0  0.57560  0.27617  0.22596  1.0000
  H   H38       1.0  0.58701  0.23185  0.21598  1.0000
  H   H39       1.0  0.53856  0.34650  0.23409  1.0000
  H   H40       1.0  0.52796  0.29073  0.22890  1.0000
  C   C69       1.0  0.68385  0.21008  0.29129  1.0000
  C   C70       1.0  0.71658  0.23712  0.28792  1.0000
  C   C71       1.0  0.76291  0.31151  0.27279  1.0000
  C   C72       1.0  0.78911  0.34453  0.26687  1.0000
  H   H41       1.0  0.74413  0.30349  0.22615  1.0000
  H   H42       1.0  0.78843  0.35924  0.21615  1.0000
  H   H43       1.0  0.67384  0.19611  0.23407  1.0000
  H   H44       1.0  0.72963  0.24128  0.22882  1.0000
  C   C73       1.0  0.45084  0.62446  0.36211  1.0000
  C   C74       1.0  0.41599  0.60703  0.35182  1.0000
  C   C75       1.0  0.39766  0.57218  0.34142  1.0000
  C   C76       1.0  0.41509  0.55445  0.34266  1.0000
  C   C77       1.0  0.45019  0.57119  0.35222  1.0000
  C   C78       1.0  0.46779  0.60630  0.36148  1.0000
  H   H45       1.0  0.40208  0.52912  0.33599  1.0000
  H   H46       1.0  0.49314  0.61879  0.36768  1.0000
  H   H47       1.0  0.40359  0.62014  0.35217  1.0000
  C   C79       1.0  0.39593  0.83043  0.36230  1.0000
  C   C80       1.0  0.41335  0.81300  0.35194  1.0000
  C   C81       1.0  0.44819  0.82954  0.34135  1.0000
  C   C82       1.0  0.46592  0.86470  0.34252  1.0000
  C   C83       1.0  0.44918  0.88305  0.35220  1.0000
  C   C84       1.0  0.41408  0.86554  0.36163  1.0000
  H   H48       1.0  0.49125  0.87702  0.33574  1.0000
  H   H49       1.0  0.40159  0.87840  0.36793  1.0000
  H   H50       1.0  0.40024  0.78749  0.35236  1.0000
  C   C85       1.0  0.83459  0.44689  0.36075  1.0000
  C   C86       1.0  0.81713  0.41203  0.35180  1.0000
  C   C87       1.0  0.83363  0.39365  0.34280  1.0000
  C   C88       1.0  0.86878  0.41104  0.34491  1.0000
  C   C89       1.0  0.88746  0.44629  0.35227  1.0000
  C   C90       1.0  0.86970  0.46378  0.35937  1.0000
  H   H51       1.0  0.88083  0.39772  0.34057  1.0000
  H   H52       1.0  0.88237  0.48918  0.36363  1.0000
  H   H53       1.0  0.79162  0.39965  0.35220  1.0000
  C   C91       1.0  0.57350  0.39181  0.36064  1.0000
  C   C92       1.0  0.60837  0.40923  0.35165  1.0000
  C   C93       1.0  0.62674  0.44411  0.34271  1.0000
  C   C94       1.0  0.60934  0.46185  0.34493  1.0000
  C   C95       1.0  0.57410  0.44529  0.35227  1.0000
  C   C96       1.0  0.55661  0.41003  0.35930  1.0000
  H   H54       1.0  0.62266  0.48723  0.34062  1.0000
  H   H55       1.0  0.53122  0.39730  0.36354  1.0000
  H   H56       1.0  0.62075  0.39609  0.35197  1.0000
  C   C97       1.0  0.62860  0.18574  0.36063  1.0000
  C   C98       1.0  0.61118  0.20320  0.35164  1.0000
  C   C99       1.0  0.57631  0.18670  0.34268  1.0000
  C   C100      1.0  0.55856  0.15155  0.34488  1.0000
  C   C101      1.0  0.57512  0.13287  0.35224  1.0000
  C   C102      1.0  0.61038  0.15063  0.35929  1.0000
  H   H57       1.0  0.53318  0.13949  0.34058  1.0000
  H   H58       1.0  0.62310  0.13797  0.36355  1.0000
  H   H59       1.0  0.62432  0.22871  0.35197  1.0000
  C   C103      1.0  0.97700  0.50731  0.41288  1.0000
  C   C104      1.0  0.94194  0.49006  0.41348  1.0000
  H   H60       1.0  0.98945  0.52626  0.45823  1.0000
  H   H61       1.0  0.93015  0.49666  0.46064  1.0000
  C   C105      1.0  0.48501  0.55206  0.42845  1.0000
  C   C106      1.0  0.50204  0.53409  0.42732  1.0000
  C   C107      1.0  0.51306  0.47378  0.41290  1.0000
  C   C108      1.0  0.53031  0.45598  0.41346  1.0000
  H   H62       1.0  0.49410  0.46726  0.45819  1.0000
  H   H63       1.0  0.52370  0.43756  0.46059  1.0000
  H   H64       1.0  0.48498  0.56399  0.48676  1.0000
  H   H65       1.0  0.51428  0.53387  0.48480  1.0000
  C   C109      1.0  0.46826  0.93700  0.42836  1.0000
  C   C110      1.0  0.48625  0.97201  0.42725  1.0000
  C   C111      1.0  0.54660  0.04334  0.41292  1.0000
  C   C112      1.0  0.56441  0.07839  0.41347  1.0000
  H   H66       1.0  0.55310  0.03088  0.45824  1.0000
  H   H67       1.0  0.58282  0.09019  0.46063  1.0000
  H   H68       1.0  0.45631  0.92506  0.48665  1.0000
  H   H69       1.0  0.48644  0.98447  0.48468  1.0000
  C   C113      1.0  0.46698  0.65966  0.36949  1.0000
  C   C114      1.0  0.47809  0.72606  0.36054  1.0000
  C   C115      1.0  0.46419  0.70649  0.43990  1.0000
  C   C116      1.0  0.45920  0.67382  0.44356  1.0000
  H   H70       1.0  0.44676  0.65912  0.49796  1.0000
  C   C117      1.0  0.47742  0.75627  0.34635  1.0000
  C   C118      1.0  0.46357  0.80970  0.33348  1.0000
  C   C119      1.0  0.48336  0.80864  0.40472  1.0000
  C   C120      1.0  0.49033  0.78242  0.41063  1.0000
  H   H71       1.0  0.49043  0.82529  0.45702  1.0000
  H   H72       1.0  0.50302  0.78135  0.46599  1.0000
  N   N6        1.0  0.45231  0.71821  0.51120  1.0000
  O   O11       1.0  0.46633  0.71931  0.58498  1.0000
  O   O12       1.0  0.42140  0.70049  0.52144  1.0000
  C   C121      1.0  0.81552  0.46304  0.36844  1.0000
  C   C122      1.0  0.76026  0.47422  0.36056  1.0000
  C   C123      1.0  0.76615  0.46043  0.43981  1.0000
  C   C124      1.0  0.79387  0.45549  0.44306  1.0000
  H   H73       1.0  0.79622  0.44308  0.49740  1.0000
  C   C125      1.0  0.72933  0.47348  0.34689  1.0000
  C   C126      1.0  0.66198  0.45946  0.33502  1.0000
  C   C127      1.0  0.68290  0.47930  0.40607  1.0000
  C   C128      1.0  0.71611  0.48628  0.41158  1.0000
  H   H74       1.0  0.67332  0.48620  0.45876  1.0000
  H   H75       1.0  0.72992  0.49897  0.46687  1.0000
  N   N7        1.0  0.74270  0.44860  0.51150  1.0000
  O   O13       1.0  0.75575  0.46271  0.58508  1.0000
  O   O14       1.0  0.72954  0.41770  0.52194  1.0000
  C   C129      1.0  0.55735  0.35660  0.36818  1.0000
  C   C130      1.0  0.54620  0.29013  0.36052  1.0000
  C   C131      1.0  0.56002  0.30985  0.43969  1.0000
  C   C132      1.0  0.56502  0.34253  0.44271  1.0000
  H   H76       1.0  0.57734  0.35728  0.49715  1.0000
  C   C133      1.0  0.54695  0.25995  0.34692  1.0000
  C   C134      1.0  0.56096  0.20658  0.33503  1.0000
  C   C135      1.0  0.54118  0.20773  0.40615  1.0000
  C   C136      1.0  0.53420  0.23395  0.41169  1.0000
  H   H77       1.0  0.53428  0.19126  0.45886  1.0000
  H   H78       1.0  0.52152  0.23509  0.46700  1.0000
  N   N8        1.0  0.57187  0.29827  0.51144  1.0000
  O   O15       1.0  0.55780  0.29729  0.58503  1.0000
  O   O16       1.0  0.60277  0.31600  0.52178  1.0000
  C   C137      1.0  0.66381  0.20481  0.36823  1.0000
  C   C138      1.0  0.73023  0.26010  0.36046  1.0000
  C   C139      1.0  0.71055  0.25420  0.43970  1.0000
  C   C140      1.0  0.67788  0.22650  0.44282  1.0000
  H   H79       1.0  0.66311  0.22409  0.49719  1.0000
  C   C141      1.0  0.76044  0.29103  0.34688  1.0000
  C   C142      1.0  0.81374  0.35841  0.33512  1.0000
  C   C143      1.0  0.81260  0.33750  0.40627  1.0000
  C   C144      1.0  0.78645  0.30426  0.41162  1.0000
  H   H80       1.0  0.82915  0.34705  0.45881  1.0000
  H   H81       1.0  0.78531  0.29043  0.46688  1.0000
  N   N9        1.0  0.72214  0.27764  0.51144  1.0000
  O   O17       1.0  0.72316  0.26456  0.58502  1.0000
  O   O18       1.0  0.70440  0.29080  0.52184  1.0000
