data_image0
_chemical_formula_structural       C8H4C8H4C8H4N2H2N4H2NC18H12NC18H12NC18H12NC18H12N6C8H2C8H4C8H2
_chemical_formula_sum              "C120 H72 N16"
_cell_length_a       38.5837
_cell_length_b       38.5837
_cell_length_c       14.7188
_cell_angle_alpha    90
_cell_angle_beta     90
_cell_angle_gamma    120

_space_group_name_H-M_alt    "P 1"
_space_group_IT_number       1

loop_
  _space_group_symop_operation_xyz
  'x, y, z'

loop_
  _atom_site_type_symbol
  _atom_site_label
  _atom_site_symmetry_multiplicity
  _atom_site_fract_x
  _atom_site_fract_y
  _atom_site_fract_z
  _atom_site_occupancy
  C   C1        1.0  0.26459  0.13607  0.32302  1.0000
  C   C2        1.0  0.24453  0.14384  0.25122  1.0000
  C   C3        1.0  0.20150  0.12409  0.25116  1.0000
  C   C4        1.0  0.17949  0.09652  0.32222  1.0000
  C   C5        1.0  0.18239  0.13453  0.18275  1.0000
  C   C6        1.0  0.20429  0.16182  0.11362  1.0000
  C   C7        1.0  0.24609  0.18061  0.11309  1.0000
  C   C8        1.0  0.26595  0.17232  0.18210  1.0000
  H   H1        1.0  0.15226  0.12358  0.18334  1.0000
  H   H2        1.0  0.18986  0.16903  0.06537  1.0000
  H   H3        1.0  0.26213  0.20148  0.06444  1.0000
  H   H4        1.0  0.29646  0.18845  0.18180  1.0000
  C   C9        1.0  0.87990  0.13414  0.31666  1.0000
  C   C10       1.0  0.90317  0.13661  0.23892  1.0000
  C   C11       1.0  0.92554  0.11593  0.23925  1.0000
  C   C12       1.0  0.92397  0.09314  0.31721  1.0000
  C   C13       1.0  0.95037  0.12073  0.16351  1.0000
  C   C14       1.0  0.95219  0.14371  0.08787  1.0000
  C   C15       1.0  0.93034  0.16372  0.08746  1.0000
  C   C16       1.0  0.90672  0.16077  0.16275  1.0000
  H   H5        1.0  0.96853  0.10858  0.16274  1.0000
  H   H6        1.0  0.97040  0.14686  0.03423  1.0000
  H   H7        1.0  0.93261  0.18146  0.03353  1.0000
  H   H8        1.0  0.89314  0.17765  0.16140  1.0000
  C   C17       1.0  0.87835  0.74814  0.32145  1.0000
  C   C18       1.0  0.89936  0.77067  0.24305  1.0000
  C   C19       1.0  0.91896  0.81356  0.24607  1.0000
  C   C20       1.0  0.91937  0.83281  0.32901  1.0000
  C   C21       1.0  0.93691  0.83563  0.16565  1.0000
  C   C22       1.0  0.93794  0.81648  0.08550  1.0000
  C   C23       1.0  0.92169  0.77491  0.08457  1.0000
  C   C24       1.0  0.90285  0.75236  0.16253  1.0000
  H   H9        1.0  0.94924  0.86601  0.16370  1.0000
  H   H10       1.0  0.95133  0.83290  0.02847  1.0000
  H   H11       1.0  0.92339  0.76102  0.02694  1.0000
  H   H12       1.0  0.89228  0.72230  0.15931  1.0000
  N   N1        1.0  0.58366  0.19180  0.34447  1.0000
  N   N2        1.0  0.61780  0.19242  0.34324  1.0000
  H   H13       1.0  0.52824  0.10397  0.01166  1.0000
  H   H14       1.0  0.59153  0.10509  0.00936  1.0000
  N   N3        1.0  0.83723  0.40256  0.27457  1.0000
  N   N4        1.0  0.83724  0.43638  0.27326  1.0000
  N   N5        1.0  0.61425  0.43428  0.31384  1.0000
  N   N6        1.0  0.58151  0.39956  0.31003  1.0000
  H   H15       1.0  0.60361  0.45850  0.02835  1.0000
  H   H16       1.0  0.55185  0.38865  0.02774  1.0000
  N   N7        1.0  0.00765  0.00525  0.36481  1.0000
  C   C25       1.0  0.05033  0.02849  0.35254  1.0000
  C   C26       1.0  0.98608  0.96171  0.36061  1.0000
  C   C27       1.0  0.98701  0.02729  0.35129  1.0000
  C   C28       1.0  0.98724  0.05318  0.41961  1.0000
  C   C29       1.0  0.96657  0.07451  0.40831  1.0000
  C   C30       1.0  0.94436  0.07062  0.32846  1.0000
  C   C31       1.0  0.94258  0.04304  0.26225  1.0000
  C   C32       1.0  0.96413  0.02253  0.27239  1.0000
  C   C33       1.0  0.06864  0.03125  0.26758  1.0000
  C   C34       1.0  0.11073  0.05224  0.25821  1.0000
  C   C35       1.0  0.13643  0.07361  0.33168  1.0000
  C   C36       1.0  0.11779  0.07030  0.41684  1.0000
  C   C37       1.0  0.07574  0.04804  0.42715  1.0000
  C   C38       1.0  0.00487  0.93937  0.33668  1.0000
  C   C39       1.0  0.98329  0.89733  0.32868  1.0000
  C   C40       1.0  0.94155  0.87521  0.34421  1.0000
  C   C41       1.0  0.92291  0.89667  0.37452  1.0000
  C   C42       1.0  0.94474  0.93883  0.38268  1.0000
  H   H17       1.0  0.12253  0.05179  0.19629  1.0000
  H   H18       1.0  0.05124  0.01664  0.21256  1.0000
  H   H19       1.0  0.06362  0.04619  0.48995  1.0000
  H   H20       1.0  0.13482  0.08454  0.47264  1.0000
  H   H21       1.0  0.00279  0.05681  0.47842  1.0000
  H   H22       1.0  0.96844  0.09357  0.45888  1.0000
  H   H23       1.0  0.03480  0.95349  0.32334  1.0000
  H   H24       1.0  0.99833  0.88294  0.30934  1.0000
  H   H25       1.0  0.89285  0.88185  0.38789  1.0000
  H   H26       1.0  0.92966  0.95294  0.40338  1.0000
  H   H27       1.0  0.96240  0.00330  0.22247  1.0000
  H   H28       1.0  0.92558  0.03777  0.20507  1.0000
  N   N8        1.0  0.43617  0.21664  0.35777  1.0000
  C   C43       1.0  0.46040  0.25929  0.34740  1.0000
  C   C44       1.0  0.39339  0.19507  0.35078  1.0000
  C   C45       1.0  0.45788  0.19674  0.38064  1.0000
  C   C46       1.0  0.47955  0.20599  0.46308  1.0000
  C   C47       1.0  0.51093  0.19766  0.47492  1.0000
  C   C48       1.0  0.52138  0.17918  0.40538  1.0000
  C   C49       1.0  0.49873  0.16877  0.32411  1.0000
  C   C50       1.0  0.46741  0.17718  0.31217  1.0000
  C   C51       1.0  0.45666  0.28608  0.40652  1.0000
  C   C52       1.0  0.48699  0.32660  0.41230  1.0000
  C   C53       1.0  0.52386  0.34115  0.36564  1.0000
  C   C54       1.0  0.52565  0.31524  0.29984  1.0000
  C   C55       1.0  0.49418  0.27552  0.28931  1.0000
  C   C56       1.0  0.36880  0.19389  0.42335  1.0000
  C   C57       1.0  0.32667  0.17393  0.41480  1.0000
  C   C58       1.0  0.30731  0.15403  0.33342  1.0000
  C   C59       1.0  0.33198  0.15308  0.26317  1.0000
  C   C60       1.0  0.37413  0.17366  0.27112  1.0000
  H   H29       1.0  0.48279  0.34474  0.45606  1.0000
  H   H30       1.0  0.43280  0.27591  0.44948  1.0000
  H   H31       1.0  0.49834  0.25721  0.24599  1.0000
  H   H32       1.0  0.55116  0.32412  0.26274  1.0000
  H   H33       1.0  0.47505  0.22229  0.51167  1.0000
  H   H34       1.0  0.52787  0.20770  0.53269  1.0000
  H   H35       1.0  0.38155  0.20807  0.48303  1.0000
  H   H36       1.0  0.31020  0.17511  0.46799  1.0000
  H   H37       1.0  0.31938  0.13814  0.20400  1.0000
  H   H38       1.0  0.39083  0.17344  0.21748  1.0000
  H   H39       1.0  0.45419  0.17242  0.24974  1.0000
  H   H40       1.0  0.50611  0.15656  0.27101  1.0000
  N   N9        1.0  0.79193  0.21804  0.34881  1.0000
  C   C61       1.0  0.75034  0.19956  0.37136  1.0000
  C   C62       1.0  0.81243  0.19571  0.34309  1.0000
  C   C63       1.0  0.81101  0.26039  0.33402  1.0000
  C   C64       1.0  0.79674  0.27555  0.26486  1.0000
  C   C65       1.0  0.80456  0.31535  0.26752  1.0000
  C   C66       1.0  0.82796  0.34173  0.33790  1.0000
  C   C67       1.0  0.84691  0.32809  0.39903  1.0000
  C   C68       1.0  0.83757  0.28777  0.39895  1.0000
  C   C69       1.0  0.72082  0.18024  0.30361  1.0000
  C   C70       1.0  0.68111  0.17159  0.31751  1.0000
  C   C71       1.0  0.66939  0.18174  0.39987  1.0000
  C   C72       1.0  0.69894  0.20065  0.46802  1.0000
  C   C73       1.0  0.73859  0.20910  0.45431  1.0000
  C   C74       1.0  0.80642  0.17020  0.26858  1.0000
  C   C75       1.0  0.82729  0.14890  0.26146  1.0000
  C   C76       1.0  0.85614  0.15320  0.32694  1.0000
  C   C77       1.0  0.86071  0.17733  0.40363  1.0000
  C   C78       1.0  0.83926  0.19805  0.41156  1.0000
  H   H41       1.0  0.66104  0.15900  0.26541  1.0000
  H   H42       1.0  0.72874  0.17514  0.24092  1.0000
  H   H43       1.0  0.75967  0.22508  0.50264  1.0000
  H   H44       1.0  0.69233  0.21036  0.52672  1.0000
  H   H45       1.0  0.77675  0.25648  0.21797  1.0000
  H   H46       1.0  0.79017  0.32381  0.22187  1.0000
  H   H47       1.0  0.78717  0.16746  0.21780  1.0000
  H   H48       1.0  0.82195  0.13085  0.20615  1.0000
  H   H49       1.0  0.88074  0.18101  0.45352  1.0000
  H   H50       1.0  0.84362  0.21519  0.46787  1.0000
  H   H51       1.0  0.84753  0.27791  0.45163  1.0000
  H   H52       1.0  0.86456  0.34636  0.45016  1.0000
  N   N10       1.0  0.79166  0.57600  0.33931  1.0000
  C   C79       1.0  0.81098  0.55288  0.32509  1.0000
  C   C80       1.0  0.81216  0.61882  0.33701  1.0000
  C   C81       1.0  0.75001  0.55299  0.36136  1.0000
  C   C82       1.0  0.73789  0.52885  0.44014  1.0000
  C   C83       1.0  0.69806  0.49772  0.45066  1.0000
  C   C84       1.0  0.66813  0.49077  0.38562  1.0000
  C   C85       1.0  0.68027  0.51606  0.30831  1.0000
  C   C86       1.0  0.72045  0.54637  0.29608  1.0000
  C   C87       1.0  0.83810  0.55287  0.38967  1.0000
  C   C88       1.0  0.84747  0.52192  0.39144  1.0000
  C   C89       1.0  0.82801  0.48860  0.33249  1.0000
  C   C90       1.0  0.80409  0.49070  0.26216  1.0000
  C   C91       1.0  0.79625  0.52266  0.25768  1.0000
  C   C92       1.0  0.83751  0.64235  0.40853  1.0000
  C   C93       1.0  0.85880  0.68459  0.40380  1.0000
  C   C94       1.0  0.85523  0.70515  0.32781  1.0000
  C   C95       1.0  0.82737  0.68143  0.25980  1.0000
  C   C96       1.0  0.80709  0.63923  0.26315  1.0000
  H   H53       1.0  0.86542  0.52187  0.44256  1.0000
  H   H54       1.0  0.84847  0.57327  0.44109  1.0000
  H   H55       1.0  0.77565  0.52105  0.21164  1.0000
  H   H56       1.0  0.78925  0.46724  0.21823  1.0000
  H   H57       1.0  0.75889  0.53125  0.48605  1.0000
  H   H58       1.0  0.69180  0.47859  0.50417  1.0000
  H   H59       1.0  0.84085  0.62886  0.46479  1.0000
  H   H60       1.0  0.87782  0.70028  0.45582  1.0000
  H   H61       1.0  0.82221  0.69476  0.20548  1.0000
  H   H62       1.0  0.78879  0.62345  0.21041  1.0000
  H   H63       1.0  0.72846  0.56146  0.23580  1.0000
  H   H64       1.0  0.66025  0.51122  0.25747  1.0000
  N   N11       1.0  0.20176  0.09216  0.38814  1.0000
  N   N12       1.0  0.24090  0.11042  0.38880  1.0000
  N   N13       1.0  0.90177  0.09378  0.38831  1.0000
  N   N14       1.0  0.88150  0.11267  0.38817  1.0000
  N   N15       1.0  0.89924  0.80876  0.40031  1.0000
  N   N16       1.0  0.88006  0.76962  0.39638  1.0000
  C   C97       1.0  0.63021  0.17674  0.40982  1.0000
  C   C98       1.0  0.60348  0.15798  0.48393  1.0000
  C   C99       1.0  0.56594  0.15729  0.48528  1.0000
  C   C100      1.0  0.55635  0.17536  0.41247  1.0000
  C   C101      1.0  0.53875  0.13708  0.55724  1.0000
  C   C102      1.0  0.54834  0.11866  0.62736  1.0000
  C   C103      1.0  0.58496  0.11929  0.62601  1.0000
  C   C104      1.0  0.61206  0.13839  0.55460  1.0000
  H   H65       1.0  0.51113  0.13457  0.55883  1.0000
  H   H66       1.0  0.63769  0.13680  0.55426  1.0000
  C   C105      1.0  0.82933  0.45252  0.34684  1.0000
  C   C106      1.0  0.81935  0.43000  0.42928  1.0000
  C   C107      1.0  0.81931  0.39274  0.43068  1.0000
  C   C108      1.0  0.82930  0.37930  0.34962  1.0000
  C   C109      1.0  0.80685  0.36941  0.51142  1.0000
  C   C110      1.0  0.79659  0.38279  0.59007  1.0000
  C   C111      1.0  0.79668  0.41908  0.58872  1.0000
  C   C112      1.0  0.80700  0.44185  0.50872  1.0000
  H   H67       1.0  0.80383  0.34165  0.51432  1.0000
  H   H68       1.0  0.78756  0.36537  0.64721  1.0000
  H   H69       1.0  0.78772  0.42814  0.64490  1.0000
  H   H70       1.0  0.80415  0.46670  0.50968  1.0000
  C   C113      1.0  0.55832  0.37994  0.38295  1.0000
  C   C114      1.0  0.57168  0.39968  0.46871  1.0000
  C   C115      1.0  0.60586  0.43933  0.47155  1.0000
  C   C116      1.0  0.62877  0.45611  0.39107  1.0000
  C   C117      1.0  0.61572  0.46090  0.55458  1.0000
  C   C118      1.0  0.59555  0.44275  0.63543  1.0000
  C   C119      1.0  0.56554  0.40243  0.63498  1.0000
  C   C120      1.0  0.55387  0.38122  0.55270  1.0000
  H   H71       1.0  0.63765  0.49028  0.55753  1.0000
  H   H72       1.0  0.53275  0.35166  0.55627  1.0000
