data_image0
_chemical_formula_structural       C3H2C3H2C3H2NC18H12NC18H12C3HOHC3HOHC3HOHC3H2C3H2C3H2NC18H12NC18H12C3HOHC3HOHC3HOHC3H2C3H2C3H2NC18H12NC18H12C3HOHC3HOHC3HOHC3H2C3H2C3H2NC18H12NC18H12C3HOHC3HOHC3HOH
_chemical_formula_sum              "C216 H144 N8 O12"
_cell_length_a       49.8154
_cell_length_b       49.8154
_cell_length_c       14.4238
_cell_angle_alpha    90
_cell_angle_beta     90
_cell_angle_gamma    120

_space_group_name_H-M_alt    "P 1"
_space_group_IT_number       1

loop_
  _space_group_symop_operation_xyz
  'x, y, z'

loop_
  _atom_site_type_symbol
  _atom_site_label
  _atom_site_symmetry_multiplicity
  _atom_site_fract_x
  _atom_site_fract_y
  _atom_site_fract_z
  _atom_site_occupancy
  C   C1        1.0  0.29726  0.25488  0.37977  1.0000
  C   C2        1.0  0.29071  0.26615  0.29756  1.0000
  C   C3        1.0  0.27459  0.28265  0.29915  1.0000
  H   H1        1.0  0.27135  0.29075  0.23740  1.0000
  H   H2        1.0  0.29723  0.26211  0.23426  1.0000
  C   C4        1.0  0.29769  0.05448  0.36784  1.0000
  C   C5        1.0  0.28765  0.03685  0.28497  1.0000
  C   C6        1.0  0.27099  0.50419  0.28598  1.0000
  H   H3        1.0  0.26368  0.49292  0.22384  1.0000
  H   H4        1.0  0.29261  0.04761  0.22184  1.0000
  C   C7        1.0  0.49595  0.25394  0.37482  1.0000
  C   C8        1.0  0.51328  0.27667  0.30740  1.0000
  C   C9        1.0  0.04592  0.29290  0.30920  1.0000
  H   H5        1.0  0.05729  0.30984  0.26058  1.0000
  H   H6        1.0  0.50224  0.28221  0.25756  1.0000
  N   N1        1.0  0.19576  0.35391  0.37263  1.0000
  C   C10       1.0  0.21214  0.33725  0.37679  1.0000
  C   C11       1.0  0.21207  0.38699  0.37007  1.0000
  C   C12       1.0  0.16276  0.33720  0.37376  1.0000
  C   C13       1.0  0.14572  0.32771  0.29042  1.0000
  C   C14       1.0  0.11307  0.31074  0.29173  1.0000
  C   C15       1.0  0.09617  0.30348  0.37610  1.0000
  C   C16       1.0  0.11368  0.31388  0.45918  1.0000
  C   C17       1.0  0.14633  0.32982  0.45823  1.0000
  C   C18       1.0  0.23326  0.34230  0.44906  1.0000
  C   C19       1.0  0.25025  0.32660  0.45056  1.0000
  C   C20       1.0  0.24610  0.30449  0.38170  1.0000
  C   C21       1.0  0.22459  0.29946  0.30998  1.0000
  C   C22       1.0  0.20836  0.31584  0.30673  1.0000
  C   C23       1.0  0.23411  0.40343  0.30016  1.0000
  C   C24       1.0  0.25129  0.43611  0.30052  1.0000
  C   C25       1.0  0.24655  0.45375  0.36919  1.0000
  C   C26       1.0  0.22356  0.43694  0.43699  1.0000
  C   C27       1.0  0.20725  0.40433  0.43879  1.0000
  H   H7        1.0  0.26626  0.33206  0.50206  1.0000
  H   H8        1.0  0.23694  0.35810  0.49987  1.0000
  H   H9        1.0  0.19347  0.31178  0.25290  1.0000
  H   H10       1.0  0.22028  0.28353  0.25897  1.0000
  H   H11       1.0  0.15707  0.33278  0.22821  1.0000
  H   H12       1.0  0.10172  0.30350  0.22969  1.0000
  H   H13       1.0  0.23839  0.39156  0.24993  1.0000
  H   H14       1.0  0.26784  0.44694  0.25048  1.0000
  H   H15       1.0  0.21820  0.44829  0.48620  1.0000
  H   H16       1.0  0.19145  0.39332  0.49042  1.0000
  H   H17       1.0  0.15814  0.33653  0.51965  1.0000
  H   H18       1.0  0.10283  0.31030  0.52188  1.0000
  N   N2        1.0  0.36364  0.18786  0.36966  1.0000
  C   C28       1.0  0.34727  0.20451  0.37313  1.0000
  C   C29       1.0  0.34754  0.15483  0.36781  1.0000
  C   C30       1.0  0.39661  0.20443  0.37094  1.0000
  C   C31       1.0  0.41293  0.21958  0.45220  1.0000
  C   C32       1.0  0.44559  0.23567  0.45368  1.0000
  C   C33       1.0  0.46283  0.23754  0.37344  1.0000
  C   C34       1.0  0.44626  0.22251  0.29193  1.0000
  C   C35       1.0  0.41361  0.20597  0.29092  1.0000
  C   C36       1.0  0.32550  0.19901  0.44363  1.0000
  C   C37       1.0  0.30892  0.21511  0.44498  1.0000
  C   C38       1.0  0.31405  0.23812  0.37795  1.0000
  C   C39       1.0  0.33649  0.24368  0.30852  1.0000
  C   C40       1.0  0.35231  0.22689  0.30508  1.0000
  C   C41       1.0  0.35232  0.13802  0.43824  1.0000
  C   C42       1.0  0.33656  0.10539  0.43693  1.0000
  C   C43       1.0  0.31447  0.08802  0.36722  1.0000
  C   C44       1.0  0.30967  0.10535  0.29749  1.0000
  C   C45       1.0  0.32614  0.13804  0.29696  1.0000
  H   H19       1.0  0.29250  0.20923  0.49541  1.0000
  H   H20       1.0  0.32109  0.18266  0.49332  1.0000
  H   H21       1.0  0.36810  0.23153  0.25336  1.0000
  H   H22       1.0  0.34205  0.26048  0.25952  1.0000
  H   H23       1.0  0.40103  0.21872  0.51097  1.0000
  H   H24       1.0  0.45671  0.24650  0.51366  1.0000
  H   H25       1.0  0.36780  0.14954  0.49034  1.0000
  H   H26       1.0  0.34189  0.09453  0.48776  1.0000
  H   H27       1.0  0.29355  0.09436  0.24656  1.0000
  H   H28       1.0  0.32194  0.14962  0.24561  1.0000
  H   H29       1.0  0.40220  0.19514  0.23133  1.0000
  H   H30       1.0  0.45788  0.22298  0.23286  1.0000
  C   C46       1.0  0.26320  0.28816  0.38278  1.0000
  C   C47       1.0  0.26906  0.27640  0.46549  1.0000
  C   C48       1.0  0.28619  0.26080  0.46355  1.0000
  H   H31       1.0  0.29056  0.25375  0.52549  1.0000
  O   O1        1.0  0.25807  0.27897  0.54949  1.0000
  H   H32       1.0  0.23614  0.26265  0.55152  1.0000
  C   C49       1.0  0.26396  0.48717  0.36985  1.0000
  C   C50       1.0  0.27477  0.50465  0.45320  1.0000
  C   C51       1.0  0.29051  0.03736  0.45165  1.0000
  H   H33       1.0  0.29661  0.04863  0.51397  1.0000
  O   O2        1.0  0.27099  0.49108  0.53784  1.0000
  H   H34       1.0  0.28672  0.48471  0.54213  1.0000
  C   C52       1.0  0.06276  0.28669  0.37690  1.0000
  C   C53       1.0  0.04520  0.26333  0.44365  1.0000
  C   C54       1.0  0.51248  0.24777  0.44320  1.0000
  H   H35       1.0  0.50062  0.23095  0.49187  1.0000
  O   O3        1.0  0.05871  0.25438  0.50950  1.0000
  H   H36       1.0  0.06493  0.24080  0.47817  1.0000
  C   C55       1.0  0.29726  0.75488  0.37977  1.0000
  C   C56       1.0  0.29071  0.76615  0.29756  1.0000
  C   C57       1.0  0.27459  0.78265  0.29915  1.0000
  H   H37       1.0  0.27135  0.79075  0.23740  1.0000
  H   H38       1.0  0.29722  0.76211  0.23426  1.0000
  C   C58       1.0  0.29769  0.55448  0.36784  1.0000
  C   C59       1.0  0.28765  0.53685  0.28497  1.0000
  C   C60       1.0  0.27099  0.00419  0.28598  1.0000
  H   H39       1.0  0.26367  0.99292  0.22384  1.0000
  H   H40       1.0  0.29261  0.54761  0.22184  1.0000
  C   C61       1.0  0.49595  0.75394  0.37482  1.0000
  C   C62       1.0  0.51328  0.77667  0.30740  1.0000
  C   C63       1.0  0.04591  0.79290  0.30920  1.0000
  H   H41       1.0  0.05729  0.80984  0.26058  1.0000
  H   H42       1.0  0.50224  0.78221  0.25756  1.0000
  N   N3        1.0  0.19575  0.85390  0.37263  1.0000
  C   C64       1.0  0.21214  0.83725  0.37679  1.0000
  C   C65       1.0  0.21207  0.88699  0.37007  1.0000
  C   C66       1.0  0.16276  0.83721  0.37376  1.0000
  C   C67       1.0  0.14572  0.82771  0.29042  1.0000
  C   C68       1.0  0.11307  0.81074  0.29173  1.0000
  C   C69       1.0  0.09617  0.80348  0.37610  1.0000
  C   C70       1.0  0.11368  0.81388  0.45918  1.0000
  C   C71       1.0  0.14633  0.82982  0.45823  1.0000
  C   C72       1.0  0.23326  0.84230  0.44906  1.0000
  C   C73       1.0  0.25025  0.82660  0.45056  1.0000
  C   C74       1.0  0.24610  0.80449  0.38170  1.0000
  C   C75       1.0  0.22459  0.79946  0.30999  1.0000
  C   C76       1.0  0.20836  0.81584  0.30673  1.0000
  C   C77       1.0  0.23411  0.90343  0.30016  1.0000
  C   C78       1.0  0.25129  0.93611  0.30052  1.0000
  C   C79       1.0  0.24655  0.95375  0.36919  1.0000
  C   C80       1.0  0.22356  0.93694  0.43699  1.0000
  C   C81       1.0  0.20725  0.90433  0.43879  1.0000
  H   H43       1.0  0.26626  0.83206  0.50206  1.0000
  H   H44       1.0  0.23694  0.85810  0.49987  1.0000
  H   H45       1.0  0.19347  0.81178  0.25290  1.0000
  H   H46       1.0  0.22027  0.78353  0.25897  1.0000
  H   H47       1.0  0.15707  0.83278  0.22821  1.0000
  H   H48       1.0  0.10172  0.80350  0.22969  1.0000
  H   H49       1.0  0.23839  0.89156  0.24993  1.0000
  H   H50       1.0  0.26784  0.94693  0.25048  1.0000
  H   H51       1.0  0.21820  0.94829  0.48620  1.0000
  H   H52       1.0  0.19145  0.89332  0.49042  1.0000
  H   H53       1.0  0.15814  0.83653  0.51965  1.0000
  H   H54       1.0  0.10283  0.81030  0.52188  1.0000
  N   N4        1.0  0.36364  0.68786  0.36966  1.0000
  C   C82       1.0  0.34728  0.70451  0.37313  1.0000
  C   C83       1.0  0.34754  0.65483  0.36781  1.0000
  C   C84       1.0  0.39661  0.70443  0.37094  1.0000
  C   C85       1.0  0.41293  0.71958  0.45220  1.0000
  C   C86       1.0  0.44559  0.73567  0.45368  1.0000
  C   C87       1.0  0.46283  0.73754  0.37344  1.0000
  C   C88       1.0  0.44626  0.72251  0.29193  1.0000
  C   C89       1.0  0.41361  0.70597  0.29092  1.0000
  C   C90       1.0  0.32550  0.69902  0.44363  1.0000
  C   C91       1.0  0.30892  0.71511  0.44498  1.0000
  C   C92       1.0  0.31405  0.73812  0.37795  1.0000
  C   C93       1.0  0.33649  0.74368  0.30852  1.0000
  C   C94       1.0  0.35231  0.72689  0.30508  1.0000
  C   C95       1.0  0.35232  0.63802  0.43824  1.0000
  C   C96       1.0  0.33656  0.60539  0.43693  1.0000
  C   C97       1.0  0.31447  0.58802  0.36722  1.0000
  C   C98       1.0  0.30967  0.60535  0.29749  1.0000
  C   C99       1.0  0.32614  0.63804  0.29696  1.0000
  H   H55       1.0  0.29250  0.70923  0.49541  1.0000
  H   H56       1.0  0.32110  0.68266  0.49332  1.0000
  H   H57       1.0  0.36810  0.73153  0.25336  1.0000
  H   H58       1.0  0.34205  0.76048  0.25952  1.0000
  H   H59       1.0  0.40103  0.71871  0.51097  1.0000
  H   H60       1.0  0.45671  0.74650  0.51366  1.0000
  H   H61       1.0  0.36780  0.64954  0.49034  1.0000
  H   H62       1.0  0.34189  0.59453  0.48776  1.0000
  H   H63       1.0  0.29355  0.59436  0.24656  1.0000
  H   H64       1.0  0.32194  0.64962  0.24561  1.0000
  H   H65       1.0  0.40220  0.69513  0.23133  1.0000
  H   H66       1.0  0.45787  0.72298  0.23286  1.0000
  C   C100      1.0  0.26320  0.78816  0.38278  1.0000
  C   C101      1.0  0.26906  0.77640  0.46549  1.0000
  C   C102      1.0  0.28619  0.76080  0.46355  1.0000
  H   H67       1.0  0.29056  0.75375  0.52549  1.0000
  O   O4        1.0  0.25807  0.77897  0.54949  1.0000
  H   H68       1.0  0.23614  0.76265  0.55152  1.0000
  C   C103      1.0  0.26396  0.98717  0.36985  1.0000
  C   C104      1.0  0.27477  0.00465  0.45320  1.0000
  C   C105      1.0  0.29051  0.53736  0.45165  1.0000
  H   H69       1.0  0.29661  0.54863  0.51397  1.0000
  O   O5        1.0  0.27099  0.99108  0.53784  1.0000
  H   H70       1.0  0.28672  0.98471  0.54213  1.0000
  C   C106      1.0  0.06276  0.78669  0.37690  1.0000
  C   C107      1.0  0.04520  0.76333  0.44365  1.0000
  C   C108      1.0  0.51248  0.74777  0.44320  1.0000
  H   H71       1.0  0.50062  0.73095  0.49187  1.0000
  O   O6        1.0  0.05871  0.75438  0.50950  1.0000
  H   H72       1.0  0.06493  0.74080  0.47818  1.0000
  C   C109      1.0  0.79726  0.25488  0.37977  1.0000
  C   C110      1.0  0.79071  0.26615  0.29756  1.0000
  C   C111      1.0  0.77459  0.28265  0.29915  1.0000
  H   H73       1.0  0.77136  0.29075  0.23740  1.0000
  H   H74       1.0  0.79722  0.26211  0.23426  1.0000
  C   C112      1.0  0.79769  0.05448  0.36784  1.0000
  C   C113      1.0  0.78765  0.03685  0.28497  1.0000
  C   C114      1.0  0.77099  0.50419  0.28598  1.0000
  H   H75       1.0  0.76368  0.49292  0.22384  1.0000
  H   H76       1.0  0.79261  0.04761  0.22184  1.0000
  C   C115      1.0  0.99595  0.25394  0.37482  1.0000
  C   C116      1.0  0.01329  0.27667  0.30740  1.0000
  C   C117      1.0  0.54592  0.29290  0.30920  1.0000
  H   H77       1.0  0.55729  0.30984  0.26058  1.0000
  H   H78       1.0  0.00224  0.28221  0.25756  1.0000
  N   N5        1.0  0.69576  0.35391  0.37263  1.0000
  C   C118      1.0  0.71214  0.33725  0.37679  1.0000
  C   C119      1.0  0.71207  0.38699  0.37007  1.0000
  C   C120      1.0  0.66276  0.33720  0.37376  1.0000
  C   C121      1.0  0.64572  0.32771  0.29042  1.0000
  C   C122      1.0  0.61307  0.31074  0.29173  1.0000
  C   C123      1.0  0.59617  0.30348  0.37610  1.0000
  C   C124      1.0  0.61368  0.31388  0.45918  1.0000
  C   C125      1.0  0.64633  0.32982  0.45823  1.0000
  C   C126      1.0  0.73326  0.34230  0.44906  1.0000
  C   C127      1.0  0.75025  0.32660  0.45056  1.0000
  C   C128      1.0  0.74610  0.30449  0.38170  1.0000
  C   C129      1.0  0.72459  0.29946  0.30998  1.0000
  C   C130      1.0  0.70836  0.31584  0.30673  1.0000
  C   C131      1.0  0.73411  0.40343  0.30016  1.0000
  C   C132      1.0  0.75129  0.43611  0.30052  1.0000
  C   C133      1.0  0.74655  0.45375  0.36919  1.0000
  C   C134      1.0  0.72356  0.43694  0.43699  1.0000
  C   C135      1.0  0.70725  0.40433  0.43879  1.0000
  H   H79       1.0  0.76627  0.33206  0.50206  1.0000
  H   H80       1.0  0.73694  0.35810  0.49987  1.0000
  H   H81       1.0  0.69347  0.31178  0.25290  1.0000
  H   H82       1.0  0.72028  0.28353  0.25897  1.0000
  H   H83       1.0  0.65707  0.33278  0.22821  1.0000
  H   H84       1.0  0.60172  0.30350  0.22969  1.0000
  H   H85       1.0  0.73839  0.39156  0.24993  1.0000
  H   H86       1.0  0.76784  0.44694  0.25048  1.0000
  H   H87       1.0  0.71820  0.44829  0.48620  1.0000
  H   H88       1.0  0.69145  0.39332  0.49042  1.0000
  H   H89       1.0  0.65814  0.33653  0.51965  1.0000
  H   H90       1.0  0.60283  0.31030  0.52188  1.0000
  N   N6        1.0  0.86364  0.18786  0.36966  1.0000
  C   C136      1.0  0.84727  0.20451  0.37313  1.0000
  C   C137      1.0  0.84754  0.15483  0.36781  1.0000
  C   C138      1.0  0.89661  0.20443  0.37094  1.0000
  C   C139      1.0  0.91293  0.21958  0.45220  1.0000
  C   C140      1.0  0.94559  0.23567  0.45368  1.0000
  C   C141      1.0  0.96283  0.23754  0.37344  1.0000
  C   C142      1.0  0.94626  0.22251  0.29193  1.0000
  C   C143      1.0  0.91361  0.20597  0.29092  1.0000
  C   C144      1.0  0.82550  0.19901  0.44363  1.0000
  C   C145      1.0  0.80892  0.21511  0.44498  1.0000
  C   C146      1.0  0.81405  0.23812  0.37795  1.0000
  C   C147      1.0  0.83649  0.24368  0.30852  1.0000
  C   C148      1.0  0.85231  0.22689  0.30508  1.0000
  C   C149      1.0  0.85232  0.13802  0.43824  1.0000
  C   C150      1.0  0.83656  0.10539  0.43693  1.0000
  C   C151      1.0  0.81447  0.08802  0.36722  1.0000
  C   C152      1.0  0.80967  0.10535  0.29749  1.0000
  C   C153      1.0  0.82614  0.13804  0.29696  1.0000
  H   H91       1.0  0.79250  0.20923  0.49541  1.0000
  H   H92       1.0  0.82110  0.18266  0.49332  1.0000
  H   H93       1.0  0.86810  0.23153  0.25336  1.0000
  H   H94       1.0  0.84205  0.26048  0.25952  1.0000
  H   H95       1.0  0.90103  0.21872  0.51097  1.0000
  H   H96       1.0  0.95671  0.24650  0.51366  1.0000
  H   H97       1.0  0.86780  0.14954  0.49034  1.0000
  H   H98       1.0  0.84189  0.09453  0.48776  1.0000
  H   H99       1.0  0.79355  0.09436  0.24656  1.0000
  H   H100      1.0  0.82194  0.14962  0.24561  1.0000
  H   H101      1.0  0.90220  0.19514  0.23133  1.0000
  H   H102      1.0  0.95788  0.22298  0.23286  1.0000
  C   C154      1.0  0.76320  0.28816  0.38278  1.0000
  C   C155      1.0  0.76906  0.27640  0.46549  1.0000
  C   C156      1.0  0.78619  0.26080  0.46355  1.0000
  H   H103      1.0  0.79056  0.25375  0.52549  1.0000
  O   O7        1.0  0.75808  0.27897  0.54949  1.0000
  H   H104      1.0  0.73614  0.26265  0.55152  1.0000
  C   C157      1.0  0.76396  0.48717  0.36985  1.0000
  C   C158      1.0  0.77477  0.50465  0.45320  1.0000
  C   C159      1.0  0.79051  0.03736  0.45165  1.0000
  H   H105      1.0  0.79661  0.04863  0.51397  1.0000
  O   O8        1.0  0.77099  0.49108  0.53784  1.0000
  H   H106      1.0  0.78672  0.48471  0.54213  1.0000
  C   C160      1.0  0.56276  0.28669  0.37690  1.0000
  C   C161      1.0  0.54520  0.26333  0.44365  1.0000
  C   C162      1.0  0.01248  0.24777  0.44320  1.0000
  H   H107      1.0  0.00062  0.23095  0.49187  1.0000
  O   O9        1.0  0.55871  0.25438  0.50950  1.0000
  H   H108      1.0  0.56493  0.24080  0.47817  1.0000
  C   C163      1.0  0.79726  0.75488  0.37977  1.0000
  C   C164      1.0  0.79071  0.76615  0.29756  1.0000
  C   C165      1.0  0.77459  0.78265  0.29915  1.0000
  H   H109      1.0  0.77135  0.79075  0.23740  1.0000
  H   H110      1.0  0.79723  0.76211  0.23426  1.0000
  C   C166      1.0  0.79769  0.55448  0.36784  1.0000
  C   C167      1.0  0.78765  0.53685  0.28497  1.0000
  C   C168      1.0  0.77099  0.00419  0.28598  1.0000
  H   H111      1.0  0.76368  0.99292  0.22384  1.0000
  H   H112      1.0  0.79261  0.54761  0.22184  1.0000
  C   C169      1.0  0.99595  0.75394  0.37482  1.0000
  C   C170      1.0  0.01328  0.77667  0.30740  1.0000
  C   C171      1.0  0.54592  0.79290  0.30920  1.0000
  H   H113      1.0  0.55729  0.80984  0.26058  1.0000
  H   H114      1.0  0.00224  0.78221  0.25756  1.0000
  N   N7        1.0  0.69576  0.85390  0.37263  1.0000
  C   C172      1.0  0.71214  0.83725  0.37679  1.0000
  C   C173      1.0  0.71207  0.88699  0.37007  1.0000
  C   C174      1.0  0.66276  0.83721  0.37376  1.0000
  C   C175      1.0  0.64572  0.82771  0.29042  1.0000
  C   C176      1.0  0.61307  0.81074  0.29173  1.0000
  C   C177      1.0  0.59617  0.80348  0.37610  1.0000
  C   C178      1.0  0.61368  0.81388  0.45918  1.0000
  C   C179      1.0  0.64633  0.82982  0.45823  1.0000
  C   C180      1.0  0.73326  0.84230  0.44906  1.0000
  C   C181      1.0  0.75025  0.82660  0.45056  1.0000
  C   C182      1.0  0.74610  0.80449  0.38170  1.0000
  C   C183      1.0  0.72459  0.79946  0.30999  1.0000
  C   C184      1.0  0.70836  0.81584  0.30673  1.0000
  C   C185      1.0  0.73411  0.90343  0.30016  1.0000
  C   C186      1.0  0.75129  0.93611  0.30052  1.0000
  C   C187      1.0  0.74655  0.95375  0.36919  1.0000
  C   C188      1.0  0.72356  0.93694  0.43699  1.0000
  C   C189      1.0  0.70725  0.90433  0.43879  1.0000
  H   H115      1.0  0.76627  0.83206  0.50206  1.0000
  H   H116      1.0  0.73694  0.85810  0.49987  1.0000
  H   H117      1.0  0.69347  0.81178  0.25290  1.0000
  H   H118      1.0  0.72028  0.78353  0.25897  1.0000
  H   H119      1.0  0.65707  0.83278  0.22821  1.0000
  H   H120      1.0  0.60172  0.80350  0.22969  1.0000
  H   H121      1.0  0.73839  0.89156  0.24993  1.0000
  H   H122      1.0  0.76784  0.94693  0.25048  1.0000
  H   H123      1.0  0.71820  0.94829  0.48620  1.0000
  H   H124      1.0  0.69145  0.89332  0.49042  1.0000
  H   H125      1.0  0.65814  0.83653  0.51965  1.0000
  H   H126      1.0  0.60283  0.81030  0.52188  1.0000
  N   N8        1.0  0.86364  0.68786  0.36966  1.0000
  C   C190      1.0  0.84728  0.70451  0.37313  1.0000
  C   C191      1.0  0.84754  0.65483  0.36781  1.0000
  C   C192      1.0  0.89661  0.70443  0.37094  1.0000
  C   C193      1.0  0.91293  0.71958  0.45220  1.0000
  C   C194      1.0  0.94559  0.73567  0.45368  1.0000
  C   C195      1.0  0.96283  0.73754  0.37344  1.0000
  C   C196      1.0  0.94626  0.72251  0.29193  1.0000
  C   C197      1.0  0.91361  0.70597  0.29092  1.0000
  C   C198      1.0  0.82550  0.69902  0.44363  1.0000
  C   C199      1.0  0.80892  0.71511  0.44498  1.0000
  C   C200      1.0  0.81405  0.73812  0.37795  1.0000
  C   C201      1.0  0.83649  0.74368  0.30852  1.0000
  C   C202      1.0  0.85232  0.72689  0.30508  1.0000
  C   C203      1.0  0.85232  0.63802  0.43824  1.0000
  C   C204      1.0  0.83656  0.60539  0.43693  1.0000
  C   C205      1.0  0.81447  0.58802  0.36722  1.0000
  C   C206      1.0  0.80967  0.60535  0.29749  1.0000
  C   C207      1.0  0.82614  0.63804  0.29696  1.0000
  H   H127      1.0  0.79250  0.70923  0.49541  1.0000
  H   H128      1.0  0.82110  0.68266  0.49332  1.0000
  H   H129      1.0  0.86810  0.73153  0.25336  1.0000
  H   H130      1.0  0.84205  0.76048  0.25952  1.0000
  H   H131      1.0  0.90103  0.71871  0.51097  1.0000
  H   H132      1.0  0.95671  0.74650  0.51366  1.0000
  H   H133      1.0  0.86780  0.64954  0.49034  1.0000
  H   H134      1.0  0.84189  0.59453  0.48776  1.0000
  H   H135      1.0  0.79355  0.59436  0.24656  1.0000
  H   H136      1.0  0.82194  0.64962  0.24561  1.0000
  H   H137      1.0  0.90220  0.69513  0.23133  1.0000
  H   H138      1.0  0.95788  0.72298  0.23286  1.0000
  C   C208      1.0  0.76320  0.78816  0.38278  1.0000
  C   C209      1.0  0.76906  0.77640  0.46549  1.0000
  C   C210      1.0  0.78620  0.76080  0.46355  1.0000
  H   H139      1.0  0.79056  0.75375  0.52549  1.0000
  O   O10       1.0  0.75808  0.77897  0.54949  1.0000
  H   H140      1.0  0.73614  0.76265  0.55152  1.0000
  C   C211      1.0  0.76396  0.98717  0.36985  1.0000
  C   C212      1.0  0.77477  0.00465  0.45320  1.0000
  C   C213      1.0  0.79051  0.53736  0.45165  1.0000
  H   H141      1.0  0.79661  0.54863  0.51397  1.0000
  O   O11       1.0  0.77099  0.99108  0.53784  1.0000
  H   H142      1.0  0.78672  0.98471  0.54213  1.0000
  C   C214      1.0  0.56276  0.78669  0.37690  1.0000
  C   C215      1.0  0.54520  0.76333  0.44365  1.0000
  C   C216      1.0  0.01248  0.74777  0.44320  1.0000
  H   H143      1.0  0.00062  0.73095  0.49187  1.0000
  O   O12       1.0  0.55871  0.75438  0.50950  1.0000
  H   H144      1.0  0.56493  0.74080  0.47818  1.0000
