data_image0
_chemical_formula_structural       C4HNO2C3HNO2CHC3HNO2CHCHC2NO2CHNCNCN4CNCNCN4C3HNO2CHC3HNO2C3HNO2CHC2HCHCNO2C3HC3HNO2CHC3HNO2C3HNO2CHC3HNO2CHC3HNO2CHNCNCN5CN4CNCN4CNCNCN4CHC3HNO2CHC3HNO2CHC3HNO2C3HNO2CHC3HNO2CHC5HNO2CHCHC3HNO2CHC3HNO2CHCHCOCHNCNCN5CNCNCNCN4C3HNO2CHCHC3HNO2CHC3HNO2CHC2HOCHCNOC5HNO2CHC3HNO2CHC3HNO2CHC2NO2CHC2NO2CHCHC2HNONCNCN5CNCN4CNCNCN4CNCNCN4C3HNO2CHC3HNO2CHC3HNO2CHCNO2CNOC2HCHC2HOCH
_chemical_formula_sum              "C180 H72 N108 O72"
_cell_length_a       60.4678
_cell_length_b       60.4678
_cell_length_c       14.6975
_cell_angle_alpha    90
_cell_angle_beta     90
_cell_angle_gamma    120

_space_group_name_H-M_alt    "P 1"
_space_group_IT_number       1

loop_
  _space_group_symop_operation_xyz
  'x, y, z'

loop_
  _atom_site_type_symbol
  _atom_site_label
  _atom_site_symmetry_multiplicity
  _atom_site_fract_x
  _atom_site_fract_y
  _atom_site_fract_z
  _atom_site_occupancy
  C   C1        1.0  0.16326  0.46998  0.35111  1.0000
  C   C2        1.0  0.27313  0.47339  0.34653  1.0000
  C   C3        1.0  0.25889  0.47260  0.26815  1.0000
  C   C4        1.0  0.23518  0.47200  0.27773  1.0000
  H   H1        1.0  0.22608  0.47300  0.22044  1.0000
  N   N1        1.0  0.26931  0.47371  0.18068  1.0000
  O   O1        1.0  0.25489  0.45440  0.13393  1.0000
  O   O2        1.0  0.27334  0.49337  0.13780  1.0000
  C   C5        1.0  0.22083  0.76988  0.34643  1.0000
  C   C6        1.0  0.23435  0.78412  0.26812  1.0000
  C   C7        1.0  0.25746  0.80784  0.27781  1.0000
  H   H2        1.0  0.26761  0.81691  0.22056  1.0000
  N   N2        1.0  0.22510  0.77372  0.18058  1.0000
  O   O3        1.0  0.22025  0.78815  0.13372  1.0000
  O   O4        1.0  0.24075  0.76968  0.13789  1.0000
  C   C8        1.0  0.20207  0.74410  0.33739  1.0000
  H   H3        1.0  0.20836  0.73247  0.31763  1.0000
  C   C9        1.0  0.14698  0.55883  0.33684  1.0000
  C   C10       1.0  0.14639  0.57321  0.26214  1.0000
  C   C11       1.0  0.14591  0.59622  0.27414  1.0000
  H   H4        1.0  0.14488  0.56623  0.19757  1.0000
  N   N3        1.0  0.14371  0.60939  0.19791  1.0000
  O   O5        1.0  0.12355  0.59579  0.15384  1.0000
  O   O6        1.0  0.16244  0.61671  0.14510  1.0000
  C   C12       1.0  0.14189  0.53396  0.32330  1.0000
  H   H5        1.0  0.12756  0.52307  0.28142  1.0000
  C   C13       1.0  0.03697  0.40693  0.27988  1.0000
  H   H6        1.0  0.04787  0.41229  0.22203  1.0000
  C   C14       1.0  0.04798  0.66043  0.35090  1.0000
  C   C15       1.0  0.03209  0.65382  0.27244  1.0000
  N   N4        1.0  0.04340  0.66353  0.18639  1.0000
  O   O7        1.0  0.04026  0.64590  0.13321  1.0000
  O   O8        1.0  0.03444  0.67614  0.14977  1.0000
  C   C16       1.0  0.07443  0.67697  0.34405  1.0000
  H   H7        1.0  0.08103  0.69475  0.32247  1.0000
  N   N5        1.0  0.13829  0.45080  0.34658  1.0000
  C   C17       1.0  0.11844  0.45559  0.34949  1.0000
  N   N6        1.0  0.12440  0.48043  0.35460  1.0000
  C   C18       1.0  0.14885  0.50012  0.35767  1.0000
  N   N7        1.0  0.16798  0.49452  0.35680  1.0000
  N   N8        1.0  0.18244  0.46477  0.34679  1.0000
  N   N9        1.0  0.15393  0.52420  0.36376  1.0000
  N   N10       1.0  0.09388  0.43674  0.34633  1.0000
  C   C19       1.0  0.15939  0.70973  0.35222  1.0000
  N   N11       1.0  0.13413  0.70307  0.35521  1.0000
  C   C20       1.0  0.11511  0.67800  0.35558  1.0000
  N   N12       1.0  0.12193  0.65981  0.35448  1.0000
  C   C21       1.0  0.14667  0.66548  0.35245  1.0000
  N   N13       1.0  0.16507  0.69050  0.35066  1.0000
  N   N14       1.0  0.17802  0.73441  0.35529  1.0000
  N   N15       1.0  0.15277  0.64714  0.34809  1.0000
  N   N16       1.0  0.08998  0.66867  0.35856  1.0000
  C   C22       1.0  0.22517  0.47263  0.36393  1.0000
  C   C23       1.0  0.23931  0.47303  0.44115  1.0000
  C   C24       1.0  0.26296  0.47343  0.43379  1.0000
  H   H8        1.0  0.23317  0.47463  0.50445  1.0000
  N   N17       1.0  0.27735  0.47548  0.51275  1.0000
  O   O9        1.0  0.28343  0.49563  0.55624  1.0000
  O   O10       1.0  0.26519  0.45675  0.56494  1.0000
  C   C25       1.0  0.20586  0.47878  0.37317  1.0000
  H   H9        1.0  0.21098  0.49554  0.40218  1.0000
  C   C26       1.0  0.26805  0.81780  0.36410  1.0000
  C   C27       1.0  0.25425  0.80368  0.44123  1.0000
  C   C28       1.0  0.23099  0.78007  0.43373  1.0000
  H   H10       1.0  0.26194  0.80985  0.50460  1.0000
  N   N18       1.0  0.21857  0.76568  0.51260  1.0000
  O   O11       1.0  0.23258  0.75957  0.55633  1.0000
  O   O12       1.0  0.21199  0.77787  0.56463  1.0000
  C   C29       1.0  0.14605  0.60527  0.36357  1.0000
  C   C30       1.0  0.14746  0.59139  0.43944  1.0000
  C   C31       1.0  0.14817  0.56856  0.42513  1.0000
  H   H11       1.0  0.14768  0.55803  0.48054  1.0000
  N   N19       1.0  0.14708  0.60003  0.52887  1.0000
  O   O13       1.0  0.16686  0.60476  0.57236  1.0000
  O   O14       1.0  0.12788  0.58401  0.57286  1.0000
  C   C32       1.0  0.13947  0.62402  0.37736  1.0000
  H   H12       1.0  0.12281  0.61849  0.40800  1.0000
  C   C33       1.0  0.04862  0.41782  0.36398  1.0000
  C   C34       1.0  0.03257  0.41131  0.44108  1.0000
  H   H13       1.0  0.04030  0.41961  0.50245  1.0000
  C   C35       1.0  0.07380  0.43787  0.36945  1.0000
  H   H14       1.0  0.07611  0.45419  0.39451  1.0000
  C   C36       1.0  0.03651  0.64945  0.43598  1.0000
  N   N20       1.0  0.05201  0.65541  0.51476  1.0000
  O   O15       1.0  0.05129  0.63587  0.54763  1.0000
  O   O16       1.0  0.04533  0.66560  0.57517  1.0000
  C   C37       1.0  0.32731  0.87973  0.35111  1.0000
  C   C38       1.0  0.46940  0.32792  0.35102  1.0000
  C   C39       1.0  0.29893  0.48045  0.33775  1.0000
  H   H15       1.0  0.31057  0.49840  0.31842  1.0000
  C   C40       1.0  0.47277  0.22146  0.34645  1.0000
  C   C41       1.0  0.47194  0.23493  0.26819  1.0000
  C   C42       1.0  0.47135  0.25805  0.27797  1.0000
  H   H16       1.0  0.47232  0.26817  0.22076  1.0000
  N   N21       1.0  0.47300  0.22564  0.18063  1.0000
  O   O17       1.0  0.45365  0.22076  0.13408  1.0000
  O   O18       1.0  0.49263  0.24128  0.13764  1.0000
  C   C43       1.0  0.47980  0.20270  0.33743  1.0000
  H   H17       1.0  0.49771  0.20899  0.31760  1.0000
  C   C44       1.0  0.48416  0.61061  0.33698  1.0000
  C   C45       1.0  0.46978  0.59565  0.26224  1.0000
  C   C46       1.0  0.44679  0.57214  0.27424  1.0000
  H   H18       1.0  0.47679  0.60110  0.19769  1.0000
  N   N22       1.0  0.43364  0.55676  0.19800  1.0000
  O   O19       1.0  0.44727  0.55022  0.15397  1.0000
  O   O20       1.0  0.42631  0.56815  0.14515  1.0000
  C   C47       1.0  0.43242  0.89597  0.33694  1.0000
  C   C48       1.0  0.44740  0.89658  0.26220  1.0000
  C   C49       1.0  0.47092  0.89713  0.27416  1.0000
  H   H19       1.0  0.44194  0.89815  0.19766  1.0000
  N   N23       1.0  0.48629  0.89937  0.19788  1.0000
  O   O21       1.0  0.49282  0.91953  0.15388  1.0000
  O   O22       1.0  0.47491  0.88065  0.14501  1.0000
  C   C50       1.0  0.41267  0.90109  0.32337  1.0000
  H   H20       1.0  0.41613  0.91545  0.28160  1.0000
  C   C51       1.0  0.40937  0.04861  0.35094  1.0000
  C   C52       1.0  0.40012  0.03272  0.27245  1.0000
  C   C53       1.0  0.39052  0.00598  0.27998  1.0000
  H   H21       1.0  0.38497  0.99506  0.22216  1.0000
  N   N24       1.0  0.40175  0.04404  0.18639  1.0000
  O   O23       1.0  0.41627  0.04091  0.13331  1.0000
  O   O24       1.0  0.38020  0.03508  0.14966  1.0000
  C   C54       1.0  0.41927  0.07506  0.34409  1.0000
  H   H22       1.0  0.40808  0.08166  0.32269  1.0000
  C   C55       1.0  0.38257  0.40998  0.35082  1.0000
  C   C56       1.0  0.38919  0.40071  0.27231  1.0000
  C   C57       1.0  0.40633  0.39111  0.27980  1.0000
  H   H23       1.0  0.41167  0.38554  0.22199  1.0000
  N   N25       1.0  0.37950  0.40235  0.18627  1.0000
  O   O25       1.0  0.39714  0.41686  0.13315  1.0000
  O   O26       1.0  0.36689  0.38079  0.14956  1.0000
  C   C58       1.0  0.36604  0.41990  0.34396  1.0000
  H   H24       1.0  0.34818  0.40865  0.32331  1.0000
  N   N26       1.0  0.33310  0.90469  0.34654  1.0000
  C   C59       1.0  0.35774  0.92454  0.34946  1.0000
  N   N27       1.0  0.37663  0.91858  0.35458  1.0000
  C   C60       1.0  0.37185  0.89412  0.35767  1.0000
  N   N28       1.0  0.34712  0.87500  0.35680  1.0000
  N   N29       1.0  0.30293  0.86055  0.34675  1.0000
  N   N30       1.0  0.39085  0.88904  0.36375  1.0000
  N   N31       1.0  0.36347  0.94910  0.34629  1.0000
  N   N32       1.0  0.45023  0.33370  0.34639  1.0000
  C   C61       1.0  0.45500  0.35834  0.34935  1.0000
  N   N33       1.0  0.47985  0.37723  0.35455  1.0000
  N   N34       1.0  0.49394  0.34773  0.35678  1.0000
  N   N35       1.0  0.46422  0.30354  0.34658  1.0000
  N   N36       1.0  0.43616  0.36406  0.34613  1.0000
  C   C62       1.0  0.47147  0.16002  0.35226  1.0000
  N   N37       1.0  0.45288  0.13476  0.35524  1.0000
  C   C63       1.0  0.45892  0.11574  0.35561  1.0000
  N   N38       1.0  0.48392  0.12255  0.35447  1.0000
  N   N39       1.0  0.49638  0.16569  0.35067  1.0000
  N   N40       1.0  0.46543  0.17865  0.35534  1.0000
  N   N41       1.0  0.44312  0.09061  0.35854  1.0000
  C   C64       1.0  0.33328  0.47210  0.35223  1.0000
  N   N42       1.0  0.33995  0.45351  0.35507  1.0000
  C   C65       1.0  0.36502  0.45956  0.35545  1.0000
  N   N43       1.0  0.38320  0.48456  0.35442  1.0000
  C   C66       1.0  0.37754  0.50363  0.35252  1.0000
  N   N44       1.0  0.35251  0.49700  0.35075  1.0000
  N   N45       1.0  0.30860  0.46605  0.35522  1.0000
  N   N46       1.0  0.39587  0.52807  0.34820  1.0000
  N   N47       1.0  0.37436  0.44376  0.35818  1.0000
  C   C67       1.0  0.29351  0.83714  0.37334  1.0000
  H   H25       1.0  0.30514  0.83205  0.40259  1.0000
  C   C68       1.0  0.47207  0.26866  0.36427  1.0000
  C   C69       1.0  0.47246  0.25489  0.44140  1.0000
  C   C70       1.0  0.47285  0.23165  0.43381  1.0000
  H   H26       1.0  0.47408  0.26262  0.50476  1.0000
  N   N48       1.0  0.47491  0.21927  0.51264  1.0000
  O   O27       1.0  0.49507  0.23331  0.55610  1.0000
  O   O28       1.0  0.45619  0.21268  0.56491  1.0000
  C   C71       1.0  0.47814  0.29411  0.37374  1.0000
  H   H27       1.0  0.49478  0.30572  0.40355  1.0000
  C   C72       1.0  0.43774  0.56323  0.36365  1.0000
  C   C73       1.0  0.45160  0.57851  0.43954  1.0000
  C   C74       1.0  0.47443  0.60207  0.42526  1.0000
  H   H28       1.0  0.48496  0.61210  0.48067  1.0000
  N   N49       1.0  0.44295  0.56948  0.52896  1.0000
  O   O29       1.0  0.43821  0.58452  0.57245  1.0000
  O   O30       1.0  0.45898  0.56631  0.57296  1.0000
  C   C75       1.0  0.41900  0.53789  0.37742  1.0000
  H   H29       1.0  0.42453  0.52676  0.40800  1.0000
  C   C76       1.0  0.47982  0.89696  0.36357  1.0000
  C   C77       1.0  0.46455  0.89553  0.43947  1.0000
  C   C78       1.0  0.44100  0.89482  0.42521  1.0000
  H   H30       1.0  0.43094  0.89527  0.48062  1.0000
  N   N50       1.0  0.47358  0.89589  0.52887  1.0000
  O   O31       1.0  0.45853  0.87611  0.57234  1.0000
  O   O32       1.0  0.47675  0.91508  0.57292  1.0000
  C   C79       1.0  0.38984  0.99438  0.36410  1.0000
  C   C80       1.0  0.39937  0.01043  0.44116  1.0000
  C   C81       1.0  0.40885  0.03713  0.43603  1.0000
  H   H31       1.0  0.39995  0.00271  0.50255  1.0000
  N   N51       1.0  0.41835  0.05262  0.51485  1.0000
  O   O33       1.0  0.43717  0.05192  0.54783  1.0000
  O   O34       1.0  0.40146  0.04593  0.57517  1.0000
  C   C82       1.0  0.38467  0.96917  0.36957  1.0000
  H   H32       1.0  0.39865  0.96684  0.39478  1.0000
  C   C83       1.0  0.41724  0.39040  0.36391  1.0000
  C   C84       1.0  0.41075  0.39996  0.44098  1.0000
  C   C85       1.0  0.39354  0.40946  0.43588  1.0000
  H   H33       1.0  0.41905  0.40055  0.50235  1.0000
  N   N52       1.0  0.38758  0.41899  0.51469  1.0000
  O   O35       1.0  0.40712  0.43780  0.54760  1.0000
  O   O36       1.0  0.37738  0.40212  0.57506  1.0000
  C   C86       1.0  0.43728  0.38525  0.36947  1.0000
  H   H34       1.0  0.45358  0.39922  0.39476  1.0000
  C   C87       1.0  0.49954  0.37246  0.35769  1.0000
  C   C88       1.0  0.57302  0.71572  0.35105  1.0000
  C   C89       1.0  0.56963  0.82215  0.34628  1.0000
  C   C90       1.0  0.57039  0.80863  0.26805  1.0000
  C   C91       1.0  0.57099  0.78552  0.27797  1.0000
  H   H35       1.0  0.56998  0.77537  0.22081  1.0000
  N   N53       1.0  0.56928  0.81786  0.18043  1.0000
  O   O37       1.0  0.58860  0.82271  0.13375  1.0000
  O   O38       1.0  0.54962  0.80221  0.13764  1.0000
  C   C92       1.0  0.56264  0.84094  0.33702  1.0000
  H   H36       1.0  0.54477  0.83468  0.31680  1.0000
  C   C93       1.0  0.50902  0.63038  0.32335  1.0000
  H   H37       1.0  0.51990  0.62693  0.28147  1.0000
  C   C94       1.0  0.55824  0.43304  0.33683  1.0000
  C   C95       1.0  0.57262  0.44801  0.26212  1.0000
  C   C96       1.0  0.59563  0.47151  0.27410  1.0000
  H   H38       1.0  0.56564  0.44253  0.19755  1.0000
  N   N54       1.0  0.60880  0.48686  0.19785  1.0000
  O   O39       1.0  0.59520  0.49342  0.15373  1.0000
  O   O40       1.0  0.61612  0.47545  0.14508  1.0000
  C   C97       1.0  0.53338  0.41327  0.32330  1.0000
  H   H39       1.0  0.52249  0.41671  0.28142  1.0000
  C   C98       1.0  0.60997  0.14764  0.33694  1.0000
  C   C99       1.0  0.59503  0.14707  0.26217  1.0000
  C   C100      1.0  0.57151  0.14654  0.27414  1.0000
  H   H40       1.0  0.60048  0.14551  0.19763  1.0000
  N   N55       1.0  0.55615  0.14432  0.19789  1.0000
  O   O41       1.0  0.54961  0.12416  0.15385  1.0000
  O   O42       1.0  0.56754  0.16305  0.14506  1.0000
  C   C101      1.0  0.62974  0.14254  0.32334  1.0000
  H   H41       1.0  0.62630  0.12821  0.28146  1.0000
  C   C102      1.0  0.63607  0.65254  0.28002  1.0000
  H   H42       1.0  0.63074  0.65814  0.22224  1.0000
  C   C103      1.0  0.63305  0.99502  0.35093  1.0000
  O   O43       1.0  0.62626  0.00274  0.13322  1.0000
  C   C104      1.0  0.62315  0.96857  0.34407  1.0000
  H   H43       1.0  0.63433  0.96197  0.32247  1.0000
  N   N56       1.0  0.59219  0.70993  0.34641  1.0000
  C   C105      1.0  0.58740  0.68530  0.34939  1.0000
  N   N57       1.0  0.56256  0.66641  0.35459  1.0000
  C   C106      1.0  0.54287  0.67118  0.35771  1.0000
  N   N58       1.0  0.54848  0.69591  0.35681  1.0000
  N   N59       1.0  0.57820  0.74010  0.34657  1.0000
  N   N60       1.0  0.51880  0.65218  0.36384  1.0000
  N   N61       1.0  0.60624  0.67956  0.34617  1.0000
  N   N62       1.0  0.52361  0.39147  0.36378  1.0000
  C   C107      1.0  0.50300  0.14729  0.35243  1.0000
  N   N63       1.0  0.52743  0.15339  0.34807  1.0000
  C   C108      1.0  0.57094  0.88360  0.35222  1.0000
  N   N64       1.0  0.58954  0.90886  0.35524  1.0000
  C   C109      1.0  0.58350  0.92788  0.35560  1.0000
  N   N65       1.0  0.55850  0.92107  0.35448  1.0000
  C   C110      1.0  0.53942  0.89634  0.35246  1.0000
  N   N66       1.0  0.54604  0.87793  0.35065  1.0000
  N   N67       1.0  0.57697  0.86497  0.35537  1.0000
  N   N68       1.0  0.51498  0.89024  0.34805  1.0000
  N   N69       1.0  0.59930  0.95302  0.35859  1.0000
  C   C111      1.0  0.57034  0.77498  0.36434  1.0000
  C   C112      1.0  0.57002  0.78881  0.44140  1.0000
  C   C113      1.0  0.56965  0.81206  0.43369  1.0000
  H   H44       1.0  0.56849  0.78113  0.50481  1.0000
  N   N70       1.0  0.56767  0.82451  0.51245  1.0000
  O   O44       1.0  0.54754  0.81051  0.55618  1.0000
  O   O45       1.0  0.58643  0.83113  0.56452  1.0000
  C   C114      1.0  0.56429  0.74954  0.37387  1.0000
  H   H45       1.0  0.54768  0.73794  0.40386  1.0000
  C   C115      1.0  0.50517  0.90357  0.37718  1.0000
  H   H46       1.0  0.51630  0.92022  0.40789  1.0000
  C   C116      1.0  0.60467  0.48042  0.36352  1.0000
  C   C117      1.0  0.59080  0.46516  0.43940  1.0000
  C   C118      1.0  0.56796  0.44160  0.42512  1.0000
  H   H47       1.0  0.55744  0.43158  0.48054  1.0000
  N   N71       1.0  0.59944  0.47419  0.52883  1.0000
  O   O46       1.0  0.60417  0.45915  0.57237  1.0000
  O   O47       1.0  0.58341  0.47737  0.57278  1.0000
  C   C119      1.0  0.62342  0.50577  0.37726  1.0000
  H   H48       1.0  0.61789  0.51689  0.40793  1.0000
  C   C120      1.0  0.56260  0.14669  0.36355  1.0000
  C   C121      1.0  0.57787  0.14810  0.43945  1.0000
  C   C122      1.0  0.60143  0.14883  0.42521  1.0000
  H   H49       1.0  0.61145  0.14832  0.48063  1.0000
  N   N72       1.0  0.56883  0.14772  0.52887  1.0000
  O   O48       1.0  0.58388  0.16750  0.57238  1.0000
  O   O49       1.0  0.56566  0.12852  0.57287  1.0000
  C   C123      1.0  0.53726  0.14008  0.37728  1.0000
  H   H50       1.0  0.52613  0.12343  0.40793  1.0000
  C   C124      1.0  0.62513  0.65318  0.36413  1.0000
  C   C125      1.0  0.63163  0.64364  0.44118  1.0000
  H   H51       1.0  0.62333  0.64304  0.50256  1.0000
  O   O50       1.0  0.63530  0.60580  0.54768  1.0000
  C   C126      1.0  0.60511  0.65838  0.36969  1.0000
  H   H52       1.0  0.58882  0.64444  0.39516  1.0000
  C   C127      1.0  0.63354  0.00648  0.43601  1.0000
  N   N73       1.0  0.62401  0.99099  0.51480  1.0000
  O   O51       1.0  0.60518  0.99169  0.54769  1.0000
  C   C128      1.0  0.87911  0.57361  0.35102  1.0000
  C   C129      1.0  0.71508  0.16389  0.35104  1.0000
  C   C130      1.0  0.76928  0.57027  0.34647  1.0000
  C   C131      1.0  0.78356  0.57104  0.26819  1.0000
  C   C132      1.0  0.80727  0.57165  0.27790  1.0000
  H   H53       1.0  0.81637  0.57060  0.22068  1.0000
  N   N74       1.0  0.77318  0.56993  0.18064  1.0000
  O   O52       1.0  0.78762  0.58924  0.13391  1.0000
  O   O53       1.0  0.76916  0.55027  0.13780  1.0000
  C   C133      1.0  0.74350  0.56324  0.33736  1.0000
  H   H54       1.0  0.73188  0.54534  0.31748  1.0000
  C   C134      1.0  0.82151  0.27372  0.34639  1.0000
  C   C135      1.0  0.80800  0.25945  0.26812  1.0000
  C   C136      1.0  0.78489  0.23575  0.27797  1.0000
  H   H55       1.0  0.77474  0.22661  0.22079  1.0000
  N   N75       1.0  0.81724  0.26982  0.18053  1.0000
  O   O54       1.0  0.82209  0.25536  0.13380  1.0000
  O   O55       1.0  0.80159  0.27383  0.13776  1.0000
  C   C137      1.0  0.84030  0.29950  0.33721  1.0000
  H   H56       1.0  0.83403  0.31111  0.31704  1.0000
  C   C138      1.0  0.89537  0.48475  0.33681  1.0000
  C   C139      1.0  0.89594  0.47036  0.26210  1.0000
  C   C140      1.0  0.89645  0.44737  0.27414  1.0000
  H   H57       1.0  0.89747  0.47735  0.19754  1.0000
  N   N76       1.0  0.89865  0.43419  0.19793  1.0000
  O   O56       1.0  0.91881  0.44780  0.15384  1.0000
  O   O57       1.0  0.87992  0.42686  0.14511  1.0000
  C   C141      1.0  0.90044  0.50961  0.32319  1.0000
  H   H58       1.0  0.91475  0.52049  0.28122  1.0000
  C   C142      1.0  0.99436  0.38315  0.35097  1.0000
  C   C143      1.0  0.01023  0.38979  0.27241  1.0000
  N   N77       1.0  0.99888  0.38012  0.18638  1.0000
  O   O58       1.0  0.00200  0.39777  0.13335  1.0000
  O   O59       1.0  0.00783  0.36752  0.14954  1.0000
  C   C144      1.0  0.96791  0.36662  0.34416  1.0000
  H   H59       1.0  0.96130  0.34875  0.32356  1.0000
  C   C145      1.0  0.65983  0.63366  0.35092  1.0000
  C   C146      1.0  0.65322  0.64295  0.27246  1.0000
  N   N78       1.0  0.66293  0.64135  0.18641  1.0000
  O   O60       1.0  0.64530  0.62687  0.13322  1.0000
  O   O61       1.0  0.67553  0.66293  0.14982  1.0000
  C   C147      1.0  0.67637  0.62375  0.34403  1.0000
  H   H60       1.0  0.69418  0.63496  0.32277  1.0000
  C   C148      1.0  0.00534  0.63669  0.27997  1.0000
  H   H61       1.0  0.99442  0.63134  0.22217  1.0000
  C   C149      1.0  0.64234  0.01092  0.27247  1.0000
  C   C150      1.0  0.65192  0.03765  0.28001  1.0000
  H   H62       1.0  0.65752  0.04859  0.22222  1.0000
  N   N79       1.0  0.64074  0.99961  0.18642  1.0000
  O   O62       1.0  0.66232  0.00858  0.14984  1.0000
  N   N80       1.0  0.90407  0.59278  0.34640  1.0000
  C   C151      1.0  0.92392  0.58799  0.34937  1.0000
  N   N81       1.0  0.91796  0.56315  0.35455  1.0000
  C   C152      1.0  0.89350  0.54347  0.35767  1.0000
  N   N82       1.0  0.87437  0.54907  0.35677  1.0000
  N   N83       1.0  0.85992  0.57880  0.34658  1.0000
  N   N84       1.0  0.88843  0.51939  0.36379  1.0000
  N   N85       1.0  0.94848  0.60683  0.34615  1.0000
  N   N86       1.0  0.70930  0.13893  0.34641  1.0000
  C   C153      1.0  0.68466  0.11908  0.34938  1.0000
  N   N87       1.0  0.66577  0.12504  0.35458  1.0000
  C   C154      1.0  0.67054  0.14949  0.35771  1.0000
  N   N88       1.0  0.69527  0.16862  0.35680  1.0000
  N   N89       1.0  0.73946  0.18308  0.34660  1.0000
  N   N90       1.0  0.65155  0.15457  0.36383  1.0000
  N   N91       1.0  0.67893  0.09451  0.34617  1.0000
  C   C155      1.0  0.70914  0.57155  0.35226  1.0000
  N   N92       1.0  0.70247  0.59015  0.35520  1.0000
  C   C156      1.0  0.67741  0.58410  0.35552  1.0000
  N   N93       1.0  0.65922  0.55910  0.35440  1.0000
  C   C157      1.0  0.66488  0.54002  0.35239  1.0000
  N   N94       1.0  0.68991  0.54665  0.35066  1.0000
  N   N95       1.0  0.73381  0.57759  0.35536  1.0000
  N   N96       1.0  0.64655  0.51559  0.34803  1.0000
  N   N97       1.0  0.66807  0.59990  0.35844  1.0000
  C   C158      1.0  0.88296  0.33386  0.35238  1.0000
  N   N98       1.0  0.90821  0.34053  0.35527  1.0000
  C   C159      1.0  0.92723  0.36560  0.35558  1.0000
  N   N99       1.0  0.92041  0.38378  0.35447  1.0000
  C   C160      1.0  0.89568  0.37812  0.35256  1.0000
  N   N100      1.0  0.87727  0.35309  0.35082  1.0000
  N   N101      1.0  0.86432  0.30919  0.35549  1.0000
  N   N102      1.0  0.88958  0.39645  0.34816  1.0000
  N   N103      1.0  0.95237  0.37494  0.35833  1.0000
  C   C161      1.0  0.81719  0.57096  0.36420  1.0000
  C   C162      1.0  0.80306  0.57062  0.44135  1.0000
  C   C163      1.0  0.77944  0.57024  0.43379  1.0000
  H   H63       1.0  0.80919  0.56902  0.50471  1.0000
  N   N104      1.0  0.76501  0.56821  0.51263  1.0000
  O   O63       1.0  0.75890  0.54806  0.55620  1.0000
  O   O64       1.0  0.77716  0.58695  0.56482  1.0000
  C   C164      1.0  0.83655  0.56487  0.37364  1.0000
  H   H64       1.0  0.83150  0.54821  0.40336  1.0000
  C   C165      1.0  0.77434  0.22582  0.36431  1.0000
  C   C166      1.0  0.78816  0.23996  0.44142  1.0000
  C   C167      1.0  0.81141  0.26358  0.43378  1.0000
  H   H65       1.0  0.78048  0.23381  0.50480  1.0000
  N   N105      1.0  0.82385  0.27799  0.51257  1.0000
  O   O65       1.0  0.80984  0.28411  0.55631  1.0000
  O   O66       1.0  0.83047  0.26584  0.56461  1.0000
  C   C168      1.0  0.74890  0.20644  0.37379  1.0000
  H   H66       1.0  0.73728  0.21147  0.40363  1.0000
  C   C169      1.0  0.89630  0.43834  0.36359  1.0000
  C   C170      1.0  0.89489  0.45220  0.43946  1.0000
  C   C171      1.0  0.89419  0.47504  0.42513  1.0000
  H   H67       1.0  0.89465  0.48556  0.48050  1.0000
  N   N106      1.0  0.89524  0.44355  0.52891  1.0000
  O   O67       1.0  0.87545  0.43883  0.57234  1.0000
  O   O68       1.0  0.91443  0.45956  0.57294  1.0000
  C   C172      1.0  0.90288  0.41958  0.37740  1.0000
  H   H68       1.0  0.91954  0.42510  0.40806  1.0000
  C   C173      1.0  0.00586  0.39410  0.43603  1.0000
  N   N107      1.0  0.99038  0.38813  0.51487  1.0000
  O   O69       1.0  0.99112  0.40767  0.54785  1.0000
  O   O70       1.0  0.99707  0.37793  0.57518  1.0000
  C   C174      1.0  0.64886  0.63415  0.43601  1.0000
  N   N108      1.0  0.65483  0.62462  0.51478  1.0000
  O   O71       1.0  0.66502  0.64149  0.57518  1.0000
  C   C175      1.0  0.99375  0.62573  0.36406  1.0000
  C   C176      1.0  0.00980  0.63223  0.44112  1.0000
  H   H69       1.0  0.00210  0.62391  0.50249  1.0000
  C   C177      1.0  0.96854  0.60571  0.36966  1.0000
  H   H70       1.0  0.96620  0.58942  0.39508  1.0000
  C   C178      1.0  0.65256  0.04924  0.36411  1.0000
  C   C179      1.0  0.64302  0.03319  0.44116  1.0000
  H   H71       1.0  0.64242  0.04090  0.50254  1.0000
  O   O72       1.0  0.64088  0.99767  0.57519  1.0000
  C   C180      1.0  0.65775  0.07445  0.36965  1.0000
  H   H72       1.0  0.64380  0.07680  0.39507  1.0000
