data_image0
_chemical_formula_structural       CHCHC2HC2H4CH4C3HCH3NHC3HCH3NHC2H2NHC29H17C3O3C29H17C3O3C3HCH3NHC3HCH3NHCH3NH
_chemical_formula_sum              "C90 H72 N6 O6"
_cell_length_a       45.0576
_cell_length_b       45.0576
_cell_length_c       14.971
_cell_angle_alpha    90
_cell_angle_beta     90
_cell_angle_gamma    120

_space_group_name_H-M_alt    "P 1"
_space_group_IT_number       1

loop_
  _space_group_symop_operation_xyz
  'x, y, z'

loop_
  _atom_site_type_symbol
  _atom_site_label
  _atom_site_symmetry_multiplicity
  _atom_site_fract_x
  _atom_site_fract_y
  _atom_site_fract_z
  _atom_site_occupancy
  C   C1        1.0  0.01695  0.50669  0.41592  1.0000
  H   H1        1.0  0.01329  0.50620  0.55982  1.0000
  C   C2        1.0  0.02219  0.50935  0.25171  1.0000
  H   H2        1.0  0.03043  0.49231  0.12683  1.0000
  C   C3        1.0  0.03232  0.51316  0.50687  1.0000
  C   C4        1.0  0.04141  0.51583  0.16629  1.0000
  H   H3        1.0  0.03946  0.53542  0.12807  1.0000
  C   C5        1.0  0.03766  0.51521  0.33776  1.0000
  C   C6        1.0  0.40853  0.85515  0.33161  1.0000
  H   H4        1.0  0.39782  0.86989  0.31661  1.0000
  H   H5        1.0  0.36069  0.80977  0.33159  1.0000
  H   H6        1.0  0.47400  0.60461  0.31678  1.0000
  H   H7        1.0  0.13254  0.52842  0.31662  1.0000
  C   C7        1.0  0.59595  0.14661  0.32837  1.0000
  H   H8        1.0  0.60714  0.13169  0.33121  1.0000
  H   H9        1.0  0.64316  0.19197  0.31182  1.0000
  H   H10       1.0  0.52648  0.39530  0.33127  1.0000
  H   H11       1.0  0.87075  0.47591  0.33125  1.0000
  C   C8        1.0  0.51612  0.47955  0.32216  1.0000
  C   C9        1.0  0.49308  0.51333  0.25175  1.0000
  C   C10       1.0  0.50672  0.49116  0.24563  1.0000
  H   H12       1.0  0.51124  0.48434  0.18398  1.0000
  C   C11       1.0  0.48661  0.52608  0.16632  1.0000
  H   H13       1.0  0.47805  0.54460  0.17565  1.0000
  H   H14       1.0  0.46702  0.50455  0.12808  1.0000
  H   H15       1.0  0.51013  0.53861  0.12688  1.0000
  N   N1        1.0  0.52986  0.45853  0.31317  1.0000
  H   H16       1.0  0.52006  0.44108  0.26663  1.0000
  C   C12       1.0  0.52290  0.03707  0.32224  1.0000
  C   C13       1.0  0.48910  0.98025  0.25181  1.0000
  C   C14       1.0  0.51128  0.01607  0.24570  1.0000
  H   H17       1.0  0.51811  0.02741  0.18406  1.0000
  C   C15       1.0  0.47634  0.96104  0.16638  1.0000
  H   H18       1.0  0.45781  0.93397  0.17570  1.0000
  H   H19       1.0  0.49786  0.96298  0.12811  1.0000
  H   H20       1.0  0.46381  0.97205  0.12696  1.0000
  N   N2        1.0  0.54397  0.07182  0.31330  1.0000
  H   H21       1.0  0.56139  0.07946  0.26666  1.0000
  C   C16       1.0  0.96536  0.48627  0.32212  1.0000
  C   C17       1.0  0.98637  0.49569  0.24559  1.0000
  H   H22       1.0  0.97503  0.49116  0.18394  1.0000
  H   H23       1.0  0.06849  0.52440  0.17561  1.0000
  N   N3        1.0  0.93060  0.47248  0.31310  1.0000
  H   H24       1.0  0.92295  0.48232  0.26664  1.0000
  C   C18       1.0  0.44450  0.87009  0.34117  1.0000
  C   C19       1.0  0.45754  0.84778  0.35787  1.0000
  C   C20       1.0  0.43561  0.81215  0.36570  1.0000
  C   C21       1.0  0.39979  0.79754  0.35605  1.0000
  C   C22       1.0  0.38652  0.81954  0.33950  1.0000
  C   C23       1.0  0.37762  0.76251  0.36432  1.0000
  C   C24       1.0  0.37978  0.73896  0.31378  1.0000
  C   C25       1.0  0.35731  0.70380  0.31959  1.0000
  C   C26       1.0  0.32134  0.68982  0.31888  1.0000
  C   C27       1.0  0.29863  0.65400  0.31948  1.0000
  C   C28       1.0  0.31261  0.63200  0.31884  1.0000
  C   C29       1.0  0.34842  0.64512  0.31950  1.0000
  C   C30       1.0  0.37042  0.68109  0.31892  1.0000
  C   C31       1.0  0.36113  0.62265  0.31371  1.0000
  C   C32       1.0  0.38681  0.62480  0.36432  1.0000
  C   C33       1.0  0.39967  0.60264  0.35608  1.0000
  C   C34       1.0  0.43494  0.61590  0.33958  1.0000
  C   C35       1.0  0.37846  0.56681  0.36571  1.0000
  C   C36       1.0  0.39216  0.54488  0.35787  1.0000
  C   C37       1.0  0.42751  0.55793  0.34125  1.0000
  C   C38       1.0  0.44855  0.59389  0.33178  1.0000
  C   C39       1.0  0.26346  0.64130  0.31369  1.0000
  C   C40       1.0  0.23992  0.61559  0.36424  1.0000
  C   C41       1.0  0.20489  0.60274  0.35600  1.0000
  C   C42       1.0  0.19029  0.62395  0.36572  1.0000
  C   C43       1.0  0.18289  0.56747  0.33943  1.0000
  C   C44       1.0  0.14727  0.55387  0.33163  1.0000
  C   C45       1.0  0.13234  0.57490  0.34124  1.0000
  C   C46       1.0  0.15465  0.61025  0.35792  1.0000
  H   H25       1.0  0.48330  0.85730  0.36574  1.0000
  H   H26       1.0  0.44603  0.79696  0.37880  1.0000
  H   H27       1.0  0.39643  0.69092  0.31622  1.0000
  H   H28       1.0  0.31150  0.70599  0.31620  1.0000
  H   H29       1.0  0.29643  0.60600  0.31612  1.0000
  H   H30       1.0  0.20548  0.64956  0.37883  1.0000
  H   H31       1.0  0.45100  0.64173  0.33175  1.0000
  H   H32       1.0  0.37592  0.51912  0.36573  1.0000
  H   H33       1.0  0.35285  0.55639  0.37877  1.0000
  H   H34       1.0  0.14514  0.62650  0.36583  1.0000
  H   H35       1.0  0.19266  0.55141  0.33154  1.0000
  H   H36       1.0  0.39818  0.64381  0.40830  1.0000
  H   H37       1.0  0.35006  0.60364  0.26955  1.0000
  H   H38       1.0  0.35859  0.75489  0.40822  1.0000
  H   H39       1.0  0.39881  0.74691  0.26967  1.0000
  H   H40       1.0  0.24755  0.60420  0.40816  1.0000
  H   H41       1.0  0.25552  0.65239  0.26960  1.0000
  C   C47       1.0  0.09628  0.56157  0.33177  1.0000
  C   C48       1.0  0.44086  0.53520  0.33178  1.0000
  C   C49       1.0  0.46722  0.90615  0.33171  1.0000
  O   O1        1.0  0.41901  0.50253  0.30574  1.0000
  O   O2        1.0  0.49990  0.91699  0.30576  1.0000
  O   O3        1.0  0.08545  0.58342  0.30582  1.0000
  C   C50       1.0  0.56007  0.13184  0.33860  1.0000
  C   C51       1.0  0.54628  0.15400  0.33732  1.0000
  C   C52       1.0  0.56750  0.18956  0.32570  1.0000
  C   C53       1.0  0.60339  0.20427  0.31695  1.0000
  C   C54       1.0  0.61727  0.18222  0.31761  1.0000
  C   C55       1.0  0.62496  0.23940  0.30675  1.0000
  C   C56       1.0  0.62396  0.26301  0.35977  1.0000
  C   C57       1.0  0.64594  0.29813  0.35183  1.0000
  C   C58       1.0  0.68194  0.31243  0.35248  1.0000
  C   C59       1.0  0.70428  0.34831  0.35189  1.0000
  C   C60       1.0  0.68998  0.37001  0.35247  1.0000
  C   C61       1.0  0.65410  0.35646  0.35188  1.0000
  C   C62       1.0  0.63240  0.32046  0.35243  1.0000
  C   C63       1.0  0.64096  0.37844  0.35983  1.0000
  C   C64       1.0  0.61636  0.37745  0.30679  1.0000
  C   C65       1.0  0.60279  0.39902  0.31699  1.0000
  C   C66       1.0  0.56688  0.38516  0.31763  1.0000
  C   C67       1.0  0.62399  0.43491  0.32575  1.0000
  C   C68       1.0  0.60966  0.45614  0.33739  1.0000
  C   C69       1.0  0.57371  0.44236  0.33867  1.0000
  C   C70       1.0  0.55259  0.40648  0.32840  1.0000
  C   C71       1.0  0.73940  0.36145  0.35986  1.0000
  C   C72       1.0  0.76301  0.38605  0.30685  1.0000
  C   C73       1.0  0.79814  0.39961  0.31707  1.0000
  C   C74       1.0  0.81283  0.37840  0.32585  1.0000
  C   C75       1.0  0.82020  0.43552  0.31773  1.0000
  C   C76       1.0  0.85582  0.44981  0.32847  1.0000
  C   C77       1.0  0.87057  0.42868  0.33873  1.0000
  C   C78       1.0  0.84839  0.39273  0.33747  1.0000
  H   H42       1.0  0.52044  0.14441  0.34355  1.0000
  H   H43       1.0  0.55646  0.20465  0.32407  1.0000
  H   H44       1.0  0.60636  0.31037  0.35571  1.0000
  H   H45       1.0  0.69203  0.29648  0.35574  1.0000
  H   H46       1.0  0.70592  0.39604  0.35579  1.0000
  H   H47       1.0  0.79774  0.35228  0.32423  1.0000
  H   H48       1.0  0.55073  0.35926  0.31184  1.0000
  H   H49       1.0  0.62591  0.48198  0.34364  1.0000
  H   H50       1.0  0.65012  0.44595  0.32412  1.0000
  H   H51       1.0  0.85797  0.37647  0.34376  1.0000
  H   H52       1.0  0.81047  0.45168  0.31183  1.0000
  H   H53       1.0  0.60633  0.35966  0.25925  1.0000
  H   H54       1.0  0.65073  0.39602  0.40795  1.0000
  H   H55       1.0  0.64276  0.24717  0.25923  1.0000
  H   H56       1.0  0.60637  0.25520  0.40789  1.0000
  H   H57       1.0  0.75525  0.39609  0.25931  1.0000
  H   H58       1.0  0.74720  0.35167  0.40799  1.0000
  C   C79       1.0  0.90647  0.44292  0.35281  1.0000
  C   C80       1.0  0.55946  0.46401  0.35277  1.0000
  C   C81       1.0  0.53842  0.09593  0.35267  1.0000
  O   O4        1.0  0.57790  0.49268  0.40240  1.0000
  O   O5        1.0  0.50975  0.08570  0.40231  1.0000
  O   O6        1.0  0.91670  0.42447  0.40244  1.0000
  C   C82       1.0  0.50999  0.48919  0.40678  1.0000
  C   C83       1.0  0.49571  0.51073  0.41595  1.0000
  C   C84       1.0  0.48721  0.52294  0.33779  1.0000
  H   H59       1.0  0.51566  0.47988  0.46262  1.0000
  C   C85       1.0  0.48923  0.51963  0.50690  1.0000
  H   H60       1.0  0.49618  0.50755  0.55985  1.0000
  H   H61       1.0  0.46206  0.51126  0.51435  1.0000
  H   H62       1.0  0.50416  0.54730  0.51676  1.0000
  N   N4        1.0  0.47435  0.54470  0.34610  1.0000
  H   H63       1.0  0.48929  0.56661  0.37472  1.0000
  C   C86       1.0  0.51327  0.02129  0.40685  1.0000
  C   C87       1.0  0.49171  0.98548  0.41601  1.0000
  C   C88       1.0  0.47949  0.96477  0.33785  1.0000
  H   H64       1.0  0.52259  0.03628  0.46270  1.0000
  C   C89       1.0  0.48282  0.97010  0.50695  1.0000
  H   H65       1.0  0.49489  0.98911  0.55992  1.0000
  H   H66       1.0  0.49117  0.95129  0.51439  1.0000
  H   H67       1.0  0.45514  0.95736  0.51681  1.0000
  N   N5        1.0  0.45775  0.93016  0.34618  1.0000
  H   H68       1.0  0.43580  0.92314  0.37467  1.0000
  C   C90       1.0  0.98113  0.49239  0.40674  1.0000
  H   H69       1.0  0.96614  0.48669  0.46257  1.0000
  H   H70       1.0  0.05111  0.54033  0.51434  1.0000
  H   H71       1.0  0.04507  0.49824  0.51671  1.0000
  N   N6        1.0  0.07228  0.52807  0.34607  1.0000
  H   H72       1.0  0.07926  0.51313  0.37465  1.0000
