data_image0
_chemical_formula_structural       C16H16C6H2N2O4HCH2C6H2N2O4CH2C3NC3NC5NC5NC36H26N4H4C2HC4HNH2NH2CHC2HC4HNH2NH2CH2
_chemical_formula_sum              "C96 H70 N16 O8"
_cell_length_a       38.4841
_cell_length_b       38.4788
_cell_length_c       15.0183
_cell_angle_alpha    90
_cell_angle_beta     90
_cell_angle_gamma    89.9552

_space_group_name_H-M_alt    "P 1"
_space_group_IT_number       1

loop_
  _space_group_symop_operation_xyz
  'x, y, z'

loop_
  _atom_site_type_symbol
  _atom_site_label
  _atom_site_symmetry_multiplicity
  _atom_site_fract_x
  _atom_site_fract_y
  _atom_site_fract_z
  _atom_site_occupancy
  C   C1        1.0  0.85017  0.00507  0.27441  1.0000
  C   C2        1.0  0.81370  0.00706  0.27298  1.0000
  C   C3        1.0  0.70082  0.99443  0.28435  1.0000
  C   C4        1.0  0.73714  0.99068  0.28783  1.0000
  C   C5        1.0  0.00006  0.85247  0.27447  1.0000
  C   C6        1.0  0.00013  0.81592  0.27662  1.0000
  C   C7        1.0  0.02219  0.74179  0.33195  1.0000
  C   C8        1.0  0.02259  0.70533  0.33906  1.0000
  C   C9        1.0  0.18007  0.00285  0.28045  1.0000
  C   C10       1.0  0.14354  0.00365  0.27785  1.0000
  C   C11       1.0  0.25469  0.02275  0.33639  1.0000
  C   C12       1.0  0.29113  0.02207  0.34369  1.0000
  C   C13       1.0  0.00154  0.14517  0.27393  1.0000
  C   C14       1.0  0.00384  0.18161  0.27149  1.0000
  C   C15       1.0  0.99376  0.29478  0.27955  1.0000
  C   C16       1.0  0.98907  0.25859  0.28423  1.0000
  H   H1        1.0  0.98060  0.30867  0.23221  1.0000
  H   H2        1.0  0.97215  0.24717  0.24055  1.0000
  H   H3        1.0  0.00703  0.19340  0.21096  1.0000
  H   H4        1.0  0.00270  0.13150  0.21551  1.0000
  H   H5        1.0  0.13131  0.00894  0.21884  1.0000
  H   H6        1.0  0.19363  0.00728  0.22292  1.0000
  H   H7        1.0  0.00507  0.86493  0.21563  1.0000
  H   H8        1.0  0.00490  0.80257  0.21893  1.0000
  H   H9        1.0  0.04460  0.69204  0.32164  1.0000
  H   H10       1.0  0.04405  0.75422  0.30972  1.0000
  H   H11       1.0  0.74879  0.97409  0.24370  1.0000
  H   H12       1.0  0.68707  0.98099  0.23731  1.0000
  H   H13       1.0  0.80162  0.01000  0.21275  1.0000
  H   H14       1.0  0.86359  0.00615  0.21561  1.0000
  H   H15       1.0  0.24289  0.04498  0.31425  1.0000
  H   H16       1.0  0.30505  0.04369  0.32646  1.0000
  C   C17       1.0  0.99554  0.59165  0.30727  1.0000
  C   C18       1.0  0.98877  0.56985  0.23301  1.0000
  C   C19       1.0  0.99017  0.53335  0.24338  1.0000
  C   C20       1.0  0.99866  0.51795  0.32590  1.0000
  C   C21       1.0  0.02197  0.45942  0.29201  1.0000
  C   C22       1.0  0.01949  0.42309  0.30415  1.0000
  H   H17       1.0  0.03779  0.40794  0.27382  1.0000
  H   H18       1.0  0.98417  0.51790  0.18998  1.0000
  N   N1        1.0  0.04923  0.47443  0.24166  1.0000
  N   N2        1.0  0.98030  0.58486  0.14961  1.0000
  O   O1        1.0  0.04867  0.46413  0.16228  1.0000
  O   O2        1.0  0.95060  0.57584  0.12372  1.0000
  O   O3        1.0  0.07843  0.46745  0.27459  1.0000
  O   O4        1.0  0.00210  0.57669  0.09088  1.0000
  H   H19       1.0  0.96744  0.36007  0.34349  1.0000
  C   C23       1.0  0.99200  0.63024  0.29843  1.0000
  H   H20       1.0  0.96648  0.63590  0.26952  1.0000
  H   H21       1.0  0.01185  0.63889  0.25128  1.0000
  C   C24       1.0  0.40407  0.99239  0.31275  1.0000
  C   C25       1.0  0.42588  0.98550  0.23855  1.0000
  C   C26       1.0  0.46238  0.98674  0.24899  1.0000
  C   C27       1.0  0.47778  0.99519  0.33150  1.0000
  C   C28       1.0  0.53588  0.01936  0.29768  1.0000
  C   C29       1.0  0.57224  0.01745  0.30980  1.0000
  H   H22       1.0  0.58705  0.03608  0.27977  1.0000
  H   H23       1.0  0.47782  0.98082  0.19550  1.0000
  N   N3        1.0  0.52040  0.04651  0.24777  1.0000
  N   N4        1.0  0.41087  0.97718  0.15507  1.0000
  O   O5        1.0  0.53070  0.04630  0.16838  1.0000
  O   O6        1.0  0.41979  0.94744  0.12904  1.0000
  O   O7        1.0  0.52687  0.07574  0.28115  1.0000
  O   O8        1.0  0.41914  0.99898  0.09646  1.0000
  C   C30       1.0  0.36546  0.98936  0.30356  1.0000
  H   H24       1.0  0.35951  0.96387  0.27495  1.0000
  H   H25       1.0  0.35715  0.00924  0.25604  1.0000
  C   C31       1.0  0.93313  0.09096  0.35838  1.0000
  C   C32       1.0  0.90730  0.06611  0.35856  1.0000
  C   C33       1.0  0.92304  0.03335  0.35878  1.0000
  N   N5        1.0  0.95769  0.03954  0.35964  1.0000
  C   C34       1.0  0.96522  0.07394  0.35888  1.0000
  C   C35       1.0  0.99811  0.09072  0.35844  1.0000
  C   C36       1.0  0.03072  0.07349  0.35783  1.0000
  N   N6        1.0  0.03673  0.03893  0.35544  1.0000
  C   C37       1.0  0.07107  0.03164  0.35538  1.0000
  C   C38       1.0  0.08819  0.06361  0.35842  1.0000
  C   C39       1.0  0.06331  0.08943  0.35954  1.0000
  C   C40       1.0  0.08704  0.99839  0.35374  1.0000
  C   C41       1.0  0.06890  0.96619  0.35247  1.0000
  N   N7        1.0  0.03424  0.95997  0.35119  1.0000
  C   C42       1.0  0.02669  0.92557  0.35151  1.0000
  C   C43       1.0  0.05881  0.90859  0.35255  1.0000
  C   C44       1.0  0.08463  0.93343  0.35241  1.0000
  C   C45       1.0  0.99380  0.90871  0.35145  1.0000
  C   C46       1.0  0.96119  0.92597  0.35258  1.0000
  N   N8        1.0  0.95522  0.96053  0.35533  1.0000
  C   C47       1.0  0.92090  0.96788  0.35571  1.0000
  C   C48       1.0  0.90370  0.93595  0.35284  1.0000
  C   C49       1.0  0.92856  0.91010  0.35074  1.0000
  C   C50       1.0  0.90497  0.00113  0.35760  1.0000
  C   C51       1.0  0.86805  0.00222  0.35611  1.0000
  C   C52       1.0  0.79416  0.00625  0.35289  1.0000
  C   C53       1.0  0.81241  0.00316  0.43444  1.0000
  C   C54       1.0  0.84890  0.00117  0.43618  1.0000
  C   C55       1.0  0.75719  0.00918  0.35113  1.0000
  C   C56       1.0  0.73952  0.03138  0.41125  1.0000
  C   C57       1.0  0.70318  0.03499  0.40806  1.0000
  C   C58       1.0  0.68337  0.01643  0.34473  1.0000
  C   C59       1.0  0.99341  0.87172  0.35273  1.0000
  C   C60       1.0  0.99291  0.79791  0.35658  1.0000
  C   C61       1.0  0.98606  0.81732  0.43461  1.0000
  C   C62       1.0  0.98659  0.85383  0.43293  1.0000
  C   C63       1.0  0.99273  0.76105  0.35908  1.0000
  C   C64       1.0  0.99333  0.68721  0.37143  1.0000
  C   C65       1.0  0.96373  0.70645  0.39761  1.0000
  C   C66       1.0  0.96347  0.74291  0.39187  1.0000
  C   C67       1.0  0.12400  0.99735  0.35581  1.0000
  C   C68       1.0  0.14157  0.99010  0.43624  1.0000
  C   C69       1.0  0.17805  0.98868  0.43833  1.0000
  C   C70       1.0  0.19776  0.99509  0.36056  1.0000
  C   C71       1.0  0.23460  0.99385  0.36336  1.0000
  C   C72       1.0  0.30840  0.99226  0.37598  1.0000
  C   C73       1.0  0.28833  0.96321  0.40193  1.0000
  C   C74       1.0  0.25189  0.96403  0.39604  1.0000
  C   C75       1.0  0.99862  0.12765  0.35611  1.0000
  C   C76       1.0  0.99769  0.14714  0.43567  1.0000
  C   C77       1.0  0.00333  0.20148  0.35089  1.0000
  C   C78       1.0  0.00000  0.18360  0.43293  1.0000
  C   C79       1.0  0.00708  0.23836  0.34812  1.0000
  C   C80       1.0  0.02980  0.25570  0.40751  1.0000
  C   C81       1.0  0.03436  0.29191  0.40312  1.0000
  C   C82       1.0  0.01627  0.31190  0.33921  1.0000
  H   H26       1.0  0.05115  0.30365  0.44650  1.0000
  H   H27       1.0  0.04399  0.24202  0.45329  1.0000
  H   H28       1.0  0.99916  0.19700  0.49176  1.0000
  H   H29       1.0  0.99575  0.13490  0.49601  1.0000
  H   H30       1.0  0.92874  0.11716  0.35755  1.0000
  H   H31       1.0  0.88130  0.07155  0.35774  1.0000
  H   H32       1.0  0.97498  0.02156  0.36064  1.0000
  H   H33       1.0  0.01695  0.97795  0.34996  1.0000
  H   H34       1.0  0.06856  0.11544  0.36214  1.0000
  H   H35       1.0  0.11439  0.06791  0.35997  1.0000
  H   H36       1.0  0.12793  0.98561  0.49362  1.0000
  H   H37       1.0  0.19013  0.98350  0.49762  1.0000
  H   H38       1.0  0.11062  0.92795  0.35308  1.0000
  H   H39       1.0  0.06329  0.88241  0.35351  1.0000
  H   H40       1.0  0.87749  0.93174  0.35167  1.0000
  H   H41       1.0  0.92325  0.88411  0.34768  1.0000
  H   H42       1.0  0.98188  0.86726  0.49056  1.0000
  H   H43       1.0  0.98125  0.80502  0.49379  1.0000
  H   H44       1.0  0.94171  0.75609  0.41186  1.0000
  H   H45       1.0  0.94231  0.69399  0.42221  1.0000
  H   H46       1.0  0.86138  0.99911  0.49617  1.0000
  H   H47       1.0  0.79927  0.00203  0.49361  1.0000
  H   H48       1.0  0.69121  0.05146  0.45189  1.0000
  H   H49       1.0  0.75303  0.04585  0.45672  1.0000
  H   H50       1.0  0.23809  0.94265  0.41585  1.0000
  H   H51       1.0  0.30017  0.94141  0.42648  1.0000
  N   N9        1.0  0.64678  0.02021  0.33759  1.0000
  N   N10       1.0  0.34502  0.99315  0.38720  1.0000
  N   N11       1.0  0.02080  0.34838  0.33128  1.0000
  N   N12       1.0  0.99528  0.65062  0.38232  1.0000
  H   H52       1.0  0.97643  0.64237  0.42600  1.0000
  H   H53       1.0  0.35271  0.97409  0.43096  1.0000
  H   H54       1.0  0.04387  0.35577  0.36014  1.0000
  H   H55       1.0  0.63891  0.04294  0.36741  1.0000
  C   C83       1.0  0.00719  0.53946  0.39968  1.0000
  C   C84       1.0  0.00547  0.57590  0.38865  1.0000
  H   H56       1.0  0.01172  0.59121  0.44190  1.0000
  C   C85       1.0  0.99706  0.48117  0.33306  1.0000
  C   C86       1.0  0.99313  0.40772  0.35698  1.0000
  C   C87       1.0  0.96753  0.42978  0.39629  1.0000
  C   C88       1.0  0.97003  0.46612  0.38343  1.0000
  H   H57       1.0  0.95188  0.48211  0.41220  1.0000
  N   N13       1.0  0.01715  0.52650  0.48016  1.0000
  H   H58       1.0  0.02325  0.54178  0.52940  1.0000
  H   H59       1.0  0.02008  0.50174  0.49016  1.0000
  N   N14       1.0  0.94058  0.41770  0.44639  1.0000
  H   H60       1.0  0.92347  0.43343  0.47211  1.0000
  H   H61       1.0  0.93700  0.39312  0.45728  1.0000
  C   C89       1.0  0.99210  0.36921  0.37110  1.0000
  H   H62       1.0  0.99197  0.36428  0.44292  1.0000
  C   C90       1.0  0.45628  0.00368  0.40535  1.0000
  C   C91       1.0  0.41983  0.00210  0.39427  1.0000
  H   H63       1.0  0.40454  0.00839  0.44751  1.0000
  C   C92       1.0  0.51458  0.99400  0.33833  1.0000
  C   C93       1.0  0.58809  0.99122  0.36225  1.0000
  C   C94       1.0  0.56649  0.96515  0.40104  1.0000
  C   C95       1.0  0.53010  0.96709  0.38824  1.0000
  H   H64       1.0  0.51445  0.94863  0.41676  1.0000
  N   N15       1.0  0.46923  0.01357  0.48589  1.0000
  H   H65       1.0  0.45394  0.01959  0.53520  1.0000
  H   H66       1.0  0.49399  0.01631  0.49606  1.0000
  N   N16       1.0  0.57906  0.93827  0.45063  1.0000
  H   H67       1.0  0.56365  0.92083  0.47610  1.0000
  H   H68       1.0  0.60370  0.93506  0.46145  1.0000
  C   C96       1.0  0.62660  0.99086  0.37644  1.0000
  H   H69       1.0  0.63627  0.96652  0.34808  1.0000
  H   H70       1.0  0.63154  0.99049  0.44825  1.0000
