data_image0
_chemical_formula_structural       C2H2C6H4C4HNO2NC6H4C2H2C2H2C2H2C6H4C7H2N2O4C5HNO2C2H2C2H2NC18H12C4HNO2C4HNO2
_chemical_formula_sum              "C72 H42 N8 O12"
_cell_length_a       32.3605
_cell_length_b       32.3604
_cell_length_c       14.516
_cell_angle_alpha    90
_cell_angle_beta     90
_cell_angle_gamma    120

_space_group_name_H-M_alt    "P 1"
_space_group_IT_number       1

loop_
  _space_group_symop_operation_xyz
  'x, y, z'

loop_
  _atom_site_type_symbol
  _atom_site_label
  _atom_site_symmetry_multiplicity
  _atom_site_fract_x
  _atom_site_fract_y
  _atom_site_fract_z
  _atom_site_occupancy
  C   C1        1.0  0.12533  0.56998  0.28946  1.0000
  C   C2        1.0  0.07513  0.54543  0.29155  1.0000
  H   H1        1.0  0.14141  0.57983  0.22635  1.0000
  H   H2        1.0  0.05736  0.54022  0.23041  1.0000
  C   C3        1.0  0.30750  0.65762  0.36637  1.0000
  C   C4        1.0  0.28225  0.62480  0.43727  1.0000
  C   C5        1.0  0.23202  0.59889  0.43743  1.0000
  C   C6        1.0  0.20465  0.60591  0.36909  1.0000
  C   C7        1.0  0.23084  0.63975  0.29913  1.0000
  C   C8        1.0  0.28110  0.66443  0.29677  1.0000
  H   H3        1.0  0.30049  0.61878  0.48822  1.0000
  H   H4        1.0  0.21579  0.57404  0.48829  1.0000
  H   H5        1.0  0.29852  0.68840  0.24494  1.0000
  H   H6        1.0  0.21369  0.64771  0.24908  1.0000
  C   C9        1.0  0.04943  0.52841  0.37503  1.0000
  C   C10       1.0  0.07636  0.53701  0.45749  1.0000
  C   C11       1.0  0.12695  0.56321  0.45423  1.0000
  C   C12       1.0  0.15295  0.58013  0.37086  1.0000
  H   H7        1.0  0.14480  0.56998  0.51546  1.0000
  N   N1        1.0  0.05280  0.51747  0.54220  1.0000
  O   O1        1.0  0.06259  0.54922  0.60188  1.0000
  O   O2        1.0  0.06326  0.48770  0.57383  1.0000
  N   N2        1.0  0.35835  0.68335  0.36531  1.0000
  C   C13       1.0  0.38408  0.65824  0.36637  1.0000
  C   C14       1.0  0.38346  0.73420  0.36639  1.0000
  C   C15       1.0  0.40202  0.59953  0.29903  1.0000
  C   C16       1.0  0.37734  0.62510  0.29667  1.0000
  C   C17       1.0  0.40026  0.80968  0.43754  1.0000
  C   C18       1.0  0.37591  0.75944  0.43732  1.0000
  H   H8        1.0  0.35342  0.61861  0.24477  1.0000
  H   H9        1.0  0.39412  0.57446  0.24889  1.0000
  H   H10       1.0  0.39170  0.82591  0.48848  1.0000
  H   H11       1.0  0.35172  0.74120  0.48836  1.0000
  C   C19       1.0  0.47185  0.56385  0.28948  1.0000
  C   C20       1.0  0.49641  0.53820  0.29157  1.0000
  H   H12       1.0  0.46214  0.57022  0.22634  1.0000
  H   H13       1.0  0.50175  0.52578  0.23039  1.0000
  C   C21       1.0  0.52912  0.06992  0.30747  1.0000
  C   C22       1.0  0.55480  0.12014  0.30630  1.0000
  H   H14       1.0  0.50265  0.05260  0.25968  1.0000
  H   H15       1.0  0.54625  0.13753  0.25751  1.0000
  C   C23       1.0  0.47794  0.91637  0.28952  1.0000
  C   C24       1.0  0.50359  0.96657  0.29161  1.0000
  H   H16       1.0  0.47164  0.90028  0.22640  1.0000
  H   H17       1.0  0.51607  0.98433  0.23045  1.0000
  C   C25       1.0  0.41684  0.66576  0.43736  1.0000
  C   C26       1.0  0.44272  0.64140  0.43758  1.0000
  C   C27       1.0  0.43577  0.60709  0.36911  1.0000
  C   C28       1.0  0.41663  0.76060  0.29674  1.0000
  C   C29       1.0  0.44221  0.81086  0.29911  1.0000
  C   C30       1.0  0.43462  0.83705  0.36914  1.0000
  H   H18       1.0  0.46749  0.64994  0.48856  1.0000
  H   H19       1.0  0.42276  0.68992  0.48844  1.0000
  H   H20       1.0  0.42318  0.74318  0.24490  1.0000
  H   H21       1.0  0.46732  0.82802  0.24905  1.0000
  C   C31       1.0  0.55341  0.44103  0.43977  1.0000
  C   C32       1.0  0.52807  0.46629  0.43807  1.0000
  C   C33       1.0  0.53843  0.50314  0.37383  1.0000
  C   C34       1.0  0.51324  0.52935  0.37510  1.0000
  C   C35       1.0  0.50446  0.54750  0.45762  1.0000
  C   C36       1.0  0.47827  0.57191  0.45433  1.0000
  C   C37       1.0  0.46153  0.58115  0.37090  1.0000
  H   H22       1.0  0.47137  0.58286  0.51557  1.0000
  H   H23       1.0  0.50112  0.45695  0.48472  1.0000
  N   N3        1.0  0.52379  0.54328  0.54242  1.0000
  N   N4        1.0  0.54264  0.40511  0.50656  1.0000
  O   O3        1.0  0.49189  0.52118  0.60177  1.0000
  O   O4        1.0  0.50007  0.37193  0.50096  1.0000
  O   O5        1.0  0.55348  0.58344  0.57445  1.0000
  O   O6        1.0  0.55003  0.42201  0.58676  1.0000
  C   C38       1.0  0.53856  0.04366  0.37384  1.0000
  C   C39       1.0  0.51235  0.99226  0.37512  1.0000
  C   C40       1.0  0.49411  0.96533  0.45760  1.0000
  C   C41       1.0  0.46971  0.91474  0.45433  1.0000
  C   C42       1.0  0.46056  0.88874  0.37093  1.0000
  H   H24       1.0  0.45869  0.89689  0.51556  1.0000
  N   N5        1.0  0.49823  0.98889  0.54235  1.0000
  O   O7        1.0  0.52026  0.97910  0.60187  1.0000
  O   O8        1.0  0.45803  0.97842  0.57418  1.0000
  C   C43       1.0  0.57419  0.51264  0.30756  1.0000
  C   C44       1.0  0.59873  0.48695  0.30639  1.0000
  H   H25       1.0  0.58338  0.53914  0.25986  1.0000
  H   H26       1.0  0.62471  0.49555  0.25767  1.0000
  C   C45       1.0  0.97176  0.46760  0.30728  1.0000
  C   C46       1.0  0.92154  0.44307  0.30614  1.0000
  H   H27       1.0  0.98908  0.45850  0.25941  1.0000
  H   H28       1.0  0.90415  0.41718  0.25727  1.0000
  N   N6        1.0  0.69167  0.35002  0.36360  1.0000
  C   C47       1.0  0.66676  0.37576  0.36566  1.0000
  C   C48       1.0  0.66593  0.29937  0.36566  1.0000
  C   C49       1.0  0.74232  0.37493  0.36565  1.0000
  C   C50       1.0  0.76888  0.40084  0.28803  1.0000
  C   C51       1.0  0.81915  0.42591  0.29008  1.0000
  C   C52       1.0  0.84426  0.42609  0.37012  1.0000
  C   C53       1.0  0.81734  0.39962  0.44740  1.0000
  C   C54       1.0  0.76710  0.37443  0.44525  1.0000
  C   C55       1.0  0.64091  0.37648  0.28799  1.0000
  C   C56       1.0  0.61583  0.40166  0.29007  1.0000
  C   C57       1.0  0.61559  0.42653  0.37015  1.0000
  C   C58       1.0  0.64201  0.42603  0.44749  1.0000
  C   C59       1.0  0.66719  0.40096  0.44533  1.0000
  C   C60       1.0  0.64070  0.27459  0.44530  1.0000
  C   C61       1.0  0.61565  0.22435  0.44748  1.0000
  C   C62       1.0  0.61516  0.19743  0.37016  1.0000
  C   C63       1.0  0.64005  0.22254  0.29009  1.0000
  C   C64       1.0  0.66524  0.27281  0.28800  1.0000
  H   H29       1.0  0.59693  0.40097  0.23290  1.0000
  H   H30       1.0  0.64018  0.35847  0.22947  1.0000
  H   H31       1.0  0.68575  0.40096  0.50241  1.0000
  H   H32       1.0  0.64337  0.44424  0.50616  1.0000
  H   H33       1.0  0.75160  0.40162  0.22954  1.0000
  H   H34       1.0  0.83735  0.44488  0.23298  1.0000
  H   H35       1.0  0.64069  0.29316  0.50238  1.0000
  H   H36       1.0  0.59741  0.20750  0.50614  1.0000
  H   H37       1.0  0.64077  0.20433  0.23293  1.0000
  H   H38       1.0  0.68325  0.29008  0.22949  1.0000
  H   H39       1.0  0.74854  0.35583  0.50231  1.0000
  H   H40       1.0  0.83420  0.39820  0.50603  1.0000
  C   C65       1.0  0.58931  0.45128  0.37275  1.0000
  C   C66       1.0  0.59042  0.14639  0.37277  1.0000
  C   C67       1.0  0.60062  0.12075  0.43988  1.0000
  C   C68       1.0  0.57535  0.07015  0.43819  1.0000
  H   H41       1.0  0.58464  0.05253  0.48492  1.0000
  N   N7        1.0  0.63648  0.14590  0.50676  1.0000
  O   O9        1.0  0.66966  0.13650  0.50131  1.0000
  O   O10       1.0  0.61952  0.13639  0.58693  1.0000
  C   C69       1.0  0.89530  0.45238  0.37271  1.0000
  C   C70       1.0  0.92095  0.48816  0.43993  1.0000
  C   C71       1.0  0.97155  0.51348  0.43824  1.0000
  C   C72       1.0  0.99804  0.50324  0.37376  1.0000
  H   H42       1.0  0.98918  0.54035  0.48505  1.0000
  N   N8        1.0  0.89581  0.49881  0.50693  1.0000
  O   O11       1.0  0.90522  0.54140  0.50166  1.0000
  O   O12       1.0  0.90533  0.49129  0.58704  1.0000
