data_image0
_chemical_formula_structural       C8H8C3NC2NHCH3CHC3NC2NHCH3CHC3NC3NC5NC5NC20H18N4C3H2CHC3H2CH
_chemical_formula_sum              "C66 H42 N12"
_cell_length_a       25.7453
_cell_length_b       25.7433
_cell_length_c       14.7202
_cell_angle_alpha    90
_cell_angle_beta     90
_cell_angle_gamma    90.0299

_space_group_name_H-M_alt    "P 1"
_space_group_IT_number       1

loop_
  _space_group_symop_operation_xyz
  'x, y, z'

loop_
  _atom_site_type_symbol
  _atom_site_label
  _atom_site_symmetry_multiplicity
  _atom_site_fract_x
  _atom_site_fract_y
  _atom_site_fract_z
  _atom_site_occupancy
  C   C1        1.0  0.23032  0.00025  0.28487  1.0000
  C   C2        1.0  0.28503  0.00049  0.28310  1.0000
  C   C3        1.0  0.00237  0.78888  0.28515  1.0000
  C   C4        1.0  0.00216  0.73416  0.28328  1.0000
  C   C5        1.0  0.73613  0.01621  0.29338  1.0000
  C   C6        1.0  0.79084  0.01669  0.29367  1.0000
  C   C7        1.0  0.01860  0.22813  0.29355  1.0000
  C   C8        1.0  0.01825  0.28285  0.29314  1.0000
  H   H1        1.0  0.02387  0.30150  0.23270  1.0000
  H   H2        1.0  0.02456  0.20871  0.23375  1.0000
  H   H3        1.0  0.81021  0.02343  0.23407  1.0000
  H   H4        1.0  0.71744  0.02245  0.23318  1.0000
  H   H5        1.0  0.99608  0.80889  0.22608  1.0000
  H   H6        1.0  0.99570  0.71572  0.22271  1.0000
  H   H7        1.0  0.30354  0.99465  0.22241  1.0000
  H   H8        1.0  0.21038  0.99424  0.22561  1.0000
  C   C9        1.0  0.01382  0.45270  0.34253  1.0000
  C   C10       1.0  0.00615  0.49049  0.27345  1.0000
  C   C11       1.0  0.00526  0.54462  0.29419  1.0000
  N   N1        1.0  0.99810  0.57809  0.22356  1.0000
  C   C12       1.0  0.99165  0.56364  0.13553  1.0000
  C   C13       1.0  0.99224  0.51016  0.11600  1.0000
  N   N2        1.0  0.99944  0.47618  0.18506  1.0000
  H   H9        1.0  0.98761  0.49665  0.05122  1.0000
  C   C14       1.0  0.98457  0.60295  0.06376  1.0000
  H   H10       1.0  0.98527  0.64215  0.09200  1.0000
  H   H11       1.0  0.94732  0.59700  0.02992  1.0000
  H   H12       1.0  0.01569  0.59966  0.01375  1.0000
  C   C15       1.0  0.01773  0.39979  0.32175  1.0000
  H   H13       1.0  0.02885  0.39002  0.25950  1.0000
  C   C16       1.0  0.56640  0.01194  0.34317  1.0000
  C   C17       1.0  0.52866  0.00454  0.27392  1.0000
  C   C18       1.0  0.47452  0.00353  0.29455  1.0000
  N   N3        1.0  0.44110  0.99662  0.22377  1.0000
  C   C19       1.0  0.45560  0.99052  0.13570  1.0000
  C   C20       1.0  0.50909  0.99123  0.11627  1.0000
  N   N4        1.0  0.54304  0.99819  0.18549  1.0000
  H   H14       1.0  0.52264  0.98686  0.05147  1.0000
  C   C21       1.0  0.41634  0.98369  0.06376  1.0000
  H   H15       1.0  0.37712  0.98423  0.09193  1.0000
  H   H16       1.0  0.42231  0.94659  0.02948  1.0000
  H   H17       1.0  0.41966  0.01503  0.01415  1.0000
  C   C22       1.0  0.61929  0.01604  0.32251  1.0000
  H   H18       1.0  0.62904  0.02817  0.26080  1.0000
  C   C23       1.0  0.10748  0.14272  0.37270  1.0000
  C   C24       1.0  0.14543  0.10486  0.37064  1.0000
  C   C25       1.0  0.12117  0.05628  0.37082  1.0000
  N   N5        1.0  0.06947  0.06666  0.37236  1.0000
  C   C26       1.0  0.05896  0.11834  0.37333  1.0000
  C   C27       1.0  0.01027  0.14467  0.37498  1.0000
  C   C28       1.0  0.96109  0.11949  0.37546  1.0000
  N   N6        1.0  0.95102  0.06789  0.37488  1.0000
  C   C29       1.0  0.89945  0.05772  0.37522  1.0000
  C   C30       1.0  0.87482  0.10605  0.37634  1.0000
  C   C31       1.0  0.91270  0.14401  0.37596  1.0000
  C   C32       1.0  0.87437  0.00848  0.37489  1.0000
  C   C33       1.0  0.90080  0.95986  0.37348  1.0000
  N   N7        1.0  0.95250  0.94948  0.37243  1.0000
  C   C34       1.0  0.96298  0.89781  0.37061  1.0000
  C   C35       1.0  0.91446  0.87342  0.37090  1.0000
  C   C36       1.0  0.87652  0.91130  0.37212  1.0000
  C   C37       1.0  0.01166  0.87147  0.36915  1.0000
  C   C38       1.0  0.06084  0.89665  0.36893  1.0000
  N   N8        1.0  0.07093  0.94824  0.36969  1.0000
  C   C39       1.0  0.12250  0.95841  0.36864  1.0000
  C   C40       1.0  0.14711  0.91007  0.36742  1.0000
  C   C41       1.0  0.10921  0.87211  0.36707  1.0000
  C   C42       1.0  0.14760  0.00764  0.36908  1.0000
  C   C43       1.0  0.20318  0.00812  0.36718  1.0000
  C   C44       1.0  0.31418  0.00855  0.36315  1.0000
  C   C45       1.0  0.28689  0.01666  0.44548  1.0000
  C   C46       1.0  0.23215  0.01632  0.44749  1.0000
  C   C47       1.0  0.01122  0.81590  0.36728  1.0000
  C   C48       1.0  0.01076  0.70492  0.36305  1.0000
  C   C49       1.0  0.01980  0.73210  0.44519  1.0000
  C   C50       1.0  0.01990  0.78683  0.44731  1.0000
  C   C51       1.0  0.81879  0.00797  0.37485  1.0000
  C   C52       1.0  0.79063  0.99857  0.45562  1.0000
  C   C53       1.0  0.73588  0.99788  0.45502  1.0000
  C   C54       1.0  0.70770  0.00687  0.37419  1.0000
  C   C55       1.0  0.01060  0.20026  0.37503  1.0000
  C   C56       1.0  0.00209  0.22851  0.45602  1.0000
  C   C57       1.0  0.00969  0.31136  0.37412  1.0000
  C   C58       1.0  0.00151  0.28326  0.45531  1.0000
  H   H19       1.0  0.99504  0.30259  0.51503  1.0000
  H   H20       1.0  0.99596  0.20935  0.51602  1.0000
  H   H21       1.0  0.11486  0.18174  0.37337  1.0000
  H   H22       1.0  0.18442  0.11234  0.36932  1.0000
  H   H23       1.0  0.04312  0.04026  0.37266  1.0000
  H   H24       1.0  0.97885  0.97588  0.37289  1.0000
  H   H25       1.0  0.90545  0.18305  0.37609  1.0000
  H   H26       1.0  0.83577  0.11320  0.37703  1.0000
  H   H27       1.0  0.80984  0.99203  0.51543  1.0000
  H   H28       1.0  0.71660  0.99087  0.51462  1.0000
  H   H29       1.0  0.83752  0.90382  0.37202  1.0000
  H   H30       1.0  0.90707  0.83441  0.37004  1.0000
  H   H31       1.0  0.18615  0.90291  0.36663  1.0000
  H   H32       1.0  0.11643  0.83308  0.36578  1.0000
  H   H33       1.0  0.02661  0.80539  0.50770  1.0000
  H   H34       1.0  0.02672  0.71241  0.50422  1.0000
  H   H35       1.0  0.21352  0.02223  0.50806  1.0000
  H   H36       1.0  0.30650  0.02312  0.50474  1.0000
  N   N9        1.0  0.01064  0.65325  0.35488  1.0000
  N   N10       1.0  0.65582  0.00550  0.37946  1.0000
  N   N11       1.0  0.00827  0.36325  0.37928  1.0000
  N   N12       1.0  0.36586  0.00863  0.35512  1.0000
  C   C59       1.0  0.01193  0.56247  0.38497  1.0000
  C   C60       1.0  0.01896  0.52418  0.45311  1.0000
  C   C61       1.0  0.01999  0.47081  0.43260  1.0000
  H   H37       1.0  0.02634  0.44519  0.48465  1.0000
  H   H38       1.0  0.02418  0.53482  0.51958  1.0000
  C   C62       1.0  0.01212  0.61497  0.41115  1.0000
  H   H39       1.0  0.01357  0.62329  0.47705  1.0000
  C   C63       1.0  0.45662  0.00983  0.38538  1.0000
  C   C64       1.0  0.49487  0.01660  0.45368  1.0000
  C   C65       1.0  0.54826  0.01776  0.43327  1.0000
  H   H40       1.0  0.57387  0.02389  0.48543  1.0000
  H   H41       1.0  0.48420  0.02154  0.52020  1.0000
  C   C66       1.0  0.40410  0.00981  0.41147  1.0000
  H   H42       1.0  0.39575  0.01079  0.47739  1.0000
