data_image0
_chemical_formula_structural       C8H7CHC8H7CHC8H7CHC8H7CHC8H7CHC8H7CHCHC3HNO2NC3HNO2NC3HNO2NC3HNO2NC3HNO2NC3HNO2NC3HNO2NC3HNO2NC10H6C6H2C2H2C10H6C6H2C2H2C10H6C6H2C2H2C10H6C6H2C2H2C10H6C6H2C2H2C10H6C6H2C2H2C2HNC3HNO2NC3HNO2NC3HNO2NC3HNO2NC3HNO2NC3HNO2NC3HNO2NC3HNO2NCNON2COCO2
_chemical_formula_sum              "C216 H126 N36 O36"
_cell_length_a       78.4051
_cell_length_b       78.405
_cell_length_c       14.8486
_cell_angle_alpha    90
_cell_angle_beta     90
_cell_angle_gamma    120

_space_group_name_H-M_alt    "P 1"
_space_group_IT_number       1

loop_
  _space_group_symop_operation_xyz
  'x, y, z'

loop_
  _atom_site_type_symbol
  _atom_site_label
  _atom_site_symmetry_multiplicity
  _atom_site_fract_x
  _atom_site_fract_y
  _atom_site_fract_z
  _atom_site_occupancy
  C   C1        1.0  0.12424  0.56070  0.33907  1.0000
  C   C2        1.0  0.20173  0.63540  0.29402  1.0000
  C   C3        1.0  0.21528  0.65562  0.30376  1.0000
  C   C4        1.0  0.08205  0.53797  0.31599  1.0000
  C   C5        1.0  0.09494  0.53421  0.26374  1.0000
  C   C6        1.0  0.11550  0.54526  0.27517  1.0000
  C   C7        1.0  0.19088  0.55611  0.26955  1.0000
  C   C8        1.0  0.20649  0.55244  0.25413  1.0000
  H   H1        1.0  0.22625  0.66220  0.25687  1.0000
  H   H2        1.0  0.12410  0.54213  0.23440  1.0000
  H   H3        1.0  0.08946  0.52333  0.21597  1.0000
  H   H4        1.0  0.18172  0.55450  0.21705  1.0000
  H   H5        1.0  0.20793  0.54790  0.19135  1.0000
  H   H6        1.0  0.14758  0.60010  0.35169  1.0000
  H   H7        1.0  0.20341  0.62804  0.24090  1.0000
  C   C9        1.0  0.06175  0.52692  0.30041  1.0000
  H   H8        1.0  0.05730  0.51940  0.24307  1.0000
  C   C10       1.0  0.45204  0.56609  0.33905  1.0000
  C   C11       1.0  0.37735  0.56889  0.29392  1.0000
  C   C12       1.0  0.35714  0.56222  0.30368  1.0000
  C   C13       1.0  0.47477  0.54664  0.31594  1.0000
  C   C14       1.0  0.47852  0.56327  0.26366  1.0000
  C   C15       1.0  0.46747  0.57279  0.27511  1.0000
  C   C16       1.0  0.45663  0.63733  0.26951  1.0000
  C   C17       1.0  0.46036  0.65663  0.25414  1.0000
  H   H9        1.0  0.35056  0.56662  0.25680  1.0000
  H   H10       1.0  0.47060  0.58452  0.23431  1.0000
  H   H11       1.0  0.48940  0.56868  0.21587  1.0000
  H   H12       1.0  0.45833  0.62981  0.21714  1.0000
  H   H13       1.0  0.46492  0.66263  0.19138  1.0000
  H   H14       1.0  0.41265  0.55005  0.35168  1.0000
  H   H15       1.0  0.38473  0.57795  0.24086  1.0000
  C   C18       1.0  0.48584  0.53740  0.30042  1.0000
  H   H16       1.0  0.49339  0.54050  0.24316  1.0000
  C   C19       1.0  0.44664  0.88850  0.33910  1.0000
  C   C20       1.0  0.44389  0.81104  0.29398  1.0000
  C   C21       1.0  0.45053  0.79747  0.30381  1.0000
  C   C22       1.0  0.46610  0.93068  0.31599  1.0000
  C   C23       1.0  0.44946  0.91780  0.26373  1.0000
  C   C24       1.0  0.43993  0.89723  0.27521  1.0000
  C   C25       1.0  0.37543  0.82184  0.26944  1.0000
  C   C26       1.0  0.35615  0.80623  0.25402  1.0000
  H   H17       1.0  0.44614  0.78650  0.25686  1.0000
  H   H18       1.0  0.42821  0.88863  0.23438  1.0000
  H   H19       1.0  0.44406  0.92327  0.21593  1.0000
  H   H20       1.0  0.38296  0.83106  0.21710  1.0000
  H   H21       1.0  0.35012  0.80482  0.19134  1.0000
  H   H22       1.0  0.46271  0.86516  0.35178  1.0000
  H   H23       1.0  0.43483  0.80935  0.24092  1.0000
  C   C27       1.0  0.47535  0.95099  0.30040  1.0000
  H   H24       1.0  0.47227  0.95543  0.24305  1.0000
  C   C28       1.0  0.89112  0.45000  0.34045  1.0000
  C   C29       1.0  0.81384  0.37486  0.29094  1.0000
  C   C30       1.0  0.80033  0.35463  0.30080  1.0000
  C   C31       1.0  0.93346  0.47388  0.32685  1.0000
  C   C32       1.0  0.92081  0.47769  0.27311  1.0000
  C   C33       1.0  0.90017  0.46605  0.27975  1.0000
  C   C34       1.0  0.82414  0.45408  0.26899  1.0000
  C   C35       1.0  0.80845  0.45767  0.25409  1.0000
  H   H25       1.0  0.78938  0.34801  0.25385  1.0000
  H   H26       1.0  0.89177  0.46937  0.23857  1.0000
  H   H27       1.0  0.92651  0.48913  0.22815  1.0000
  H   H28       1.0  0.83332  0.45584  0.21637  1.0000
  H   H29       1.0  0.80695  0.46227  0.19153  1.0000
  H   H30       1.0  0.86794  0.41048  0.34985  1.0000
  H   H31       1.0  0.81214  0.38219  0.23772  1.0000
  C   C36       1.0  0.95390  0.48611  0.31921  1.0000
  H   H32       1.0  0.95893  0.49811  0.28091  1.0000
  C   C37       1.0  0.56276  0.44369  0.34037  1.0000
  C   C38       1.0  0.63788  0.44152  0.29097  1.0000
  C   C39       1.0  0.65811  0.44824  0.30084  1.0000
  C   C40       1.0  0.53889  0.46217  0.32678  1.0000
  C   C41       1.0  0.53509  0.44571  0.27296  1.0000
  C   C42       1.0  0.54673  0.43671  0.27960  1.0000
  C   C43       1.0  0.55871  0.37261  0.26876  1.0000
  C   C44       1.0  0.55510  0.35333  0.25398  1.0000
  H   H33       1.0  0.66473  0.44391  0.25388  1.0000
  H   H34       1.0  0.54342  0.42500  0.23839  1.0000
  H   H35       1.0  0.52366  0.43998  0.22795  1.0000
  H   H36       1.0  0.55692  0.38002  0.21618  1.0000
  H   H37       1.0  0.55051  0.34722  0.19144  1.0000
  H   H38       1.0  0.60229  0.46002  0.34989  1.0000
  H   H39       1.0  0.63054  0.43248  0.23781  1.0000
  C   C45       1.0  0.52665  0.47036  0.31915  1.0000
  H   H40       1.0  0.51465  0.46340  0.28085  1.0000
  C   C46       1.0  0.56906  0.12162  0.34035  1.0000
  C   C47       1.0  0.57120  0.19889  0.29102  1.0000
  C   C48       1.0  0.56451  0.21242  0.30095  1.0000
  C   C49       1.0  0.55059  0.07927  0.32678  1.0000
  C   C50       1.0  0.56705  0.09193  0.27299  1.0000
  C   C51       1.0  0.57605  0.11256  0.27962  1.0000
  C   C52       1.0  0.64010  0.18865  0.26874  1.0000
  C   C53       1.0  0.65937  0.20432  0.25384  1.0000
  H   H41       1.0  0.56884  0.22337  0.25401  1.0000
  H   H42       1.0  0.58777  0.12096  0.23843  1.0000
  H   H43       1.0  0.57278  0.08622  0.22802  1.0000
  H   H44       1.0  0.63267  0.17944  0.21623  1.0000
  H   H45       1.0  0.66547  0.20581  0.19128  1.0000
  H   H46       1.0  0.55272  0.14480  0.34986  1.0000
  H   H47       1.0  0.58025  0.20061  0.23789  1.0000
  C   C54       1.0  0.54239  0.05883  0.31918  1.0000
  H   H48       1.0  0.54936  0.05380  0.28093  1.0000
  C   C55       1.0  0.01772  0.50836  0.27214  1.0000
  H   H49       1.0  0.02490  0.51125  0.21179  1.0000
  C   C56       1.0  0.51921  0.49546  0.35490  1.0000
  C   C57       1.0  0.51524  0.50190  0.27211  1.0000
  C   C58       1.0  0.50440  0.51193  0.27211  1.0000
  H   H50       1.0  0.50151  0.51623  0.21176  1.0000
  N   N1        1.0  0.52255  0.49854  0.19081  1.0000
  O   O1        1.0  0.50883  0.48817  0.13707  1.0000
  O   O2        1.0  0.53430  0.51443  0.15239  1.0000
  N   N2        1.0  0.52983  0.48634  0.35866  1.0000
  C   C59       1.0  0.51728  0.02630  0.35489  1.0000
  C   C60       1.0  0.51086  0.01589  0.27211  1.0000
  C   C61       1.0  0.50082  0.99502  0.27211  1.0000
  H   H51       1.0  0.49652  0.98783  0.21176  1.0000
  N   N3        1.0  0.51423  0.02656  0.19079  1.0000
  O   O3        1.0  0.52461  0.02321  0.13710  1.0000
  O   O4        1.0  0.49834  0.02242  0.15232  1.0000
  N   N4        1.0  0.52641  0.04604  0.35864  1.0000
  C   C62       1.0  0.29962  0.54952  0.34745  1.0000
  C   C63       1.0  0.28992  0.54823  0.26588  1.0000
  C   C64       1.0  0.27158  0.54769  0.26379  1.0000
  H   H52       1.0  0.29620  0.54757  0.20648  1.0000
  N   N5        1.0  0.26179  0.54544  0.18076  1.0000
  O   O5        1.0  0.27194  0.55938  0.12757  1.0000
  O   O6        1.0  0.25760  0.52949  0.14279  1.0000
  N   N6        1.0  0.31744  0.55135  0.34318  1.0000
  C   C65       1.0  0.46322  0.75265  0.34750  1.0000
  C   C66       1.0  0.46448  0.74422  0.26590  1.0000
  C   C67       1.0  0.46503  0.72643  0.26377  1.0000
  H   H53       1.0  0.46512  0.75116  0.20651  1.0000
  N   N7        1.0  0.46725  0.71888  0.18072  1.0000
  O   O7        1.0  0.45329  0.71508  0.12765  1.0000
  O   O8        1.0  0.48319  0.73064  0.14261  1.0000
  N   N8        1.0  0.46138  0.76862  0.34328  1.0000
  C   C68       1.0  0.26007  0.71314  0.34748  1.0000
  C   C69       1.0  0.26850  0.72284  0.26589  1.0000
  C   C70       1.0  0.28629  0.74117  0.26379  1.0000
  H   H54       1.0  0.26154  0.71655  0.20651  1.0000
  N   N9        1.0  0.29383  0.75096  0.18074  1.0000
  O   O9        1.0  0.29761  0.74080  0.12759  1.0000
  O   O10       1.0  0.28207  0.75515  0.14276  1.0000
  N   N10       1.0  0.24409  0.69533  0.34322  1.0000
  C   C71       1.0  0.71552  0.46072  0.34587  1.0000
  C   C72       1.0  0.72510  0.46163  0.26438  1.0000
  C   C73       1.0  0.74342  0.46214  0.26263  1.0000
  H   H55       1.0  0.71873  0.46203  0.20480  1.0000
  N   N11       1.0  0.75310  0.46402  0.17961  1.0000
  O   O11       1.0  0.74286  0.44985  0.12766  1.0000
  O   O12       1.0  0.75725  0.47980  0.14007  1.0000
  N   N12       1.0  0.69771  0.45890  0.34138  1.0000
  C   C74       1.0  0.55202  0.25735  0.34593  1.0000
  C   C75       1.0  0.55109  0.26602  0.26446  1.0000
  C   C76       1.0  0.55058  0.28383  0.26274  1.0000
  H   H56       1.0  0.55067  0.25923  0.20487  1.0000
  N   N13       1.0  0.54869  0.29162  0.17974  1.0000
  O   O13       1.0  0.56283  0.29554  0.12769  1.0000
  O   O14       1.0  0.53289  0.27999  0.14031  1.0000
  N   N14       1.0  0.55385  0.24136  0.34142  1.0000
  C   C77       1.0  0.75540  0.29722  0.34582  1.0000
  C   C78       1.0  0.74675  0.28760  0.26435  1.0000
  C   C79       1.0  0.72894  0.26929  0.26261  1.0000
  H   H57       1.0  0.75356  0.29395  0.20477  1.0000
  N   N15       1.0  0.72117  0.25958  0.17963  1.0000
  O   O15       1.0  0.71726  0.26980  0.12745  1.0000
  O   O16       1.0  0.73281  0.25540  0.14034  1.0000
  N   N16       1.0  0.77140  0.31502  0.34130  1.0000
  C   C80       1.0  0.18690  0.62506  0.35915  1.0000
  C   C81       1.0  0.18948  0.56440  0.35185  1.0000
  C   C82       1.0  0.21463  0.66628  0.37952  1.0000
  C   C83       1.0  0.19917  0.65604  0.44239  1.0000
  C   C84       1.0  0.18550  0.63579  0.43240  1.0000
  C   C85       1.0  0.11137  0.56457  0.39093  1.0000
  C   C86       1.0  0.09072  0.55341  0.37997  1.0000
  C   C87       1.0  0.22090  0.55659  0.32106  1.0000
  C   C88       1.0  0.21890  0.56389  0.40511  1.0000
  C   C89       1.0  0.20348  0.56785  0.41998  1.0000
  H   H58       1.0  0.19827  0.66303  0.49893  1.0000
  H   H59       1.0  0.17543  0.62866  0.48251  1.0000
  H   H60       1.0  0.11694  0.57548  0.43848  1.0000
  H   H61       1.0  0.08205  0.55683  0.41875  1.0000
  H   H62       1.0  0.22951  0.56789  0.45362  1.0000
  H   H63       1.0  0.20334  0.57459  0.47884  1.0000
  C   C90       1.0  0.17751  0.57330  0.35711  1.0000
  C   C91       1.0  0.15677  0.56251  0.34945  1.0000
  C   C92       1.0  0.14530  0.57194  0.34928  1.0000
  C   C93       1.0  0.15538  0.59284  0.35510  1.0000
  C   C94       1.0  0.17620  0.60407  0.35877  1.0000
  C   C95       1.0  0.18692  0.59401  0.36112  1.0000
  H   H64       1.0  0.14995  0.54747  0.34557  1.0000
  H   H65       1.0  0.20201  0.60201  0.36385  1.0000
  C   C96       1.0  0.23813  0.55674  0.29877  1.0000
  C   C97       1.0  0.22934  0.68571  0.39647  1.0000
  H   H66       1.0  0.24508  0.56392  0.24327  1.0000
  H   H67       1.0  0.22882  0.69215  0.45331  1.0000
  C   C98       1.0  0.38769  0.56440  0.35912  1.0000
  C   C99       1.0  0.44836  0.62764  0.35180  1.0000
  C   C100      1.0  0.34648  0.55093  0.37948  1.0000
  C   C101      1.0  0.35671  0.54568  0.44230  1.0000
  C   C102      1.0  0.37696  0.55226  0.43234  1.0000
  C   C103      1.0  0.44817  0.54935  0.39094  1.0000
  C   C104      1.0  0.45935  0.53987  0.37999  1.0000
  C   C105      1.0  0.45616  0.66686  0.32100  1.0000
  C   C106      1.0  0.44887  0.65757  0.40509  1.0000
  C   C107      1.0  0.44490  0.63818  0.41990  1.0000
  H   H68       1.0  0.34973  0.53783  0.49892  1.0000
  H   H69       1.0  0.38410  0.54935  0.48250  1.0000
  H   H70       1.0  0.43729  0.54403  0.43857  1.0000
  H   H71       1.0  0.45595  0.52780  0.41884  1.0000
  H   H72       1.0  0.44478  0.66415  0.45341  1.0000
  H   H73       1.0  0.43811  0.63130  0.47868  1.0000
  C   C108      1.0  0.43946  0.60677  0.35722  1.0000
  C   C109      1.0  0.45024  0.59682  0.34947  1.0000
  C   C110      1.0  0.44080  0.57591  0.34931  1.0000
  C   C111      1.0  0.41991  0.56510  0.35528  1.0000
  C   C112      1.0  0.40868  0.57469  0.35882  1.0000
  C   C113      1.0  0.41874  0.59547  0.36118  1.0000
  H   H74       1.0  0.46527  0.60503  0.34553  1.0000
  H   H75       1.0  0.41074  0.60256  0.36381  1.0000
  C   C114      1.0  0.45600  0.68394  0.29875  1.0000
  C   C115      1.0  0.32705  0.54621  0.39641  1.0000
  H   H76       1.0  0.44876  0.68369  0.24345  1.0000
  H   H77       1.0  0.32060  0.53924  0.45323  1.0000
  C   C116      1.0  0.44837  0.82585  0.35922  1.0000
  C   C117      1.0  0.38512  0.82324  0.35172  1.0000
  C   C118      1.0  0.46182  0.79809  0.37960  1.0000
  C   C119      1.0  0.46704  0.81355  0.44250  1.0000
  C   C120      1.0  0.46045  0.82722  0.43256  1.0000
  C   C121      1.0  0.46339  0.90137  0.39096  1.0000
  C   C122      1.0  0.47287  0.92203  0.38001  1.0000
  C   C123      1.0  0.34590  0.79182  0.32092  1.0000
  C   C124      1.0  0.35520  0.79381  0.40497  1.0000
  C   C125      1.0  0.37458  0.80924  0.41984  1.0000
  H   H78       1.0  0.47493  0.81445  0.49903  1.0000
  H   H79       1.0  0.46342  0.83731  0.48261  1.0000
  H   H80       1.0  0.46872  0.89580  0.43855  1.0000
  H   H81       1.0  0.48495  0.93070  0.41880  1.0000
  H   H82       1.0  0.34858  0.78319  0.45347  1.0000
  H   H83       1.0  0.38145  0.80937  0.47872  1.0000
  C   C126      1.0  0.40598  0.83523  0.35728  1.0000
  C   C127      1.0  0.41593  0.85597  0.34951  1.0000
  C   C128      1.0  0.43684  0.86744  0.34932  1.0000
  C   C129      1.0  0.44765  0.85736  0.35520  1.0000
  C   C130      1.0  0.43807  0.83655  0.35886  1.0000
  C   C131      1.0  0.41729  0.82582  0.36120  1.0000
  H   H84       1.0  0.40771  0.86278  0.34553  1.0000
  H   H85       1.0  0.41020  0.81073  0.36387  1.0000
  C   C132      1.0  0.32880  0.77459  0.29873  1.0000
  C   C133      1.0  0.46654  0.78338  0.39648  1.0000
  H   H86       1.0  0.32902  0.76761  0.24330  1.0000
  H   H87       1.0  0.47356  0.78394  0.45318  1.0000
  C   C134      1.0  0.82864  0.38527  0.35614  1.0000
  C   C135      1.0  0.82557  0.44568  0.35085  1.0000
  C   C136      1.0  0.80097  0.34403  0.37679  1.0000
  C   C137      1.0  0.81641  0.35432  0.43970  1.0000
  C   C138      1.0  0.83003  0.37459  0.42963  1.0000
  C   C139      1.0  0.90377  0.44598  0.39323  1.0000
  C   C140      1.0  0.92447  0.45767  0.38682  1.0000
  C   C141      1.0  0.79403  0.45331  0.32117  1.0000
  C   C142      1.0  0.79607  0.44592  0.40488  1.0000
  C   C143      1.0  0.81156  0.44203  0.41916  1.0000
  H   H88       1.0  0.81728  0.34739  0.49648  1.0000
  H   H89       1.0  0.84005  0.38176  0.47986  1.0000
  H   H90       1.0  0.89798  0.43472  0.43901  1.0000
  H   H91       1.0  0.93293  0.45432  0.42747  1.0000
  H   H92       1.0  0.78541  0.44175  0.45331  1.0000
  H   H93       1.0  0.81173  0.43520  0.47767  1.0000
  C   C144      1.0  0.83765  0.43689  0.35547  1.0000
  C   C145      1.0  0.85840  0.44783  0.34854  1.0000
  C   C146      1.0  0.87001  0.43854  0.34819  1.0000
  C   C147      1.0  0.86003  0.41763  0.35308  1.0000
  C   C148      1.0  0.83922  0.40626  0.35594  1.0000
  C   C149      1.0  0.82837  0.41618  0.35843  1.0000
  H   H94       1.0  0.86512  0.46287  0.34586  1.0000
  H   H95       1.0  0.81328  0.40809  0.36083  1.0000
  C   C150      1.0  0.77672  0.45303  0.29923  1.0000
  C   C151      1.0  0.78628  0.32459  0.39387  1.0000
  H   H96       1.0  0.76949  0.44537  0.24515  1.0000
  H   H97       1.0  0.78693  0.31811  0.45032  1.0000
  C   C152      1.0  0.62748  0.44591  0.35622  1.0000
  C   C153      1.0  0.56705  0.38246  0.35065  1.0000
  C   C154      1.0  0.66871  0.45948  0.37684  1.0000
  C   C155      1.0  0.65842  0.46463  0.43974  1.0000
  C   C156      1.0  0.63816  0.45802  0.42962  1.0000
  C   C157      1.0  0.56678  0.46036  0.39318  1.0000
  C   C158      1.0  0.55509  0.46937  0.38680  1.0000
  C   C159      1.0  0.55946  0.34328  0.32113  1.0000
  C   C160      1.0  0.56685  0.35274  0.40480  1.0000
  C   C161      1.0  0.57067  0.37209  0.41912  1.0000
  H   H98       1.0  0.66537  0.47248  0.49642  1.0000
  H   H99       1.0  0.63099  0.46086  0.47984  1.0000
  H   H100      1.0  0.57802  0.46581  0.43909  1.0000
  H   H101      1.0  0.55841  0.48116  0.42754  1.0000
  H   H102      1.0  0.57100  0.34626  0.45335  1.0000
  H   H103      1.0  0.57752  0.37910  0.47757  1.0000
  C   C162      1.0  0.57584  0.40331  0.35541  1.0000
  C   C163      1.0  0.56492  0.41314  0.34845  1.0000
  C   C164      1.0  0.57422  0.43404  0.34815  1.0000
  C   C165      1.0  0.59512  0.44497  0.35318  1.0000
  C   C166      1.0  0.60648  0.43551  0.35598  1.0000
  C   C167      1.0  0.59656  0.41474  0.35842  1.0000
  H   H104      1.0  0.54988  0.40482  0.34568  1.0000
  H   H105      1.0  0.60464  0.40773  0.36078  1.0000
  C   C168      1.0  0.55978  0.32627  0.29941  1.0000
  C   C169      1.0  0.68816  0.46425  0.39385  1.0000
  H   H106      1.0  0.56740  0.32666  0.24522  1.0000
  H   H107      1.0  0.69466  0.47144  0.45020  1.0000
  C   C170      1.0  0.56681  0.18410  0.35628  1.0000
  C   C171      1.0  0.63028  0.18716  0.35075  1.0000
  C   C172      1.0  0.55326  0.21178  0.37692  1.0000
  C   C173      1.0  0.54810  0.19634  0.43982  1.0000
  C   C174      1.0  0.55475  0.18271  0.42978  1.0000
  C   C175      1.0  0.55238  0.10897  0.39314  1.0000
  C   C176      1.0  0.54338  0.08827  0.38677  1.0000
  C   C177      1.0  0.66946  0.21873  0.32096  1.0000
  C   C178      1.0  0.66003  0.21667  0.40470  1.0000
  C   C179      1.0  0.64067  0.20117  0.41906  1.0000
  H   H108      1.0  0.54026  0.19544  0.49649  1.0000
  H   H109      1.0  0.55185  0.17266  0.47988  1.0000
  H   H110      1.0  0.54693  0.11476  0.43902  1.0000
  H   H111      1.0  0.53159  0.07981  0.42750  1.0000
  H   H112      1.0  0.66654  0.22729  0.45326  1.0000
  H   H113      1.0  0.63369  0.20098  0.47766  1.0000
  C   C180      1.0  0.60942  0.17508  0.35541  1.0000
  C   C181      1.0  0.59961  0.15433  0.34845  1.0000
  C   C182      1.0  0.57871  0.14272  0.34809  1.0000
  C   C183      1.0  0.56777  0.15270  0.35302  1.0000
  C   C184      1.0  0.57722  0.17351  0.35597  1.0000
  C   C185      1.0  0.59800  0.18437  0.35850  1.0000
  H   H114      1.0  0.60793  0.14762  0.34568  1.0000
  H   H115      1.0  0.60500  0.19946  0.36090  1.0000
  C   C186      1.0  0.68649  0.23604  0.29915  1.0000
  C   C187      1.0  0.54850  0.22646  0.39393  1.0000
  H   H116      1.0  0.68612  0.24324  0.24486  1.0000
  H   H117      1.0  0.54132  0.22578  0.45029  1.0000
  C   C188      1.0  0.02869  0.51511  0.35283  1.0000
  C   C189      1.0  0.01811  0.51097  0.43434  1.0000
  H   H118      1.0  0.02570  0.51568  0.49375  1.0000
  N   N17       1.0  0.04846  0.52522  0.35679  1.0000
  C   C190      1.0  0.49763  0.51614  0.35280  1.0000
  C   C191      1.0  0.50177  0.50969  0.43430  1.0000
  C   C192      1.0  0.51260  0.49963  0.43651  1.0000
  H   H119      1.0  0.49705  0.51256  0.49371  1.0000
  N   N18       1.0  0.51687  0.49344  0.51892  1.0000
  O   O17       1.0  0.52700  0.50781  0.56994  1.0000
  O   O18       1.0  0.50139  0.48153  0.55971  1.0000
  N   N19       1.0  0.48752  0.52580  0.35676  1.0000
  C   C193      1.0  0.49660  0.98404  0.35281  1.0000
  C   C194      1.0  0.50304  0.99463  0.43431  1.0000
  C   C195      1.0  0.51310  0.01552  0.43651  1.0000
  H   H120      1.0  0.50015  0.98704  0.49373  1.0000
  N   N20       1.0  0.51928  0.02597  0.51892  1.0000
  O   O19       1.0  0.50490  0.02175  0.56989  1.0000
  O   O20       1.0  0.53118  0.02240  0.55978  1.0000
  N   N21       1.0  0.48693  0.96428  0.35678  1.0000
  C   C196      1.0  0.26297  0.54914  0.34580  1.0000
  C   C197      1.0  0.27255  0.55023  0.42856  1.0000
  C   C198      1.0  0.29075  0.55048  0.42848  1.0000
  H   H121      1.0  0.29782  0.55193  0.48831  1.0000
  N   N22       1.0  0.26394  0.55154  0.51040  1.0000
  O   O21       1.0  0.26016  0.53734  0.56177  1.0000
  O   O22       1.0  0.27496  0.56732  0.55143  1.0000
  N   N23       1.0  0.24613  0.54961  0.35086  1.0000
  C   C199      1.0  0.46362  0.71638  0.34579  1.0000
  C   C200      1.0  0.46255  0.72488  0.42857  1.0000
  C   C201      1.0  0.46230  0.74282  0.42852  1.0000
  H   H122      1.0  0.46086  0.74844  0.48837  1.0000
  N   N24       1.0  0.46129  0.71498  0.51040  1.0000
  O   O23       1.0  0.47551  0.72542  0.56166  1.0000
  O   O24       1.0  0.44552  0.71021  0.55157  1.0000
  N   N25       1.0  0.46317  0.69909  0.35081  1.0000
  C   C202      1.0  0.29636  0.74979  0.34580  1.0000
  C   C203      1.0  0.28786  0.74021  0.42857  1.0000
  C   C204      1.0  0.26991  0.72202  0.42850  1.0000
  H   H123      1.0  0.26430  0.71495  0.48834  1.0000
  N   N26       1.0  0.29777  0.74882  0.51040  1.0000
  O   O25       1.0  0.28735  0.75261  0.56174  1.0000
  O   O26       1.0  0.30254  0.73781  0.55146  1.0000
  N   N27       1.0  0.31366  0.76662  0.35083  1.0000
  C   C205      1.0  0.75215  0.46105  0.34496  1.0000
  C   C206      1.0  0.74270  0.46034  0.42761  1.0000
  C   C207      1.0  0.72451  0.46012  0.42718  1.0000
  H   H124      1.0  0.71754  0.45894  0.48700  1.0000
  N   N28       1.0  0.75144  0.45941  0.50973  1.0000
  O   O27       1.0  0.75531  0.47385  0.55963  1.0000
  O   O28       1.0  0.74048  0.44383  0.55223  1.0000
  N   N29       1.0  0.76901  0.46063  0.35027  1.0000
  C   C208      1.0  0.55171  0.29366  0.34507  1.0000
  C   C209      1.0  0.55243  0.28492  0.42771  1.0000
  C   C210      1.0  0.55265  0.26696  0.42724  1.0000
  H   H125      1.0  0.55385  0.26116  0.48705  1.0000
  N   N30       1.0  0.55339  0.29460  0.50983  1.0000
  O   O29       1.0  0.53897  0.28404  0.55982  1.0000
  O   O30       1.0  0.56899  0.29922  0.55223  1.0000
  N   N31       1.0  0.55215  0.31095  0.35040  1.0000
  C   C211      1.0  0.71909  0.26060  0.34493  1.0000
  C   C212      1.0  0.72781  0.27008  0.42757  1.0000
  C   C213      1.0  0.74577  0.28826  0.42712  1.0000
  H   H126      1.0  0.75155  0.29525  0.48691  1.0000
  N   N32       1.0  0.71811  0.26137  0.50968  1.0000
  O   O31       1.0  0.72865  0.25751  0.55980  1.0000
  O   O32       1.0  0.71347  0.27236  0.55193  1.0000
  N   N33       1.0  0.70179  0.24375  0.35025  1.0000
  C   C214      1.0  0.98644  0.49355  0.35493  1.0000
  N   N34       1.0  0.98617  0.49023  0.19083  1.0000
  O   O33       1.0  0.98952  0.50395  0.13713  1.0000
  N   N35       1.0  0.96670  0.48294  0.35869  1.0000
  N   N36       1.0  0.98677  0.49587  0.51896  1.0000
  C   C215      1.0  0.99684  0.49752  0.27214  1.0000
  O   O34       1.0  0.99031  0.47848  0.15236  1.0000
  C   C216      1.0  0.99722  0.50014  0.43654  1.0000
  O   O35       1.0  0.99100  0.48573  0.56993  1.0000
  O   O36       1.0  0.99034  0.51135  0.55980  1.0000
