data_image0
_chemical_formula_structural       C2H2C2H2C2H2C2H2C2H2C2H2CNCNCNC18H12CNCNCNC18H12C8H2N2O4C8H2N2O4C8H2N2O4
_chemical_formula_sum              "C78 H42 N12 O12"
_cell_length_a       36.972
_cell_length_b       36.9722
_cell_length_c       14.953
_cell_angle_alpha    90
_cell_angle_beta     90
_cell_angle_gamma    120

_space_group_name_H-M_alt    "P 1"
_space_group_IT_number       1

loop_
  _space_group_symop_operation_xyz
  'x, y, z'

loop_
  _atom_site_type_symbol
  _atom_site_label
  _atom_site_symmetry_multiplicity
  _atom_site_fract_x
  _atom_site_fract_y
  _atom_site_fract_z
  _atom_site_occupancy
  C   C1        1.0  0.54303  0.49737  0.27906  1.0000
  C   C2        1.0  0.56463  0.47507  0.27887  1.0000
  H   H1        1.0  0.55046  0.52013  0.23197  1.0000
  H   H2        1.0  0.58677  0.48187  0.23060  1.0000
  C   C3        1.0  0.44495  0.53256  0.26824  1.0000
  C   C4        1.0  0.46708  0.51078  0.26945  1.0000
  H   H3        1.0  0.42840  0.53094  0.21205  1.0000
  H   H4        1.0  0.46531  0.49335  0.21467  1.0000
  C   C5        1.0  0.50657  0.04644  0.27906  1.0000
  C   C6        1.0  0.52887  0.09034  0.27888  1.0000
  H   H5        1.0  0.48381  0.03112  0.23198  1.0000
  H   H6        1.0  0.52207  0.10569  0.23062  1.0000
  C   C7        1.0  0.47138  0.91318  0.26824  1.0000
  C   C8        1.0  0.49315  0.95708  0.26945  1.0000
  H   H7        1.0  0.47300  0.89825  0.21203  1.0000
  H   H8        1.0  0.51059  0.97275  0.21467  1.0000
  C   C9        1.0  0.95749  0.46091  0.27906  1.0000
  C   C10       1.0  0.91359  0.43931  0.27889  1.0000
  H   H9        1.0  0.97281  0.45347  0.23198  1.0000
  H   H10       1.0  0.89824  0.41716  0.23062  1.0000
  C   C11       1.0  0.09075  0.55898  0.26822  1.0000
  C   C12       1.0  0.04685  0.53686  0.26944  1.0000
  H   H11       1.0  0.10568  0.57554  0.21202  1.0000
  H   H12       1.0  0.03118  0.53862  0.21467  1.0000
  C   C13       1.0  0.35724  0.71131  0.33870  1.0000
  N   N1        1.0  0.37757  0.68917  0.33874  1.0000
  C   C14       1.0  0.35722  0.64669  0.33870  1.0000
  N   N2        1.0  0.31475  0.62637  0.33873  1.0000
  C   C15       1.0  0.29262  0.64672  0.33868  1.0000
  N   N3        1.0  0.31477  0.68919  0.33872  1.0000
  C   C16       1.0  0.37947  0.62440  0.33908  1.0000
  C   C17       1.0  0.42237  0.64441  0.36195  1.0000
  C   C18       1.0  0.44421  0.62230  0.36350  1.0000
  C   C19       1.0  0.42415  0.57947  0.34066  1.0000
  C   C20       1.0  0.38144  0.55946  0.31687  1.0000
  C   C21       1.0  0.35944  0.58142  0.31689  1.0000
  C   C22       1.0  0.37953  0.75585  0.33907  1.0000
  C   C23       1.0  0.42252  0.77881  0.31688  1.0000
  C   C24       1.0  0.44448  0.82277  0.31683  1.0000
  C   C25       1.0  0.42447  0.84547  0.34064  1.0000
  C   C26       1.0  0.38164  0.82270  0.36348  1.0000
  C   C27       1.0  0.35952  0.77875  0.36193  1.0000
  C   C28       1.0  0.24809  0.62447  0.33905  1.0000
  C   C29       1.0  0.22512  0.64449  0.31683  1.0000
  C   C30       1.0  0.18117  0.62250  0.31682  1.0000
  C   C31       1.0  0.15846  0.57978  0.34062  1.0000
  C   C32       1.0  0.18124  0.55973  0.36348  1.0000
  C   C33       1.0  0.22518  0.58156  0.36190  1.0000
  H   H13       1.0  0.47558  0.83809  0.30096  1.0000
  H   H14       1.0  0.43839  0.76379  0.29939  1.0000
  H   H15       1.0  0.36592  0.83798  0.38017  1.0000
  H   H16       1.0  0.32859  0.76369  0.37906  1.0000
  H   H17       1.0  0.24015  0.67538  0.29939  1.0000
  H   H18       1.0  0.16584  0.63827  0.30094  1.0000
  H   H19       1.0  0.24025  0.56569  0.37906  1.0000
  H   H20       1.0  0.16595  0.52872  0.38015  1.0000
  H   H21       1.0  0.32855  0.56555  0.29939  1.0000
  H   H22       1.0  0.36567  0.52836  0.30096  1.0000
  H   H23       1.0  0.47521  0.63802  0.38018  1.0000
  H   H24       1.0  0.43825  0.67534  0.37908  1.0000
  C   C34       1.0  0.64790  0.29177  0.33576  1.0000
  N   N4        1.0  0.62722  0.31358  0.33583  1.0000
  C   C35       1.0  0.64702  0.35603  0.33575  1.0000
  N   N5        1.0  0.68950  0.37671  0.33584  1.0000
  C   C36       1.0  0.71216  0.35691  0.33577  1.0000
  N   N6        1.0  0.69036  0.31443  0.33584  1.0000
  C   C37       1.0  0.62426  0.37788  0.33652  1.0000
  C   C38       1.0  0.58007  0.35626  0.33058  1.0000
  C   C39       1.0  0.55759  0.37772  0.33218  1.0000
  C   C40       1.0  0.57843  0.42168  0.34025  1.0000
  C   C41       1.0  0.62251  0.44352  0.34528  1.0000
  C   C42       1.0  0.64495  0.42201  0.34357  1.0000
  C   C43       1.0  0.62605  0.24716  0.33653  1.0000
  C   C44       1.0  0.58193  0.22372  0.34359  1.0000
  C   C45       1.0  0.56042  0.17977  0.34531  1.0000
  C   C46       1.0  0.58226  0.15754  0.34027  1.0000
  C   C47       1.0  0.62621  0.18065  0.33221  1.0000
  C   C48       1.0  0.64767  0.22459  0.33061  1.0000
  C   C49       1.0  0.75677  0.37968  0.33654  1.0000
  C   C50       1.0  0.78021  0.35899  0.34361  1.0000
  C   C51       1.0  0.82416  0.38143  0.34532  1.0000
  C   C52       1.0  0.84639  0.42550  0.34029  1.0000
  C   C53       1.0  0.82329  0.44635  0.33224  1.0000
  C   C54       1.0  0.77934  0.42387  0.33062  1.0000
  H   H25       1.0  0.52858  0.16410  0.35172  1.0000
  H   H26       1.0  0.56473  0.23836  0.34837  1.0000
  H   H27       1.0  0.64302  0.16561  0.32676  1.0000
  H   H28       1.0  0.67949  0.23987  0.32470  1.0000
  H   H29       1.0  0.76557  0.32715  0.34839  1.0000
  H   H30       1.0  0.83984  0.36527  0.35173  1.0000
  H   H31       1.0  0.76406  0.44041  0.32470  1.0000
  H   H32       1.0  0.83833  0.47820  0.32675  1.0000
  H   H33       1.0  0.67678  0.43920  0.34838  1.0000
  H   H34       1.0  0.63866  0.47535  0.35172  1.0000
  H   H35       1.0  0.52574  0.36092  0.32673  1.0000
  H   H36       1.0  0.56353  0.32444  0.32467  1.0000
  C   C55       1.0  0.55572  0.44350  0.34288  1.0000
  C   C56       1.0  0.52450  0.43474  0.40835  1.0000
  C   C57       1.0  0.50316  0.45765  0.40800  1.0000
  C   C58       1.0  0.51217  0.48917  0.34405  1.0000
  C   C59       1.0  0.49068  0.51217  0.34513  1.0000
  C   C60       1.0  0.49218  0.53648  0.42016  1.0000
  C   C61       1.0  0.47022  0.55876  0.41734  1.0000
  C   C62       1.0  0.44628  0.55706  0.34204  1.0000
  H   H37       1.0  0.47138  0.57600  0.47198  1.0000
  H   H38       1.0  0.48065  0.45103  0.45527  1.0000
  N   N7        1.0  0.51642  0.53902  0.49579  1.0000
  N   N8        1.0  0.51598  0.40424  0.47492  1.0000
  O   O1        1.0  0.49429  0.52568  0.56498  1.0000
  O   O2        1.0  0.47854  0.37539  0.47219  1.0000
  O   O3        1.0  0.54511  0.57586  0.50961  1.0000
  O   O4        1.0  0.52368  0.41997  0.55190  1.0000
  C   C63       1.0  0.56044  0.11300  0.34290  1.0000
  C   C64       1.0  0.56919  0.09054  0.40837  1.0000
  C   C65       1.0  0.54628  0.04629  0.40801  1.0000
  C   C66       1.0  0.51477  0.02378  0.34406  1.0000
  C   C67       1.0  0.49177  0.97929  0.34513  1.0000
  C   C68       1.0  0.46746  0.95649  0.42015  1.0000
  C   C69       1.0  0.44518  0.91224  0.41733  1.0000
  C   C70       1.0  0.44687  0.89001  0.34203  1.0000
  H   H39       1.0  0.42793  0.89616  0.47197  1.0000
  H   H40       1.0  0.55290  0.03040  0.45528  1.0000
  N   N9        1.0  0.46491  0.97818  0.49578  1.0000
  N   N10       1.0  0.59969  0.11252  0.47494  1.0000
  O   O5        1.0  0.47825  0.96939  0.56497  1.0000
  O   O6        1.0  0.62854  0.10393  0.47222  1.0000
  O   O7        1.0  0.42807  0.97003  0.50960  1.0000
  O   O8        1.0  0.58396  0.10449  0.55192  1.0000
  C   C71       1.0  0.89093  0.44822  0.34290  1.0000
  C   C72       1.0  0.91339  0.47944  0.40837  1.0000
  C   C73       1.0  0.95764  0.50078  0.40801  1.0000
  C   C74       1.0  0.98015  0.49177  0.34406  1.0000
  C   C75       1.0  0.02464  0.51326  0.34513  1.0000
  C   C76       1.0  0.04745  0.51176  0.42015  1.0000
  C   C77       1.0  0.09169  0.53372  0.41732  1.0000
  C   C78       1.0  0.11393  0.55765  0.34202  1.0000
  H   H41       1.0  0.10777  0.53256  0.47196  1.0000
  H   H42       1.0  0.97354  0.52329  0.45528  1.0000
  N   N11       1.0  0.02576  0.48752  0.49578  1.0000
  N   N12       1.0  0.89142  0.48796  0.47494  1.0000
  O   O9        1.0  0.03455  0.50965  0.56497  1.0000
  O   O10       1.0  0.90000  0.52540  0.47222  1.0000
  O   O11       1.0  0.03391  0.45883  0.50960  1.0000
  O   O12       1.0  0.89945  0.48025  0.55192  1.0000
