data_image0
_chemical_formula_structural       C3H2CH3CH2C3H2CH3CH2C3H2CH3CH2CNCNCNC18H12NHNHNHCNCNCNC18H12NHNHNHC3NC2NHCH2CH2C3NC2NHCH2CH2C3NC2NHCH2CH2
_chemical_formula_sum              "C78 H66 N18"
_cell_length_a       36.5707
_cell_length_b       36.5715
_cell_length_c       15.0401
_cell_angle_alpha    90
_cell_angle_beta     90
_cell_angle_gamma    120

_space_group_name_H-M_alt    "P 1"
_space_group_IT_number       1

loop_
  _space_group_symop_operation_xyz
  'x, y, z'

loop_
  _atom_site_type_symbol
  _atom_site_label
  _atom_site_symmetry_multiplicity
  _atom_site_fract_x
  _atom_site_fract_y
  _atom_site_fract_z
  _atom_site_occupancy
  C   C1        1.0  0.46241  0.50634  0.32196  1.0000
  C   C2        1.0  0.51572  0.49022  0.26417  1.0000
  C   C3        1.0  0.48414  0.50074  0.25033  1.0000
  H   H1        1.0  0.47707  0.50441  0.18637  1.0000
  H   H2        1.0  0.52995  0.48629  0.20947  1.0000
  C   C4        1.0  0.51001  0.48447  0.00350  1.0000
  H   H3        1.0  0.48335  0.45908  0.03891  1.0000
  H   H4        1.0  0.52261  0.51358  0.04197  1.0000
  H   H5        1.0  0.44833  0.50336  0.03833  1.0000
  C   C5        1.0  0.43029  0.51864  0.29844  1.0000
  H   H6        1.0  0.40730  0.49521  0.25241  1.0000
  H   H7        1.0  0.44725  0.54869  0.26262  1.0000
  C   C6        1.0  0.49028  0.95539  0.32198  1.0000
  C   C7        1.0  0.50636  0.02480  0.26419  1.0000
  C   C8        1.0  0.49584  0.98270  0.25035  1.0000
  H   H8        1.0  0.49214  0.97195  0.18639  1.0000
  H   H9        1.0  0.51026  0.04295  0.20949  1.0000
  C   C9        1.0  0.51219  0.02487  0.00352  1.0000
  H   H10       1.0  0.53758  0.02361  0.03892  1.0000
  H   H11       1.0  0.48307  0.00835  0.04199  1.0000
  H   H12       1.0  0.49331  0.94431  0.03835  1.0000
  C   C10       1.0  0.47796  0.91096  0.29847  1.0000
  H   H13       1.0  0.50136  0.91138  0.25237  1.0000
  H   H14       1.0  0.44788  0.89786  0.26272  1.0000
  C   C11       1.0  0.04128  0.53431  0.32198  1.0000
  C   C12       1.0  0.97186  0.48098  0.26421  1.0000
  C   C13       1.0  0.01395  0.51257  0.25036  1.0000
  H   H15       1.0  0.02469  0.51964  0.18639  1.0000
  H   H16       1.0  0.95370  0.46674  0.20951  1.0000
  C   C14       1.0  0.97185  0.48667  0.00354  1.0000
  H   H17       1.0  0.97311  0.51332  0.03897  1.0000
  H   H18       1.0  0.98838  0.47408  0.04199  1.0000
  H   H19       1.0  0.05241  0.54836  0.03836  1.0000
  C   C15       1.0  0.08570  0.56642  0.29845  1.0000
  H   H20       1.0  0.08527  0.58941  0.25240  1.0000
  H   H21       1.0  0.09879  0.54945  0.26266  1.0000
  C   C16       1.0  0.28862  0.65021  0.32802  1.0000
  N   N1        1.0  0.30428  0.62344  0.32877  1.0000
  C   C17       1.0  0.34644  0.63772  0.32808  1.0000
  N   N2        1.0  0.37322  0.68015  0.32881  1.0000
  C   C18       1.0  0.35893  0.70803  0.32806  1.0000
  N   N3        1.0  0.31650  0.69237  0.32878  1.0000
  C   C19       1.0  0.36178  0.60915  0.33585  1.0000
  C   C20       1.0  0.33895  0.56777  0.30048  1.0000
  C   C21       1.0  0.35369  0.53910  0.31122  1.0000
  C   C22       1.0  0.39089  0.55088  0.36009  1.0000
  C   C23       1.0  0.41354  0.59177  0.39633  1.0000
  C   C24       1.0  0.39953  0.62081  0.38320  1.0000
  C   C25       1.0  0.24472  0.63489  0.33581  1.0000
  C   C26       1.0  0.21862  0.59715  0.38317  1.0000
  C   C27       1.0  0.17558  0.58316  0.39634  1.0000
  C   C28       1.0  0.15735  0.60582  0.36010  1.0000
  C   C29       1.0  0.18278  0.64302  0.31121  1.0000
  C   C30       1.0  0.22618  0.65773  0.30045  1.0000
  C   C31       1.0  0.38750  0.75194  0.33590  1.0000
  C   C32       1.0  0.37584  0.77802  0.38325  1.0000
  C   C33       1.0  0.40486  0.82107  0.39634  1.0000
  C   C34       1.0  0.44576  0.83933  0.36013  1.0000
  C   C35       1.0  0.45755  0.81390  0.31129  1.0000
  C   C36       1.0  0.42890  0.77049  0.30058  1.0000
  H   H22       1.0  0.15746  0.55609  0.43181  1.0000
  H   H23       1.0  0.23094  0.58018  0.41140  1.0000
  H   H24       1.0  0.16990  0.65979  0.28469  1.0000
  H   H25       1.0  0.24399  0.68506  0.26552  1.0000
  H   H26       1.0  0.34652  0.76570  0.41134  1.0000
  H   H27       1.0  0.39588  0.83919  0.43175  1.0000
  H   H28       1.0  0.43842  0.75269  0.26564  1.0000
  H   H29       1.0  0.48722  0.82679  0.28481  1.0000
  H   H30       1.0  0.41649  0.65010  0.41142  1.0000
  H   H31       1.0  0.44061  0.60073  0.43180  1.0000
  H   H32       1.0  0.33691  0.50944  0.28470  1.0000
  H   H33       1.0  0.31162  0.55825  0.26555  1.0000
  N   N4        1.0  0.40693  0.52342  0.37403  1.0000
  H   H34       1.0  0.38352  0.49456  0.39643  1.0000
  N   N5        1.0  0.47320  0.88282  0.37405  1.0000
  H   H35       1.0  0.50208  0.88830  0.39641  1.0000
  N   N6        1.0  0.11385  0.58979  0.37403  1.0000
  H   H36       1.0  0.10840  0.61321  0.39641  1.0000
  C   C37       1.0  0.70769  0.34876  0.32230  1.0000
  N   N7        1.0  0.69034  0.37408  0.32175  1.0000
  C   C38       1.0  0.64789  0.35822  0.32234  1.0000
  N   N8        1.0  0.62258  0.31555  0.32178  1.0000
  C   C39       1.0  0.63844  0.28897  0.32234  1.0000
  N   N9        1.0  0.68111  0.30632  0.32175  1.0000
  C   C40       1.0  0.63076  0.38538  0.31595  1.0000
  C   C41       1.0  0.65333  0.42752  0.34742  1.0000
  C   C42       1.0  0.63659  0.45463  0.33878  1.0000
  C   C43       1.0  0.59736  0.44043  0.29631  1.0000
  C   C44       1.0  0.57492  0.39879  0.26389  1.0000
  C   C45       1.0  0.59113  0.37141  0.27465  1.0000
  C   C46       1.0  0.75199  0.36590  0.31592  1.0000
  C   C47       1.0  0.77764  0.40553  0.27460  1.0000
  C   C48       1.0  0.82124  0.42176  0.26392  1.0000
  C   C49       1.0  0.84044  0.39931  0.29636  1.0000
  C   C50       1.0  0.81540  0.36008  0.33882  1.0000
  C   C51       1.0  0.77156  0.34334  0.34742  1.0000
  C   C52       1.0  0.61126  0.24467  0.31595  1.0000
  C   C53       1.0  0.62522  0.21901  0.27464  1.0000
  C   C54       1.0  0.59782  0.17542  0.26387  1.0000
  C   C55       1.0  0.55618  0.15623  0.29632  1.0000
  C   C56       1.0  0.54201  0.18128  0.33884  1.0000
  C   C57       1.0  0.56913  0.22511  0.34748  1.0000
  H   H37       1.0  0.83904  0.45030  0.23318  1.0000
  H   H38       1.0  0.76473  0.42256  0.24950  1.0000
  H   H39       1.0  0.82897  0.34344  0.36264  1.0000
  H   H40       1.0  0.75418  0.31471  0.37811  1.0000
  H   H41       1.0  0.65515  0.23192  0.24947  1.0000
  H   H42       1.0  0.60855  0.15761  0.23312  1.0000
  H   H43       1.0  0.55788  0.24250  0.37817  1.0000
  H   H44       1.0  0.51181  0.16772  0.36267  1.0000
  H   H45       1.0  0.57409  0.34146  0.24955  1.0000
  H   H46       1.0  0.54636  0.38804  0.23319  1.0000
  H   H47       1.0  0.65323  0.48483  0.36258  1.0000
  H   H48       1.0  0.68197  0.43878  0.37809  1.0000
  N   N10       1.0  0.57901  0.46610  0.28572  1.0000
  H   H49       1.0  0.60038  0.49447  0.25744  1.0000
  N   N11       1.0  0.53050  0.11221  0.28574  1.0000
  H   H50       1.0  0.50213  0.10522  0.25747  1.0000
  N   N12       1.0  0.88446  0.41767  0.28577  1.0000
  H   H51       1.0  0.89146  0.39630  0.25749  1.0000
  C   C58       1.0  0.47394  0.50130  0.40944  1.0000
  C   C59       1.0  0.50596  0.49070  0.42347  1.0000
  C   C60       1.0  0.52739  0.48507  0.35089  1.0000
  N   N13       1.0  0.51524  0.48595  0.50879  1.0000
  C   C61       1.0  0.49620  0.49068  0.58196  1.0000
  C   C62       1.0  0.46444  0.50154  0.56835  1.0000
  N   N14       1.0  0.45531  0.50618  0.48308  1.0000
  H   H52       1.0  0.53468  0.47607  0.66430  1.0000
  C   C63       1.0  0.43990  0.50808  0.63833  1.0000
  H   H53       1.0  0.40632  0.48595  0.62850  1.0000
  H   H54       1.0  0.44536  0.54022  0.63396  1.0000
  C   C64       1.0  0.56000  0.47267  0.36722  1.0000
  H   H55       1.0  0.54454  0.44319  0.40532  1.0000
  H   H56       1.0  0.58515  0.49679  0.40850  1.0000
  C   C65       1.0  0.49533  0.97195  0.40946  1.0000
  C   C66       1.0  0.50593  0.01457  0.42349  1.0000
  C   C67       1.0  0.51154  0.04162  0.35091  1.0000
  N   N15       1.0  0.51069  0.02861  0.50881  1.0000
  C   C68       1.0  0.50597  0.00484  0.58198  1.0000
  C   C69       1.0  0.49512  0.96223  0.56837  1.0000
  N   N16       1.0  0.49046  0.94845  0.48310  1.0000
  H   H57       1.0  0.52059  0.05794  0.66431  1.0000
  C   C70       1.0  0.48858  0.93115  0.63835  1.0000
  H   H58       1.0  0.51071  0.91969  0.62850  1.0000
  H   H59       1.0  0.45644  0.90447  0.63401  1.0000
  C   C71       1.0  0.52394  0.08664  0.36723  1.0000
  H   H60       1.0  0.55341  0.10065  0.40533  1.0000
  H   H61       1.0  0.49981  0.08766  0.40851  1.0000
  C   C72       1.0  0.02473  0.52277  0.40946  1.0000
  C   C73       1.0  0.98211  0.49074  0.42351  1.0000
  C   C74       1.0  0.95505  0.46931  0.35093  1.0000
  N   N17       1.0  0.96809  0.48145  0.50883  1.0000
  C   C75       1.0  0.99186  0.50049  0.58200  1.0000
  C   C76       1.0  0.03447  0.53225  0.56837  1.0000
  N   N18       1.0  0.04824  0.54140  0.48310  1.0000
  H   H62       1.0  0.93878  0.46200  0.66435  1.0000
  C   C77       1.0  0.06556  0.55680  0.63835  1.0000
  H   H63       1.0  0.07701  0.59038  0.62854  1.0000
  H   H64       1.0  0.09225  0.55136  0.63396  1.0000
  C   C78       1.0  0.91004  0.43668  0.36727  1.0000
  H   H65       1.0  0.89602  0.45213  0.40538  1.0000
  H   H66       1.0  0.90902  0.41153  0.40854  1.0000
