data_image0
_chemical_formula_structural       C6H6N2C6H6N2C2HC6H3CHC2HC6H3CHC2HC6H3CHC12H5CNC2NHN2C12H5CNC2NHN2C2NCNC2H3CH3CHC2NCNC2H3CH3CHC2NCNC2H3CH3CH
_chemical_formula_sum              "C90 H60 N18"
_cell_length_a       43.9333
_cell_length_b       43.9332
_cell_length_c       14.989
_cell_angle_alpha    90
_cell_angle_beta     90
_cell_angle_gamma    120

_space_group_name_H-M_alt    "P 1"
_space_group_IT_number       1

loop_
  _space_group_symop_operation_xyz
  'x, y, z'

loop_
  _atom_site_type_symbol
  _atom_site_label
  _atom_site_symmetry_multiplicity
  _atom_site_fract_x
  _atom_site_fract_y
  _atom_site_fract_z
  _atom_site_occupancy
  C   C1        1.0  0.37135  0.74079  0.33527  1.0000
  C   C2        1.0  0.20417  0.63055  0.34819  1.0000
  C   C3        1.0  0.24114  0.64875  0.34662  1.0000
  C   C4        1.0  0.35400  0.76045  0.32454  1.0000
  C   C5        1.0  0.37279  0.79743  0.32524  1.0000
  C   C6        1.0  0.40946  0.81602  0.33833  1.0000
  H   H1        1.0  0.19146  0.64455  0.35557  1.0000
  H   H2        1.0  0.25399  0.67547  0.35429  1.0000
  H   H3        1.0  0.32738  0.74809  0.31530  1.0000
  H   H4        1.0  0.35938  0.81074  0.31700  1.0000
  H   H5        1.0  0.35635  0.54709  0.35571  1.0000
  H   H6        1.0  0.32544  0.57871  0.35442  1.0000
  N   N1        1.0  0.31657  0.68491  0.33467  1.0000
  N   N2        1.0  0.42568  0.85093  0.33733  1.0000
  C   C7        1.0  0.62936  0.25994  0.33198  1.0000
  C   C8        1.0  0.79676  0.36928  0.32248  1.0000
  C   C9        1.0  0.75979  0.35132  0.32297  1.0000
  C   C10       1.0  0.64657  0.24009  0.34122  1.0000
  C   C11       1.0  0.62756  0.20311  0.34148  1.0000
  C   C12       1.0  0.59076  0.18469  0.33098  1.0000
  H   H7        1.0  0.80931  0.35506  0.31718  1.0000
  H   H8        1.0  0.74681  0.32455  0.31659  1.0000
  H   H9        1.0  0.67327  0.25230  0.34874  1.0000
  H   H10       1.0  0.64088  0.18967  0.34885  1.0000
  H   H11       1.0  0.64586  0.45444  0.31708  1.0000
  H   H12       1.0  0.67637  0.42245  0.31653  1.0000
  N   N3        1.0  0.68434  0.31564  0.33215  1.0000
  N   N4        1.0  0.57430  0.14978  0.33367  1.0000
  C   C13       1.0  0.47181  0.51130  0.26546  1.0000
  C   C14       1.0  0.44913  0.52494  0.27910  1.0000
  H   H13       1.0  0.43573  0.52714  0.22576  1.0000
  C   C15       1.0  0.51251  0.49425  0.32940  1.0000
  C   C16       1.0  0.55856  0.46756  0.31071  1.0000
  C   C17       1.0  0.54106  0.47083  0.23528  1.0000
  C   C18       1.0  0.51776  0.48401  0.24359  1.0000
  C   C19       1.0  0.49987  0.48744  0.16944  1.0000
  C   C20       1.0  0.47704  0.50093  0.18031  1.0000
  H   H14       1.0  0.50334  0.48019  0.10706  1.0000
  H   H15       1.0  0.46436  0.50319  0.12561  1.0000
  H   H16       1.0  0.54530  0.46357  0.17354  1.0000
  C   C21       1.0  0.58211  0.45579  0.29871  1.0000
  H   H17       1.0  0.60290  0.46962  0.25978  1.0000
  C   C22       1.0  0.48963  0.96071  0.26543  1.0000
  C   C23       1.0  0.47598  0.92438  0.27903  1.0000
  H   H18       1.0  0.47378  0.90879  0.22567  1.0000
  C   C24       1.0  0.50666  0.01844  0.32941  1.0000
  C   C25       1.0  0.53334  0.09118  0.31079  1.0000
  C   C26       1.0  0.53009  0.07043  0.23534  1.0000
  C   C27       1.0  0.51691  0.03395  0.24362  1.0000
  C   C28       1.0  0.51349  0.01264  0.16946  1.0000
  C   C29       1.0  0.50000  0.97632  0.18029  1.0000
  H   H19       1.0  0.52075  0.02337  0.10708  1.0000
  H   H20       1.0  0.49774  0.96138  0.12558  1.0000
  H   H21       1.0  0.53736  0.08194  0.17362  1.0000
  C   C30       1.0  0.54512  0.12651  0.29884  1.0000
  H   H22       1.0  0.53129  0.13348  0.25994  1.0000
  C   C31       1.0  0.04022  0.52911  0.26549  1.0000
  C   C32       1.0  0.07655  0.55179  0.27913  1.0000
  H   H23       1.0  0.09215  0.56519  0.22580  1.0000
  C   C33       1.0  0.98248  0.48841  0.32943  1.0000
  C   C34       1.0  0.90974  0.44236  0.31073  1.0000
  C   C35       1.0  0.93050  0.45986  0.23530  1.0000
  C   C36       1.0  0.96699  0.48316  0.24362  1.0000
  C   C37       1.0  0.98830  0.50106  0.16948  1.0000
  C   C38       1.0  0.02463  0.52389  0.18035  1.0000
  H   H24       1.0  0.97758  0.49759  0.10709  1.0000
  H   H25       1.0  0.03957  0.53657  0.12564  1.0000
  H   H26       1.0  0.91900  0.45563  0.17357  1.0000
  C   C39       1.0  0.87441  0.41881  0.29874  1.0000
  H   H27       1.0  0.86745  0.39799  0.25990  1.0000
  C   C40       1.0  0.26012  0.63074  0.33531  1.0000
  C   C41       1.0  0.37017  0.62957  0.33538  1.0000
  C   C42       1.0  0.24046  0.59374  0.32464  1.0000
  C   C43       1.0  0.20348  0.57553  0.32538  1.0000
  C   C44       1.0  0.18489  0.59361  0.33848  1.0000
  C   C45       1.0  0.42711  0.79674  0.34815  1.0000
  C   C46       1.0  0.40834  0.75977  0.34660  1.0000
  C   C47       1.0  0.40717  0.64691  0.32466  1.0000
  C   C48       1.0  0.42537  0.62812  0.32540  1.0000
  C   C49       1.0  0.40729  0.59145  0.33855  1.0000
  C   C50       1.0  0.37036  0.57380  0.34829  1.0000
  C   C51       1.0  0.35216  0.59258  0.34673  1.0000
  H   H28       1.0  0.19018  0.54881  0.31716  1.0000
  H   H29       1.0  0.42220  0.74691  0.35430  1.0000
  H   H30       1.0  0.45382  0.80944  0.35552  1.0000
  H   H31       1.0  0.42144  0.67353  0.31536  1.0000
  H   H32       1.0  0.45209  0.64154  0.31713  1.0000
  C   C52       1.0  0.35172  0.64861  0.33466  1.0000
  N   N5        1.0  0.36907  0.68434  0.33470  1.0000
  C   C53       1.0  0.35230  0.70330  0.33460  1.0000
  C   C54       1.0  0.29761  0.64919  0.33462  1.0000
  N   N6        1.0  0.31600  0.63184  0.33472  1.0000
  H   H33       1.0  0.25282  0.57947  0.31539  1.0000
  N   N7        1.0  0.42598  0.57524  0.33749  1.0000
  N   N8        1.0  0.14999  0.57492  0.33749  1.0000
  C   C55       1.0  0.74098  0.36961  0.33193  1.0000
  C   C56       1.0  0.63131  0.37156  0.33191  1.0000
  C   C57       1.0  0.76083  0.40667  0.34114  1.0000
  C   C58       1.0  0.79781  0.42464  0.34141  1.0000
  C   C59       1.0  0.81623  0.40626  0.33089  1.0000
  C   C60       1.0  0.57325  0.20416  0.32256  1.0000
  C   C61       1.0  0.59226  0.24113  0.32302  1.0000
  C   C62       1.0  0.59425  0.35435  0.34115  1.0000
  C   C63       1.0  0.57628  0.37336  0.34141  1.0000
  C   C64       1.0  0.59466  0.41015  0.33079  1.0000
  C   C65       1.0  0.63164  0.42766  0.32243  1.0000
  C   C66       1.0  0.64960  0.40865  0.32292  1.0000
  H   H34       1.0  0.81125  0.45140  0.34877  1.0000
  H   H35       1.0  0.57847  0.25412  0.31662  1.0000
  H   H36       1.0  0.54647  0.19161  0.31726  1.0000
  H   H37       1.0  0.57978  0.32765  0.34875  1.0000
  H   H38       1.0  0.54952  0.36003  0.34878  1.0000
  C   C67       1.0  0.64956  0.35232  0.33215  1.0000
  N   N9        1.0  0.63203  0.31658  0.33214  1.0000
  C   C68       1.0  0.64860  0.29743  0.33218  1.0000
  C   C69       1.0  0.70349  0.35136  0.33216  1.0000
  N   N10       1.0  0.68528  0.36889  0.33212  1.0000
  H   H39       1.0  0.74861  0.42115  0.34869  1.0000
  N   N11       1.0  0.57621  0.42661  0.33354  1.0000
  N   N12       1.0  0.85113  0.42472  0.33356  1.0000
  C   C70       1.0  0.44432  0.53511  0.36518  1.0000
  C   C71       1.0  0.46285  0.53118  0.43791  1.0000
  N   N13       1.0  0.48443  0.51792  0.42178  1.0000
  C   C72       1.0  0.48967  0.50788  0.34025  1.0000
  N   N14       1.0  0.52991  0.49094  0.40020  1.0000
  C   C73       1.0  0.55241  0.47822  0.39517  1.0000
  C   C74       1.0  0.46132  0.54079  0.53187  1.0000
  H   H40       1.0  0.44449  0.55218  0.54130  1.0000
  H   H41       1.0  0.48771  0.56000  0.55441  1.0000
  H   H42       1.0  0.45135  0.51740  0.57377  1.0000
  C   C75       1.0  0.56981  0.47706  0.47869  1.0000
  H   H43       1.0  0.56218  0.48757  0.53503  1.0000
  H   H44       1.0  0.59830  0.49268  0.47116  1.0000
  H   H45       1.0  0.56247  0.44997  0.49419  1.0000
  C   C76       1.0  0.42072  0.54689  0.37608  1.0000
  H   H46       1.0  0.40027  0.53361  0.41639  1.0000
  C   C77       1.0  0.46581  0.90939  0.36509  1.0000
  C   C78       1.0  0.46974  0.93185  0.43785  1.0000
  N   N15       1.0  0.48299  0.96668  0.42175  1.0000
  C   C79       1.0  0.49303  0.98198  0.34023  1.0000
  N   N16       1.0  0.50997  0.03914  0.40024  1.0000
  C   C80       1.0  0.52269  0.07437  0.39524  1.0000
  C   C81       1.0  0.46011  0.92069  0.53179  1.0000
  H   H47       1.0  0.44871  0.89246  0.54120  1.0000
  H   H48       1.0  0.44089  0.92786  0.55431  1.0000
  H   H49       1.0  0.48348  0.93410  0.57373  1.0000
  C   C82       1.0  0.52383  0.09291  0.47878  1.0000
  H   H50       1.0  0.51333  0.07476  0.53510  1.0000
  H   H51       1.0  0.50821  0.10577  0.47125  1.0000
  H   H52       1.0  0.55092  0.11266  0.49430  1.0000
  C   C83       1.0  0.45402  0.87401  0.37597  1.0000
  H   H53       1.0  0.46730  0.86683  0.41624  1.0000
  C   C84       1.0  0.09152  0.55661  0.36522  1.0000
  C   C85       1.0  0.06905  0.53806  0.43794  1.0000
  N   N17       1.0  0.03423  0.51648  0.42181  1.0000
  C   C86       1.0  0.01894  0.51124  0.34027  1.0000
  N   N18       1.0  0.96176  0.47100  0.40022  1.0000
  C   C87       1.0  0.92653  0.44850  0.39519  1.0000
  C   C88       1.0  0.08020  0.53958  0.53191  1.0000
  H   H54       1.0  0.10843  0.55642  0.54134  1.0000
  H   H55       1.0  0.07303  0.51319  0.55440  1.0000
  H   H56       1.0  0.06678  0.54953  0.57383  1.0000
  C   C89       1.0  0.90798  0.43109  0.47871  1.0000
  H   H57       1.0  0.92613  0.43873  0.53504  1.0000
  H   H58       1.0  0.89512  0.40260  0.47115  1.0000
  H   H59       1.0  0.88823  0.43843  0.49423  1.0000
  C   C90       1.0  0.12690  0.58018  0.37614  1.0000
  H   H60       1.0  0.13409  0.60067  0.41634  1.0000
