data_image0
_chemical_formula_structural       C11H6C6H3C6N2C11H6C6H3C6N2CNC4H2CH3CHCNC4H2CH3CHCNC4H2CH3CHC7H6NC7H6NC4HCNHCH3CHC4HCNHCH3CHC4HCNHCH3CH
_chemical_formula_sum              "C102 H66 N12"
_cell_length_a       52.524
_cell_length_b       52.5352
_cell_length_c       14.9063
_cell_angle_alpha    90
_cell_angle_beta     90
_cell_angle_gamma    119.985

_space_group_name_H-M_alt    "P 1"
_space_group_IT_number       1

loop_
  _space_group_symop_operation_xyz
  'x, y, z'

loop_
  _atom_site_type_symbol
  _atom_site_label
  _atom_site_symmetry_multiplicity
  _atom_site_fract_x
  _atom_site_fract_y
  _atom_site_fract_z
  _atom_site_occupancy
  C   C1        1.0  0.22349  0.61296  0.33418  1.0000
  C   C2        1.0  0.39615  0.61289  0.33156  1.0000
  C   C3        1.0  0.39538  0.78497  0.33172  1.0000
  C   C4        1.0  0.42904  0.58318  0.33566  1.0000
  C   C5        1.0  0.40159  0.57066  0.29164  1.0000
  C   C6        1.0  0.38518  0.58521  0.28991  1.0000
  C   C7        1.0  0.17618  0.61021  0.30780  1.0000
  C   C8        1.0  0.20715  0.62620  0.30595  1.0000
  C   C9        1.0  0.42490  0.84754  0.33569  1.0000
  C   C10       1.0  0.43768  0.83269  0.29268  1.0000
  C   C11       1.0  0.42322  0.80174  0.29100  1.0000
  H   H1        1.0  0.39320  0.55063  0.26096  1.0000
  H   H2        1.0  0.36528  0.57540  0.25780  1.0000
  H   H3        1.0  0.21751  0.64747  0.28354  1.0000
  H   H4        1.0  0.16481  0.62023  0.28687  1.0000
  H   H5        1.0  0.45782  0.84436  0.26269  1.0000
  H   H6        1.0  0.43321  0.79171  0.25963  1.0000
  C   C12       1.0  0.35423  0.70122  0.32893  1.0000
  C   C13       1.0  0.32316  0.68584  0.32958  1.0000
  C   C14       1.0  0.30725  0.65478  0.32983  1.0000
  C   C15       1.0  0.32264  0.63909  0.32948  1.0000
  C   C16       1.0  0.35370  0.65424  0.32883  1.0000
  C   C17       1.0  0.36939  0.68531  0.32860  1.0000
  H   H7        1.0  0.31116  0.61653  0.32986  1.0000
  H   H8        1.0  0.31206  0.69732  0.33003  1.0000
  H   H9        1.0  0.39196  0.69641  0.32836  1.0000
  C   C18       1.0  0.38173  0.75626  0.33005  1.0000
  C   C19       1.0  0.36879  0.72997  0.32923  1.0000
  C   C20       1.0  0.38116  0.62663  0.32985  1.0000
  C   C21       1.0  0.36788  0.63965  0.32905  1.0000
  C   C22       1.0  0.27851  0.64067  0.33086  1.0000
  C   C23       1.0  0.25222  0.62759  0.33219  1.0000
  N   N1        1.0  0.44351  0.56833  0.33400  1.0000
  N   N2        1.0  0.43969  0.87686  0.33408  1.0000
  C   C24       1.0  0.78599  0.39166  0.33780  1.0000
  C   C25       1.0  0.61679  0.39687  0.33413  1.0000
  C   C26       1.0  0.61083  0.22152  0.33446  1.0000
  C   C27       1.0  0.58674  0.42937  0.33093  1.0000
  C   C28       1.0  0.61773  0.44393  0.33330  1.0000
  C   C29       1.0  0.63269  0.42791  0.33417  1.0000
  C   C30       1.0  0.83275  0.39241  0.35317  1.0000
  C   C31       1.0  0.80178  0.37685  0.35377  1.0000
  C   C32       1.0  0.57851  0.15898  0.33138  1.0000
  C   C33       1.0  0.56386  0.17532  0.33507  1.0000
  C   C34       1.0  0.57979  0.20628  0.33592  1.0000
  H   H10       1.0  0.62969  0.46639  0.33347  1.0000
  H   H11       1.0  0.65519  0.43917  0.33508  1.0000
  H   H12       1.0  0.79101  0.35472  0.36609  1.0000
  H   H13       1.0  0.84373  0.38123  0.36486  1.0000
  H   H14       1.0  0.54139  0.16475  0.33629  1.0000
  H   H15       1.0  0.56846  0.21745  0.33784  1.0000
  C   C35       1.0  0.65469  0.30524  0.33637  1.0000
  C   C36       1.0  0.68575  0.31998  0.33716  1.0000
  C   C37       1.0  0.70226  0.35102  0.33752  1.0000
  C   C38       1.0  0.68751  0.36734  0.33704  1.0000
  C   C39       1.0  0.65647  0.35282  0.33625  1.0000
  C   C40       1.0  0.64016  0.32177  0.33590  1.0000
  H   H16       1.0  0.69943  0.38989  0.33721  1.0000
  H   H17       1.0  0.69639  0.30806  0.33742  1.0000
  H   H18       1.0  0.61760  0.31114  0.33527  1.0000
  C   C41       1.0  0.62571  0.25024  0.33535  1.0000
  C   C42       1.0  0.63950  0.27652  0.33592  1.0000
  C   C43       1.0  0.63054  0.38190  0.33507  1.0000
  C   C44       1.0  0.64295  0.36803  0.33571  1.0000
  C   C45       1.0  0.73098  0.36461  0.33804  1.0000
  C   C46       1.0  0.75727  0.37736  0.33819  1.0000
  N   N3        1.0  0.57378  0.44566  0.33159  1.0000
  N   N4        1.0  0.56229  0.12973  0.33204  1.0000
  C   C47       1.0  0.48174  0.54447  0.28827  1.0000
  N   N5        1.0  0.49403  0.52725  0.27979  1.0000
  C   C48       1.0  0.51295  0.49637  0.32655  1.0000
  C   C49       1.0  0.50419  0.47655  0.25231  1.0000
  C   C50       1.0  0.51730  0.45875  0.24262  1.0000
  C   C51       1.0  0.53886  0.46035  0.30283  1.0000
  H   H19       1.0  0.51078  0.44402  0.19078  1.0000
  H   H20       1.0  0.47767  0.55281  0.23167  1.0000
  C   C52       1.0  0.48104  0.47270  0.18715  1.0000
  H   H21       1.0  0.48879  0.49261  0.14707  1.0000
  H   H22       1.0  0.46109  0.46822  0.22286  1.0000
  H   H23       1.0  0.47516  0.45454  0.14062  1.0000
  C   C53       1.0  0.54977  0.44114  0.29424  1.0000
  H   H24       1.0  0.53853  0.42319  0.25686  1.0000
  C   C54       1.0  0.46352  0.93891  0.28815  1.0000
  N   N6        1.0  0.48074  0.96841  0.27980  1.0000
  C   C55       1.0  0.51152  0.01821  0.32665  1.0000
  C   C56       1.0  0.53123  0.02929  0.25211  1.0000
  C   C57       1.0  0.54903  0.06019  0.24246  1.0000
  C   C58       1.0  0.54755  0.08014  0.30302  1.0000
  H   H25       1.0  0.56367  0.06840  0.19041  1.0000
  H   H26       1.0  0.45529  0.92651  0.23148  1.0000
  C   C59       1.0  0.53496  0.01003  0.18650  1.0000
  H   H27       1.0  0.51498  0.99792  0.14667  1.0000
  H   H28       1.0  0.53949  0.99453  0.22180  1.0000
  H   H29       1.0  0.55305  0.02232  0.13975  1.0000
  C   C60       1.0  0.56675  0.11025  0.29434  1.0000
  H   H30       1.0  0.58461  0.11697  0.25655  1.0000
  C   C61       1.0  0.06970  0.53181  0.28994  1.0000
  N   N7        1.0  0.04018  0.51930  0.28274  1.0000
  C   C62       1.0  0.98955  0.49622  0.32724  1.0000
  C   C63       1.0  0.97808  0.50089  0.24538  1.0000
  C   C64       1.0  0.94714  0.48787  0.23593  1.0000
  C   C65       1.0  0.92729  0.47021  0.30352  1.0000
  H   H31       1.0  0.93872  0.49136  0.17827  1.0000
  H   H32       1.0  0.08220  0.53910  0.23314  1.0000
  C   C66       1.0  0.99662  0.51923  0.16939  1.0000
  H   H33       1.0  0.00868  0.50928  0.14046  1.0000
  H   H34       1.0  0.01206  0.54135  0.19302  1.0000
  H   H35       1.0  0.98390  0.52146  0.11514  1.0000
  C   C67       1.0  0.89719  0.45902  0.29330  1.0000
  H   H36       1.0  0.89045  0.46863  0.24925  1.0000
  C   C68       1.0  0.42377  0.62576  0.37463  1.0000
  C   C69       1.0  0.44003  0.61108  0.37644  1.0000
  C   C70       1.0  0.20838  0.58351  0.36403  1.0000
  C   C71       1.0  0.17743  0.56767  0.36613  1.0000
  C   C72       1.0  0.16092  0.58091  0.33890  1.0000
  C   C73       1.0  0.38226  0.79965  0.37381  1.0000
  C   C74       1.0  0.39685  0.83058  0.37556  1.0000
  H   H37       1.0  0.46013  0.62112  0.40700  1.0000
  H   H38       1.0  0.21962  0.57323  0.38412  1.0000
  H   H39       1.0  0.16707  0.54626  0.38670  1.0000
  H   H40       1.0  0.36198  0.78809  0.40321  1.0000
  H   H41       1.0  0.38664  0.84058  0.40537  1.0000
  H   H42       1.0  0.43242  0.64592  0.40475  1.0000
  N   N8        1.0  0.13161  0.56685  0.33762  1.0000
  C   C75       1.0  0.58576  0.38215  0.33356  1.0000
  C   C76       1.0  0.57093  0.39826  0.33223  1.0000
  C   C77       1.0  0.80165  0.42224  0.32166  1.0000
  C   C78       1.0  0.83260  0.43767  0.32070  1.0000
  C   C79       1.0  0.84856  0.42288  0.33536  1.0000
  C   C80       1.0  0.62565  0.20531  0.33247  1.0000
  C   C81       1.0  0.60963  0.17437  0.33120  1.0000
  H   H43       1.0  0.54847  0.38709  0.33313  1.0000
  H   H44       1.0  0.79080  0.43361  0.31066  1.0000
  H   H45       1.0  0.84339  0.45984  0.31004  1.0000
  H   H46       1.0  0.64814  0.21575  0.33223  1.0000
  H   H47       1.0  0.62088  0.16316  0.33105  1.0000
  H   H48       1.0  0.57365  0.35967  0.33438  1.0000
  N   N9        1.0  0.87783  0.43636  0.33659  1.0000
  C   C82       1.0  0.47507  0.55073  0.37418  1.0000
  C   C83       1.0  0.50076  0.51467  0.34883  1.0000
  C   C84       1.0  0.49486  0.52057  0.43773  1.0000
  C   C85       1.0  0.48215  0.53868  0.44833  1.0000
  H   H49       1.0  0.47767  0.54302  0.51155  1.0000
  C   C86       1.0  0.54725  0.48104  0.37298  1.0000
  N   N10       1.0  0.53419  0.49755  0.38156  1.0000
  H   H50       1.0  0.56246  0.48333  0.41977  1.0000
  C   C87       1.0  0.50041  0.50779  0.51951  1.0000
  H   H51       1.0  0.49022  0.48400  0.51237  1.0000
  H   H52       1.0  0.49154  0.51202  0.58032  1.0000
  H   H53       1.0  0.52403  0.51728  0.52949  1.0000
  C   C88       1.0  0.46300  0.56870  0.38722  1.0000
  H   H54       1.0  0.46874  0.58121  0.44192  1.0000
  C   C89       1.0  0.45707  0.92596  0.37403  1.0000
  C   C90       1.0  0.49318  0.98771  0.34889  1.0000
  C   C91       1.0  0.48710  0.97590  0.43778  1.0000
  C   C92       1.0  0.46896  0.94507  0.44827  1.0000
  H   H55       1.0  0.46450  0.93625  0.51147  1.0000
  C   C93       1.0  0.52698  0.06784  0.37344  1.0000
  N   N11       1.0  0.51047  0.03828  0.38195  1.0000
  H   H56       1.0  0.52477  0.08074  0.42049  1.0000
  C   C94       1.0  0.49969  0.99418  0.51974  1.0000
  H   H57       1.0  0.52350  0.00777  0.51310  1.0000
  H   H58       1.0  0.49532  0.98106  0.58055  1.0000
  H   H59       1.0  0.49016  0.00829  0.52935  1.0000
  C   C95       1.0  0.43908  0.89593  0.38692  1.0000
  H   H60       1.0  0.42642  0.88914  0.44130  1.0000
  C   C96       1.0  0.08243  0.53402  0.37473  1.0000
  C   C97       1.0  0.02024  0.50826  0.35072  1.0000
  C   C98       1.0  0.03207  0.50980  0.43868  1.0000
  C   C99       1.0  0.06299  0.52257  0.44832  1.0000
  H   H61       1.0  0.07170  0.52374  0.51068  1.0000
  C   C100      1.0  0.93968  0.46576  0.38151  1.0000
  N   N12       1.0  0.96923  0.47865  0.38894  1.0000
  H   H62       1.0  0.92693  0.45354  0.43398  1.0000
  C   C101      1.0  0.01400  0.49921  0.52191  1.0000
  H   H63       1.0  0.00068  0.50971  0.52893  1.0000
  H   H64       1.0  0.02716  0.50406  0.58286  1.0000
  H   H65       1.0  0.99974  0.47540  0.51901  1.0000
  C   C102      1.0  0.11249  0.54571  0.38643  1.0000
  H   H66       1.0  0.11930  0.53800  0.43635  1.0000
