data_image0
_chemical_formula_structural       C4HCHC5H4CNHCNHCNCHNHC5HC5HC4HC6H3C2HC2HCHCHCHCHC8H3C4HC6H3C4HC4H2C4HC6H3C4HC6H3C4HC6H3CNCHNHCNCHNHCNCHNHCNCHNHCNCHNHC5H2C4HC6H3C4HC6H3C4HCHC4HC6H3C4HC6H3C6H3C6H3C6H3C6H3C6H3C6H3C6H3C6H3C6H3C6H3NCNHCNCHNHCNHNCNCHNHCNCHNHCNCHNHC4HC6H3C4HC6H3C4HC6H3C4HC6H3C4HC6H3CNHCNCHNHCNCHNHCNHCNCHNHCNCHNH
_chemical_formula_sum              "C288 H144 N36"
_cell_length_a       59.4861
_cell_length_b       59.4861
_cell_length_c       14.9045
_cell_angle_alpha    90
_cell_angle_beta     90
_cell_angle_gamma    120

_space_group_name_H-M_alt    "P 1"
_space_group_IT_number       1

loop_
  _space_group_symop_operation_xyz
  'x, y, z'

loop_
  _atom_site_type_symbol
  _atom_site_label
  _atom_site_symmetry_multiplicity
  _atom_site_fract_x
  _atom_site_fract_y
  _atom_site_fract_z
  _atom_site_occupancy
  C   C1        1.0  0.07742  0.42471  0.33602  1.0000
  C   C2        1.0  0.02272  0.39400  0.33383  1.0000
  C   C3        1.0  0.03653  0.40198  0.25131  1.0000
  C   C4        1.0  0.06391  0.41739  0.25353  1.0000
  H   H1        1.0  0.07399  0.42453  0.19485  1.0000
  C   C5        1.0  0.02261  0.39555  0.16975  1.0000
  H   H2        1.0  0.03222  0.40138  0.10978  1.0000
  C   C6        1.0  0.02271  0.64283  0.33391  1.0000
  C   C7        1.0  0.07740  0.66678  0.33614  1.0000
  C   C8        1.0  0.06391  0.66059  0.25361  1.0000
  C   C9        1.0  0.03653  0.64863  0.25139  1.0000
  C   C10       1.0  0.02261  0.64113  0.16983  1.0000
  H   H3        1.0  0.03222  0.64488  0.10987  1.0000
  H   H4        1.0  0.07398  0.66352  0.19493  1.0000
  H   H5        1.0  0.09382  0.47447  0.34206  1.0000
  H   H6        1.0  0.09382  0.63343  0.34200  1.0000
  C   C11       1.0  0.06268  0.41595  0.41572  1.0000
  N   N1        1.0  0.03639  0.40133  0.41194  1.0000
  H   H7        1.0  0.07138  0.42169  0.47713  1.0000
  C   C12       1.0  0.06267  0.66083  0.41583  1.0000
  N   N2        1.0  0.03638  0.64918  0.41203  1.0000
  H   H8        1.0  0.07137  0.66382  0.47724  1.0000
  C   C13       1.0  0.14045  0.53085  0.26560  1.0000
  N   N3        1.0  0.14144  0.55412  0.26949  1.0000
  C   C14       1.0  0.14045  0.62367  0.26548  1.0000
  H   H9        1.0  0.13985  0.52291  0.20418  1.0000
  N   N4        1.0  0.14144  0.60140  0.26943  1.0000
  H   H10       1.0  0.13985  0.63100  0.20405  1.0000
  C   C15       1.0  0.13466  0.49181  0.34255  1.0000
  C   C16       1.0  0.10895  0.47081  0.34143  1.0000
  C   C17       1.0  0.10373  0.44490  0.33896  1.0000
  C   C18       1.0  0.12478  0.44013  0.33752  1.0000
  C   C19       1.0  0.15074  0.46098  0.33927  1.0000
  H   H11       1.0  0.12118  0.42141  0.33510  1.0000
  C   C20       1.0  0.13466  0.65694  0.34237  1.0000
  C   C21       1.0  0.10895  0.65222  0.34135  1.0000
  C   C22       1.0  0.10372  0.67291  0.33892  1.0000
  C   C23       1.0  0.12477  0.69873  0.33750  1.0000
  C   C24       1.0  0.15073  0.70384  0.33913  1.0000
  H   H12       1.0  0.12116  0.71385  0.33515  1.0000
  C   C25       1.0  0.13908  0.51746  0.34539  1.0000
  C   C26       1.0  0.14140  0.56586  0.34777  1.0000
  C   C27       1.0  0.14026  0.55335  0.43034  1.0000
  C   C28       1.0  0.13906  0.52904  0.42805  1.0000
  H   H13       1.0  0.13741  0.51934  0.48673  1.0000
  C   C29       1.0  0.14140  0.58962  0.34774  1.0000
  C   C30       1.0  0.13908  0.63571  0.34524  1.0000
  C   C31       1.0  0.13905  0.62412  0.42792  1.0000
  C   C32       1.0  0.14026  0.60101  0.43028  1.0000
  C   C33       1.0  0.13956  0.58865  0.51193  1.0000
  C   C34       1.0  0.13956  0.56502  0.51195  1.0000
  H   H14       1.0  0.13858  0.59651  0.57188  1.0000
  H   H15       1.0  0.13858  0.55619  0.57193  1.0000
  H   H16       1.0  0.13741  0.63218  0.48658  1.0000
  C   C35       1.0  0.17219  0.45674  0.33685  1.0000
  C   C36       1.0  0.18381  0.45650  0.25445  1.0000
  H   H17       1.0  0.17560  0.45774  0.19556  1.0000
  C   C37       1.0  0.17217  0.72954  0.33679  1.0000
  C   C38       1.0  0.18381  0.74138  0.25440  1.0000
  H   H18       1.0  0.17561  0.73194  0.19550  1.0000
  C   C39       1.0  0.15544  0.48676  0.34161  1.0000
  H   H19       1.0  0.17414  0.50200  0.34245  1.0000
  C   C40       1.0  0.15544  0.68277  0.34142  1.0000
  H   H20       1.0  0.17414  0.68623  0.34223  1.0000
  C   C41       1.0  0.18462  0.45605  0.41667  1.0000
  H   H21       1.0  0.17739  0.45690  0.47801  1.0000
  C   C42       1.0  0.18460  0.74265  0.41661  1.0000
  H   H22       1.0  0.17736  0.73457  0.47794  1.0000
  C   C43       1.0  0.21877  0.45496  0.33503  1.0000
  C   C44       1.0  0.20711  0.45557  0.25242  1.0000
  C   C45       1.0  0.24260  0.45496  0.33502  1.0000
  C   C46       1.0  0.29097  0.45676  0.33681  1.0000
  C   C47       1.0  0.27911  0.45652  0.25441  1.0000
  C   C48       1.0  0.25487  0.45558  0.25241  1.0000
  C   C49       1.0  0.24299  0.45594  0.17084  1.0000
  C   C50       1.0  0.21935  0.45593  0.17085  1.0000
  H   H23       1.0  0.25162  0.45654  0.11079  1.0000
  H   H24       1.0  0.21132  0.45653  0.11080  1.0000
  H   H25       1.0  0.28855  0.45776  0.19552  1.0000
  C   C51       1.0  0.56375  0.72954  0.33685  1.0000
  C   C52       1.0  0.56556  0.77791  0.33501  1.0000
  C   C53       1.0  0.56493  0.76562  0.25241  1.0000
  C   C54       1.0  0.56397  0.74138  0.25444  1.0000
  H   H26       1.0  0.56273  0.73193  0.19555  1.0000
  C   C55       1.0  0.56556  0.80173  0.33500  1.0000
  C   C56       1.0  0.56375  0.84830  0.33679  1.0000
  C   C57       1.0  0.56398  0.83668  0.25439  1.0000
  C   C58       1.0  0.56493  0.81338  0.25238  1.0000
  C   C59       1.0  0.56455  0.80113  0.17082  1.0000
  C   C60       1.0  0.56455  0.77749  0.17083  1.0000
  H   H27       1.0  0.56392  0.80914  0.11076  1.0000
  H   H28       1.0  0.56391  0.76884  0.11079  1.0000
  H   H29       1.0  0.56272  0.84487  0.19550  1.0000
  C   C61       1.0  0.29096  0.84829  0.33684  1.0000
  C   C62       1.0  0.24259  0.80172  0.33501  1.0000
  C   C63       1.0  0.25487  0.81338  0.25241  1.0000
  C   C64       1.0  0.27911  0.83668  0.25443  1.0000
  H   H30       1.0  0.28856  0.84488  0.19554  1.0000
  C   C65       1.0  0.21876  0.77790  0.33500  1.0000
  C   C66       1.0  0.20711  0.76562  0.25239  1.0000
  C   C67       1.0  0.21936  0.77749  0.17083  1.0000
  C   C68       1.0  0.24300  0.80114  0.17083  1.0000
  H   H31       1.0  0.21134  0.76886  0.11076  1.0000
  H   H32       1.0  0.25163  0.80916  0.11078  1.0000
  C   C69       1.0  0.84576  0.56634  0.33686  1.0000
  C   C70       1.0  0.79917  0.56811  0.33501  1.0000
  C   C71       1.0  0.81083  0.56748  0.25241  1.0000
  C   C72       1.0  0.83412  0.56654  0.25445  1.0000
  H   H33       1.0  0.84233  0.56530  0.19556  1.0000
  C   C73       1.0  0.77535  0.56811  0.33500  1.0000
  C   C74       1.0  0.72697  0.56630  0.33678  1.0000
  C   C75       1.0  0.73882  0.56653  0.25439  1.0000
  C   C76       1.0  0.76306  0.56747  0.25239  1.0000
  C   C77       1.0  0.77494  0.56710  0.17083  1.0000
  C   C78       1.0  0.79858  0.56711  0.17084  1.0000
  H   H34       1.0  0.76630  0.56647  0.11076  1.0000
  H   H35       1.0  0.80660  0.56647  0.11079  1.0000
  H   H36       1.0  0.72938  0.56527  0.19549  1.0000
  C   C79       1.0  0.45416  0.29352  0.33685  1.0000
  C   C80       1.0  0.45241  0.24516  0.33503  1.0000
  C   C81       1.0  0.45303  0.25744  0.25243  1.0000
  C   C82       1.0  0.45395  0.28167  0.25445  1.0000
  H   H37       1.0  0.45520  0.29112  0.19556  1.0000
  C   C83       1.0  0.45242  0.22134  0.33503  1.0000
  C   C84       1.0  0.45419  0.17475  0.33682  1.0000
  C   C85       1.0  0.45398  0.18639  0.25443  1.0000
  C   C86       1.0  0.45304  0.20969  0.25241  1.0000
  C   C87       1.0  0.45341  0.22193  0.17085  1.0000
  C   C88       1.0  0.45340  0.24557  0.17085  1.0000
  H   H38       1.0  0.45402  0.21391  0.11079  1.0000
  H   H39       1.0  0.45401  0.25420  0.11081  1.0000
  H   H40       1.0  0.45522  0.17819  0.19553  1.0000
  C   C89       1.0  0.72697  0.17474  0.33686  1.0000
  C   C90       1.0  0.77533  0.22134  0.33503  1.0000
  C   C91       1.0  0.76305  0.20967  0.25243  1.0000
  C   C92       1.0  0.73881  0.18638  0.25446  1.0000
  H   H41       1.0  0.72937  0.17817  0.19556  1.0000
  C   C93       1.0  0.79915  0.24516  0.33503  1.0000
  C   C94       1.0  0.84573  0.29353  0.33682  1.0000
  C   C95       1.0  0.83411  0.28167  0.25442  1.0000
  C   C96       1.0  0.81081  0.25744  0.25241  1.0000
  C   C97       1.0  0.79856  0.24556  0.17085  1.0000
  C   C98       1.0  0.77492  0.22192  0.17085  1.0000
  H   H42       1.0  0.80658  0.25419  0.11079  1.0000
  H   H43       1.0  0.76628  0.21390  0.11081  1.0000
  H   H44       1.0  0.84230  0.29112  0.19552  1.0000
  C   C99       1.0  0.48966  0.62365  0.26551  1.0000
  N   N5        1.0  0.46637  0.60139  0.26942  1.0000
  C   C100      1.0  0.39683  0.53084  0.26553  1.0000
  H   H45       1.0  0.49757  0.63100  0.20408  1.0000
  N   N6        1.0  0.41910  0.55412  0.26944  1.0000
  H   H46       1.0  0.38949  0.52291  0.20410  1.0000
  C   C101      1.0  0.39681  0.88005  0.26561  1.0000
  N   N7        1.0  0.41908  0.87905  0.26949  1.0000
  C   C102      1.0  0.48962  0.88004  0.26548  1.0000
  H   H47       1.0  0.38947  0.88065  0.20419  1.0000
  N   N8        1.0  0.46636  0.87905  0.26943  1.0000
  H   H48       1.0  0.49755  0.88064  0.20405  1.0000
  C   C103      1.0  0.87751  0.49221  0.26550  1.0000
  N   N9        1.0  0.87649  0.46893  0.26942  1.0000
  C   C104      1.0  0.87751  0.39940  0.26550  1.0000
  H   H49       1.0  0.87807  0.50013  0.20407  1.0000
  N   N10       1.0  0.87650  0.42166  0.26941  1.0000
  H   H50       1.0  0.87810  0.39205  0.20407  1.0000
  C   C105      1.0  0.52828  0.39936  0.26560  1.0000
  N   N11       1.0  0.55156  0.42164  0.26948  1.0000
  C   C106      1.0  0.62110  0.49219  0.26546  1.0000
  H   H51       1.0  0.52035  0.39203  0.20418  1.0000
  N   N12       1.0  0.59883  0.46892  0.26940  1.0000
  H   H52       1.0  0.62843  0.50012  0.20401  1.0000
  C   C107      1.0  0.62110  0.14297  0.26550  1.0000
  N   N13       1.0  0.59884  0.14400  0.26940  1.0000
  C   C108      1.0  0.52829  0.14299  0.26546  1.0000
  H   H53       1.0  0.62846  0.14241  0.20407  1.0000
  N   N14       1.0  0.55157  0.14401  0.26939  1.0000
  H   H54       1.0  0.52037  0.14241  0.20403  1.0000
  C   C109      1.0  0.99522  0.38025  0.33386  1.0000
  C   C110      1.0  0.94051  0.35624  0.33613  1.0000
  C   C111      1.0  0.95402  0.36246  0.25363  1.0000
  C   C112      1.0  0.98140  0.37441  0.25135  1.0000
  C   C113      1.0  0.99531  0.38191  0.16977  1.0000
  H   H55       1.0  0.98569  0.37813  0.10982  1.0000
  H   H56       1.0  0.94394  0.35949  0.19494  1.0000
  C   C114      1.0  0.59579  0.66680  0.33625  1.0000
  C   C115      1.0  0.62652  0.64282  0.33396  1.0000
  C   C116      1.0  0.61850  0.64862  0.25146  1.0000
  C   C117      1.0  0.60307  0.66057  0.25374  1.0000
  H   H57       1.0  0.59594  0.66352  0.19505  1.0000
  C   C118      1.0  0.64027  0.62908  0.33395  1.0000
  C   C119      1.0  0.66425  0.59835  0.33617  1.0000
  C   C120      1.0  0.65803  0.60564  0.25366  1.0000
  C   C121      1.0  0.64607  0.62106  0.25143  1.0000
  C   C122      1.0  0.63854  0.62746  0.16987  1.0000
  C   C123      1.0  0.62491  0.64112  0.16988  1.0000
  H   H58       1.0  0.64228  0.62159  0.10991  1.0000
  H   H59       1.0  0.61901  0.64484  0.10994  1.0000
  H   H60       1.0  0.66094  0.59849  0.19497  1.0000
  C   C124      1.0  0.35368  0.94307  0.33602  1.0000
  C   C125      1.0  0.37768  0.99777  0.33384  1.0000
  C   C126      1.0  0.37184  0.98396  0.25131  1.0000
  C   C127      1.0  0.35987  0.95658  0.25353  1.0000
  H   H61       1.0  0.35693  0.94650  0.19485  1.0000
  C   C128      1.0  0.39143  0.02527  0.33387  1.0000
  C   C129      1.0  0.42214  0.07998  0.33615  1.0000
  C   C130      1.0  0.41484  0.06647  0.25364  1.0000
  C   C131      1.0  0.39942  0.03909  0.25136  1.0000
  C   C132      1.0  0.39300  0.02518  0.16978  1.0000
  C   C133      1.0  0.37934  0.99788  0.16975  1.0000
  H   H62       1.0  0.39883  0.03479  0.10983  1.0000
  H   H63       1.0  0.37556  0.98827  0.10979  1.0000
  H   H64       1.0  0.42196  0.07655  0.19495  1.0000
  C   C134      1.0  0.94053  0.59834  0.33621  1.0000
  C   C135      1.0  0.99522  0.62908  0.33393  1.0000
  C   C136      1.0  0.98140  0.62107  0.25141  1.0000
  C   C137      1.0  0.95402  0.60564  0.25368  1.0000
  H   H65       1.0  0.94394  0.59851  0.19499  1.0000
  C   C138      1.0  0.99531  0.62749  0.16984  1.0000
  H   H66       1.0  0.98570  0.62161  0.10989  1.0000
  C   C139      1.0  0.42215  0.35627  0.33611  1.0000
  C   C140      1.0  0.39142  0.38024  0.33383  1.0000
  C   C141      1.0  0.39940  0.37439  0.25132  1.0000
  C   C142      1.0  0.41482  0.36242  0.25358  1.0000
  H   H67       1.0  0.42196  0.35948  0.19492  1.0000
  C   C143      1.0  0.37767  0.39398  0.33380  1.0000
  C   C144      1.0  0.35368  0.42469  0.33596  1.0000
  C   C145      1.0  0.35988  0.41737  0.25349  1.0000
  C   C146      1.0  0.37183  0.40195  0.25127  1.0000
  C   C147      1.0  0.37932  0.39551  0.16971  1.0000
  C   C148      1.0  0.39297  0.38187  0.16973  1.0000
  H   H68       1.0  0.37554  0.40134  0.10973  1.0000
  H   H69       1.0  0.39880  0.37808  0.10978  1.0000
  H   H70       1.0  0.35691  0.42449  0.19479  1.0000
  C   C149      1.0  0.66425  0.07997  0.33622  1.0000
  C   C150      1.0  0.64026  0.02526  0.33393  1.0000
  C   C151      1.0  0.64607  0.03908  0.25143  1.0000
  C   C152      1.0  0.65802  0.06646  0.25372  1.0000
  H   H71       1.0  0.66098  0.07654  0.19503  1.0000
  C   C153      1.0  0.62651  0.99776  0.33391  1.0000
  C   C154      1.0  0.59578  0.94307  0.33613  1.0000
  C   C155      1.0  0.60308  0.95657  0.25361  1.0000
  C   C156      1.0  0.61850  0.98395  0.25139  1.0000
  C   C157      1.0  0.62491  0.99787  0.16983  1.0000
  C   C158      1.0  0.63858  0.02517  0.16985  1.0000
  H   H72       1.0  0.61905  0.98826  0.10987  1.0000
  H   H73       1.0  0.64231  0.03479  0.10991  1.0000
  H   H74       1.0  0.59593  0.94650  0.19492  1.0000
  C   C159      1.0  0.52869  0.65693  0.34244  1.0000
  C   C160      1.0  0.54969  0.65222  0.34142  1.0000
  C   C161      1.0  0.57560  0.67292  0.33900  1.0000
  C   C162      1.0  0.58037  0.69874  0.33759  1.0000
  C   C163      1.0  0.55951  0.70384  0.33922  1.0000
  C   C164      1.0  0.53374  0.68276  0.34149  1.0000
  H   H75       1.0  0.59909  0.71387  0.33525  1.0000
  H   H76       1.0  0.51849  0.68622  0.34228  1.0000
  H   H77       1.0  0.54603  0.63344  0.34208  1.0000
  C   C165      1.0  0.36356  0.88584  0.34254  1.0000
  C   C166      1.0  0.36827  0.91155  0.34145  1.0000
  C   C167      1.0  0.34757  0.91676  0.33895  1.0000
  C   C168      1.0  0.32175  0.89570  0.33752  1.0000
  C   C169      1.0  0.31665  0.86975  0.33924  1.0000
  C   C170      1.0  0.33773  0.86505  0.34160  1.0000
  H   H78       1.0  0.30662  0.89929  0.33508  1.0000
  H   H79       1.0  0.33428  0.84635  0.34244  1.0000
  H   H80       1.0  0.38705  0.92668  0.34206  1.0000
  C   C171      1.0  0.88328  0.53125  0.34246  1.0000
  C   C172      1.0  0.90899  0.55224  0.34143  1.0000
  C   C173      1.0  0.91421  0.57816  0.33900  1.0000
  C   C174      1.0  0.89316  0.58294  0.33758  1.0000
  C   C175      1.0  0.86720  0.56208  0.33922  1.0000
  C   C176      1.0  0.86250  0.53630  0.34151  1.0000
  H   H81       1.0  0.89676  0.60166  0.33522  1.0000
  H   H82       1.0  0.84380  0.52106  0.34231  1.0000
  H   H83       1.0  0.92411  0.54858  0.34207  1.0000
  C   C177      1.0  0.48924  0.36612  0.34254  1.0000
  C   C178      1.0  0.46825  0.37083  0.34149  1.0000
  C   C179      1.0  0.44233  0.35014  0.33903  1.0000
  C   C180      1.0  0.43756  0.32432  0.33756  1.0000
  C   C181      1.0  0.45841  0.31921  0.33925  1.0000
  C   C182      1.0  0.48419  0.34029  0.34159  1.0000
  H   H84       1.0  0.41884  0.30920  0.33514  1.0000
  H   H85       1.0  0.49943  0.33683  0.34241  1.0000
  H   H86       1.0  0.47191  0.38962  0.34212  1.0000
  C   C183      1.0  0.65436  0.13720  0.34245  1.0000
  C   C184      1.0  0.64966  0.11149  0.34144  1.0000
  C   C185      1.0  0.67036  0.10628  0.33902  1.0000
  C   C186      1.0  0.69618  0.12734  0.33758  1.0000
  C   C187      1.0  0.70127  0.15329  0.33922  1.0000
  C   C188      1.0  0.68019  0.15799  0.34150  1.0000
  H   H87       1.0  0.71131  0.12375  0.33523  1.0000
  H   H88       1.0  0.68364  0.17668  0.34230  1.0000
  H   H89       1.0  0.63088  0.09636  0.34208  1.0000
  C   C189      1.0  0.48924  0.13720  0.34239  1.0000
  C   C190      1.0  0.46824  0.11150  0.34136  1.0000
  C   C191      1.0  0.44233  0.10629  0.33892  1.0000
  C   C192      1.0  0.43757  0.12734  0.33752  1.0000
  C   C193      1.0  0.45843  0.15330  0.33917  1.0000
  C   C194      1.0  0.48420  0.15799  0.34145  1.0000
  H   H90       1.0  0.41885  0.12375  0.33517  1.0000
  H   H91       1.0  0.49945  0.17669  0.34226  1.0000
  H   H92       1.0  0.47190  0.09637  0.34200  1.0000
  C   C195      1.0  0.65437  0.53125  0.34234  1.0000
  C   C196      1.0  0.64966  0.55224  0.34132  1.0000
  C   C197      1.0  0.67036  0.57815  0.33890  1.0000
  C   C198      1.0  0.69618  0.58292  0.33750  1.0000
  C   C199      1.0  0.70128  0.56206  0.33913  1.0000
  C   C200      1.0  0.68020  0.53629  0.34139  1.0000
  H   H93       1.0  0.71131  0.60164  0.33517  1.0000
  H   H94       1.0  0.68365  0.52104  0.34219  1.0000
  H   H95       1.0  0.63088  0.54859  0.34198  1.0000
  C   C201      1.0  0.88329  0.36613  0.34240  1.0000
  C   C202      1.0  0.90899  0.37083  0.34135  1.0000
  C   C203      1.0  0.91420  0.35013  0.33891  1.0000
  C   C204      1.0  0.89314  0.32431  0.33750  1.0000
  C   C205      1.0  0.86718  0.31922  0.33917  1.0000
  C   C206      1.0  0.86249  0.34030  0.34147  1.0000
  H   H96       1.0  0.89673  0.30918  0.33515  1.0000
  H   H97       1.0  0.84380  0.33685  0.34229  1.0000
  H   H98       1.0  0.92412  0.38961  0.34200  1.0000
  C   C207      1.0  0.52868  0.88583  0.34237  1.0000
  C   C208      1.0  0.54967  0.91154  0.34133  1.0000
  C   C209      1.0  0.57559  0.91676  0.33890  1.0000
  C   C210      1.0  0.58036  0.89571  0.33749  1.0000
  C   C211      1.0  0.55951  0.86975  0.33914  1.0000
  C   C212      1.0  0.53373  0.86505  0.34143  1.0000
  H   H99       1.0  0.59908  0.89931  0.33514  1.0000
  H   H100      1.0  0.51849  0.84635  0.34224  1.0000
  H   H101      1.0  0.54601  0.92666  0.34198  1.0000
  C   C213      1.0  0.36357  0.49180  0.34245  1.0000
  C   C214      1.0  0.36827  0.47080  0.34135  1.0000
  C   C215      1.0  0.34757  0.44489  0.33887  1.0000
  C   C216      1.0  0.32175  0.44013  0.33746  1.0000
  C   C217      1.0  0.31666  0.46099  0.33918  1.0000
  C   C218      1.0  0.33774  0.48677  0.34153  1.0000
  H   H102      1.0  0.30662  0.42141  0.33505  1.0000
  H   H103      1.0  0.33429  0.50201  0.34237  1.0000
  H   H104      1.0  0.38705  0.47445  0.34196  1.0000
  N   N15       1.0  0.20703  0.45524  0.41307  1.0000
  C   C219      1.0  0.27786  0.45607  0.41663  1.0000
  N   N16       1.0  0.25463  0.45525  0.41305  1.0000
  H   H105      1.0  0.28594  0.45691  0.47797  1.0000
  C   C220      1.0  0.56445  0.74266  0.41666  1.0000
  N   N17       1.0  0.56529  0.76589  0.41305  1.0000
  C   C221      1.0  0.56446  0.83589  0.41661  1.0000
  H   H106      1.0  0.56365  0.73460  0.47800  1.0000
  N   N18       1.0  0.56529  0.81349  0.41303  1.0000
  H   H107      1.0  0.56364  0.84314  0.47795  1.0000
  C   C222      1.0  0.27784  0.83588  0.41665  1.0000
  N   N19       1.0  0.25461  0.81347  0.41305  1.0000
  H   H108      1.0  0.28592  0.84311  0.47800  1.0000
  N   N20       1.0  0.20701  0.76587  0.41303  1.0000
  C   C223      1.0  0.83332  0.56700  0.41665  1.0000
  N   N21       1.0  0.81091  0.56783  0.41306  1.0000
  C   C224      1.0  0.74009  0.56700  0.41661  1.0000
  H   H109      1.0  0.84057  0.56619  0.47800  1.0000
  N   N22       1.0  0.76332  0.56783  0.41303  1.0000
  H   H110      1.0  0.73201  0.56618  0.47794  1.0000
  C   C225      1.0  0.45349  0.28041  0.41666  1.0000
  N   N23       1.0  0.45269  0.25719  0.41306  1.0000
  C   C226      1.0  0.45351  0.18718  0.41664  1.0000
  H   H111      1.0  0.45433  0.28848  0.47800  1.0000
  N   N24       1.0  0.45270  0.20960  0.41306  1.0000
  H   H112      1.0  0.45435  0.17994  0.47797  1.0000
  C   C227      1.0  0.74007  0.18719  0.41667  1.0000
  N   N25       1.0  0.76330  0.20959  0.41307  1.0000
  C   C228      1.0  0.83331  0.28041  0.41665  1.0000
  H   H113      1.0  0.73201  0.17994  0.47801  1.0000
  N   N26       1.0  0.81090  0.25719  0.41306  1.0000
  H   H114      1.0  0.84056  0.28849  0.47798  1.0000
  C   C229      1.0  0.50304  0.63570  0.34527  1.0000
  C   C230      1.0  0.45463  0.58962  0.34773  1.0000
  C   C231      1.0  0.46715  0.60100  0.43028  1.0000
  C   C232      1.0  0.49147  0.62411  0.42795  1.0000
  H   H115      1.0  0.50116  0.63217  0.48662  1.0000
  C   C233      1.0  0.43087  0.56586  0.34773  1.0000
  C   C234      1.0  0.38481  0.51744  0.34531  1.0000
  C   C235      1.0  0.39638  0.52902  0.42799  1.0000
  C   C236      1.0  0.41949  0.55335  0.43029  1.0000
  C   C237      1.0  0.43186  0.56501  0.51192  1.0000
  C   C238      1.0  0.45548  0.58865  0.51192  1.0000
  H   H116      1.0  0.42401  0.55618  0.57189  1.0000
  H   H117      1.0  0.46432  0.59649  0.57187  1.0000
  H   H118      1.0  0.38834  0.51933  0.48666  1.0000
  C   C239      1.0  0.38480  0.88143  0.34540  1.0000
  C   C240      1.0  0.43087  0.87910  0.34777  1.0000
  C   C241      1.0  0.41950  0.88023  0.43035  1.0000
  C   C242      1.0  0.39638  0.88144  0.42807  1.0000
  H   H119      1.0  0.38834  0.88309  0.48674  1.0000
  C   C243      1.0  0.45463  0.87909  0.34774  1.0000
  C   C244      1.0  0.50303  0.88141  0.34523  1.0000
  C   C245      1.0  0.49147  0.88143  0.42792  1.0000
  C   C246      1.0  0.46715  0.88023  0.43028  1.0000
  C   C247      1.0  0.45550  0.88093  0.51193  1.0000
  C   C248      1.0  0.43187  0.88094  0.51196  1.0000
  H   H120      1.0  0.46433  0.88191  0.57188  1.0000
  H   H121      1.0  0.42402  0.88191  0.57194  1.0000
  H   H122      1.0  0.50117  0.88307  0.48658  1.0000
  C   C249      1.0  0.87886  0.50560  0.34527  1.0000
  C   C250      1.0  0.87653  0.45719  0.34771  1.0000
  C   C251      1.0  0.87766  0.46971  0.43027  1.0000
  C   C252      1.0  0.87888  0.49403  0.42795  1.0000
  H   H123      1.0  0.88051  0.50372  0.48662  1.0000
  C   C253      1.0  0.87653  0.43344  0.34771  1.0000
  C   C254      1.0  0.87887  0.38736  0.34527  1.0000
  C   C255      1.0  0.87888  0.39894  0.42794  1.0000
  C   C256      1.0  0.87767  0.42206  0.43027  1.0000
  C   C257      1.0  0.87837  0.43442  0.51190  1.0000
  C   C258      1.0  0.87836  0.45804  0.51190  1.0000
  H   H124      1.0  0.87936  0.42657  0.57186  1.0000
  H   H125      1.0  0.87936  0.46688  0.57187  1.0000
  H   H126      1.0  0.88053  0.39090  0.48661  1.0000
  C   C259      1.0  0.51489  0.38735  0.34540  1.0000
  C   C260      1.0  0.56330  0.43343  0.34776  1.0000
  C   C261      1.0  0.55079  0.42206  0.43033  1.0000
  C   C262      1.0  0.52647  0.39894  0.42806  1.0000
  H   H127      1.0  0.51678  0.39090  0.48673  1.0000
  C   C263      1.0  0.58705  0.45719  0.34772  1.0000
  C   C264      1.0  0.63313  0.50560  0.34520  1.0000
  C   C265      1.0  0.62155  0.49404  0.42790  1.0000
  C   C266      1.0  0.59844  0.46971  0.43025  1.0000
  C   C267      1.0  0.58609  0.45806  0.51191  1.0000
  C   C268      1.0  0.56246  0.43443  0.51195  1.0000
  H   H128      1.0  0.59395  0.46690  0.57186  1.0000
  H   H129      1.0  0.55363  0.42658  0.57193  1.0000
  H   H130      1.0  0.62961  0.50374  0.48655  1.0000
  C   C269      1.0  0.63312  0.14160  0.34528  1.0000
  C   C270      1.0  0.58706  0.14396  0.34770  1.0000
  C   C271      1.0  0.59844  0.14282  0.43027  1.0000
  C   C272      1.0  0.62155  0.14160  0.42796  1.0000
  H   H131      1.0  0.62960  0.13996  0.48662  1.0000
  C   C273      1.0  0.56331  0.14397  0.34769  1.0000
  C   C274      1.0  0.51489  0.14161  0.34523  1.0000
  C   C275      1.0  0.52646  0.14161  0.42792  1.0000
  C   C276      1.0  0.55079  0.14282  0.43025  1.0000
  C   C277      1.0  0.56244  0.14212  0.51188  1.0000
  C   C278      1.0  0.58608  0.14213  0.51189  1.0000
  H   H132      1.0  0.55361  0.14113  0.57184  1.0000
  H   H133      1.0  0.59392  0.14112  0.57185  1.0000
  H   H134      1.0  0.51676  0.13996  0.48658  1.0000
  C   C279      1.0  0.95527  0.36224  0.41578  1.0000
  N   N27       1.0  0.98156  0.37391  0.41198  1.0000
  H   H135      1.0  0.94657  0.35928  0.47719  1.0000
  C   C280      1.0  0.60456  0.66082  0.41590  1.0000
  N   N28       1.0  0.61921  0.64918  0.41209  1.0000
  C   C281      1.0  0.65829  0.60714  0.41584  1.0000
  H   H136      1.0  0.59889  0.66385  0.47733  1.0000
  N   N29       1.0  0.64664  0.62178  0.41206  1.0000
  H   H137      1.0  0.66129  0.60143  0.47726  1.0000
  C   C282      1.0  0.35966  0.95781  0.41573  1.0000
  N   N30       1.0  0.37133  0.98410  0.41195  1.0000
  C   C283      1.0  0.41337  0.06522  0.41579  1.0000
  H   H138      1.0  0.35671  0.94911  0.47714  1.0000
  N   N31       1.0  0.39875  0.03893  0.41199  1.0000
  H   H139      1.0  0.41911  0.07391  0.47720  1.0000
  C   C284      1.0  0.95527  0.60711  0.41588  1.0000
  N   N32       1.0  0.98156  0.62176  0.41206  1.0000
  H   H140      1.0  0.94657  0.60143  0.47731  1.0000
  C   C285      1.0  0.41338  0.36224  0.41580  1.0000
  N   N33       1.0  0.39875  0.37390  0.41196  1.0000
  C   C286      1.0  0.35967  0.41594  0.41567  1.0000
  H   H141      1.0  0.41913  0.35930  0.47722  1.0000
  N   N34       1.0  0.37133  0.40132  0.41190  1.0000
  H   H142      1.0  0.35671  0.42169  0.47706  1.0000
  C   C287      1.0  0.65824  0.06521  0.41586  1.0000
  N   N35       1.0  0.64660  0.03892  0.41206  1.0000
  C   C288      1.0  0.60455  0.95780  0.41582  1.0000
  H   H143      1.0  0.66126  0.07391  0.47729  1.0000
  N   N36       1.0  0.61920  0.98409  0.41203  1.0000
  H   H144      1.0  0.59884  0.94910  0.47723  1.0000
