data_image0
_chemical_formula_structural       C3H2C2HCH3CHC3HNO2NHC3HNO2NHC3HC4H3CHCH2C3HNO2NHC3HNO2NHC3H2C2HCH3CHC3HNO2NHC3HNO2NHC3HC4H3CHCH2C3HNO2NHC3HNO2NHC3H2C2HCH3CHC3HNO2NHC3HNO2NHC3HC4H3CHCH2C3HNO2NHC3HNO2NHC3H2C2HCH3CHC3HNO2NHC3HNO2NHC3HC4H3CHCH2C3HNO2NHC3HNO2NH
_chemical_formula_sum              "C112 H88 N32 O32"
_cell_length_a       30.1682
_cell_length_b       30.1682
_cell_length_c       14.9726
_cell_angle_alpha    90
_cell_angle_beta     90
_cell_angle_gamma    90

_space_group_name_H-M_alt    "P 1"
_space_group_IT_number       1

loop_
  _space_group_symop_operation_xyz
  'x, y, z'

loop_
  _atom_site_type_symbol
  _atom_site_label
  _atom_site_symmetry_multiplicity
  _atom_site_fract_x
  _atom_site_fract_y
  _atom_site_fract_z
  _atom_site_occupancy
  C   C1        1.0  0.01766  0.48313  0.32252  1.0000
  C   C2        1.0  0.05694  0.49692  0.27895  1.0000
  C   C3        1.0  0.08986  0.46627  0.25294  1.0000
  H   H1        1.0  0.06148  0.02981  0.26459  1.0000
  H   H2        1.0  0.10608  0.39832  0.25123  1.0000
  C   C4        1.0  0.40862  0.04361  0.34054  1.0000
  C   C5        1.0  0.44061  0.01098  0.31958  1.0000
  H   H3        1.0  0.43150  0.48451  0.28088  1.0000
  C   C6        1.0  0.36249  0.04039  0.30548  1.0000
  H   H4        1.0  0.36445  0.04374  0.23292  1.0000
  H   H5        1.0  0.45099  0.14741  0.48495  1.0000
  H   H6        1.0  0.04290  0.34153  0.25878  1.0000
  C   C7        1.0  0.13025  0.48124  0.20462  1.0000
  H   H7        1.0  0.12004  0.49565  0.14077  1.0000
  C   C8        1.0  0.99743  0.29246  0.37652  1.0000
  C   C9        1.0  0.99085  0.26258  0.30450  1.0000
  C   C10       1.0  0.99475  0.21647  0.31993  1.0000
  H   H8        1.0  0.99067  0.19495  0.26771  1.0000
  N   N1        1.0  0.98070  0.27946  0.21873  1.0000
  O   O1        1.0  0.00932  0.26823  0.16203  1.0000
  O   O2        1.0  0.94346  0.26613  0.19246  1.0000
  N   N2        1.0  0.99747  0.33936  0.36621  1.0000
  H   H9        1.0  0.97008  0.34884  0.33029  1.0000
  C   C11       1.0  0.20089  0.00808  0.27179  1.0000
  C   C12       1.0  0.23232  0.00748  0.20157  1.0000
  C   C13       1.0  0.27772  0.00206  0.22253  1.0000
  H   H10       1.0  0.30032  0.00165  0.17161  1.0000
  N   N3        1.0  0.21762  0.01286  0.11253  1.0000
  O   O3        1.0  0.22756  0.97989  0.06530  1.0000
  O   O4        1.0  0.23410  0.04693  0.07746  1.0000
  N   N4        1.0  0.15490  0.01467  0.25831  1.0000
  H   H11       1.0  0.14973  0.04601  0.23353  1.0000
  C   C14       1.0  0.08265  0.42091  0.27074  1.0000
  C   C15       1.0  0.04348  0.40556  0.31235  1.0000
  C   C16       1.0  0.01127  0.43722  0.33813  1.0000
  H   H12       1.0  0.48304  0.42691  0.36971  1.0000
  C   C17       1.0  0.48518  0.01514  0.34790  1.0000
  C   C18       1.0  0.49736  0.05325  0.39745  1.0000
  C   C19       1.0  0.46621  0.08655  0.41914  1.0000
  C   C20       1.0  0.42192  0.08095  0.39080  1.0000
  H   H13       1.0  0.02954  0.05701  0.41793  1.0000
  H   H14       1.0  0.39927  0.10527  0.40454  1.0000
  H   H15       1.0  0.34259  0.06822  0.33011  1.0000
  C   C21       1.0  0.48000  0.12729  0.46789  1.0000
  H   H16       1.0  0.49560  0.11783  0.53105  1.0000
  C   C22       1.0  0.03884  0.35670  0.32464  1.0000
  H   H17       1.0  0.06671  0.34598  0.36619  1.0000
  H   H18       1.0  0.15146  0.45286  0.18869  1.0000
  C   C23       1.0  0.00534  0.19961  0.40504  1.0000
  C   C24       1.0  0.01120  0.22931  0.47739  1.0000
  C   C25       1.0  0.00673  0.27544  0.46225  1.0000
  H   H19       1.0  0.01185  0.29697  0.51405  1.0000
  N   N5        1.0  0.02207  0.21204  0.56237  1.0000
  O   O5        1.0  0.99311  0.22197  0.61930  1.0000
  O   O6        1.0  0.05891  0.22628  0.58896  1.0000
  N   N6        1.0  0.01141  0.15316  0.41179  1.0000
  H   H20       1.0  0.04366  0.14633  0.42896  1.0000
  C   C26       1.0  0.29276  0.99937  0.31178  1.0000
  C   C27       1.0  0.26100  0.00008  0.38189  1.0000
  C   C28       1.0  0.21544  0.00394  0.36075  1.0000
  H   H21       1.0  0.19265  0.00504  0.41137  1.0000
  N   N7        1.0  0.27525  0.99808  0.47188  1.0000
  O   O7        1.0  0.26448  0.03234  0.51446  1.0000
  O   O8        1.0  0.25957  0.96483  0.51133  1.0000
  N   N8        1.0  0.33953  0.99790  0.32681  1.0000
  H   H22       1.0  0.34680  0.98874  0.39113  1.0000
  C   C29       1.0  0.01766  0.98313  0.32252  1.0000
  C   C30       1.0  0.05694  0.99692  0.27895  1.0000
  C   C31       1.0  0.08986  0.96627  0.25294  1.0000
  H   H23       1.0  0.06148  0.52980  0.26459  1.0000
  H   H24       1.0  0.10608  0.89833  0.25123  1.0000
  C   C32       1.0  0.40862  0.54361  0.34054  1.0000
  C   C33       1.0  0.44061  0.51098  0.31958  1.0000
  H   H25       1.0  0.43150  0.98452  0.28088  1.0000
  C   C34       1.0  0.36249  0.54039  0.30548  1.0000
  H   H26       1.0  0.36445  0.54374  0.23292  1.0000
  H   H27       1.0  0.45099  0.64741  0.48495  1.0000
  H   H28       1.0  0.04290  0.84153  0.25878  1.0000
  C   C35       1.0  0.13025  0.98123  0.20462  1.0000
  H   H29       1.0  0.12004  0.99564  0.14077  1.0000
  C   C36       1.0  0.99743  0.79246  0.37652  1.0000
  C   C37       1.0  0.99085  0.76258  0.30450  1.0000
  C   C38       1.0  0.99475  0.71647  0.31993  1.0000
  H   H30       1.0  0.99067  0.69495  0.26771  1.0000
  N   N9        1.0  0.98070  0.77946  0.21873  1.0000
  O   O9        1.0  0.00932  0.76823  0.16203  1.0000
  O   O10       1.0  0.94346  0.76613  0.19246  1.0000
  N   N10       1.0  0.99747  0.83937  0.36621  1.0000
  H   H31       1.0  0.97008  0.84884  0.33029  1.0000
  C   C39       1.0  0.20089  0.50808  0.27179  1.0000
  C   C40       1.0  0.23232  0.50748  0.20157  1.0000
  C   C41       1.0  0.27772  0.50206  0.22253  1.0000
  H   H32       1.0  0.30032  0.50165  0.17161  1.0000
  N   N11       1.0  0.21762  0.51287  0.11253  1.0000
  O   O11       1.0  0.22756  0.47989  0.06530  1.0000
  O   O12       1.0  0.23410  0.54693  0.07746  1.0000
  N   N12       1.0  0.15490  0.51467  0.25831  1.0000
  H   H33       1.0  0.14973  0.54601  0.23353  1.0000
  C   C42       1.0  0.08265  0.92091  0.27074  1.0000
  C   C43       1.0  0.04348  0.90556  0.31235  1.0000
  C   C44       1.0  0.01127  0.93722  0.33813  1.0000
  H   H34       1.0  0.48304  0.92692  0.36971  1.0000
  C   C45       1.0  0.48518  0.51514  0.34790  1.0000
  C   C46       1.0  0.49736  0.55325  0.39745  1.0000
  C   C47       1.0  0.46621  0.58655  0.41914  1.0000
  C   C48       1.0  0.42192  0.58095  0.39080  1.0000
  H   H35       1.0  0.02954  0.55701  0.41793  1.0000
  H   H36       1.0  0.39927  0.60526  0.40454  1.0000
  H   H37       1.0  0.34259  0.56822  0.33011  1.0000
  C   C49       1.0  0.48000  0.62729  0.46789  1.0000
  H   H38       1.0  0.49560  0.61783  0.53105  1.0000
  C   C50       1.0  0.03884  0.85669  0.32464  1.0000
  H   H39       1.0  0.06671  0.84598  0.36619  1.0000
  H   H40       1.0  0.15146  0.95286  0.18869  1.0000
  C   C51       1.0  0.00534  0.69961  0.40504  1.0000
  C   C52       1.0  0.01120  0.72931  0.47739  1.0000
  C   C53       1.0  0.00673  0.77544  0.46225  1.0000
  H   H41       1.0  0.01185  0.79697  0.51405  1.0000
  N   N13       1.0  0.02207  0.71203  0.56237  1.0000
  O   O13       1.0  0.99311  0.72197  0.61930  1.0000
  O   O14       1.0  0.05891  0.72628  0.58896  1.0000
  N   N14       1.0  0.01141  0.65316  0.41179  1.0000
  H   H42       1.0  0.04366  0.64633  0.42896  1.0000
  C   C54       1.0  0.29276  0.49937  0.31178  1.0000
  C   C55       1.0  0.26100  0.50009  0.38189  1.0000
  C   C56       1.0  0.21544  0.50394  0.36075  1.0000
  H   H43       1.0  0.19265  0.50504  0.41137  1.0000
  N   N15       1.0  0.27525  0.49808  0.47188  1.0000
  O   O15       1.0  0.26448  0.53234  0.51446  1.0000
  O   O16       1.0  0.25957  0.46483  0.51133  1.0000
  N   N16       1.0  0.33953  0.49790  0.32681  1.0000
  H   H44       1.0  0.34680  0.48874  0.39113  1.0000
  C   C57       1.0  0.51766  0.48313  0.32252  1.0000
  C   C58       1.0  0.55694  0.49692  0.27895  1.0000
  C   C59       1.0  0.58986  0.46627  0.25294  1.0000
  H   H45       1.0  0.56148  0.02981  0.26459  1.0000
  H   H46       1.0  0.60608  0.39832  0.25123  1.0000
  C   C60       1.0  0.90862  0.04361  0.34054  1.0000
  C   C61       1.0  0.94061  0.01098  0.31958  1.0000
  H   H47       1.0  0.93150  0.48451  0.28088  1.0000
  C   C62       1.0  0.86249  0.04039  0.30548  1.0000
  H   H48       1.0  0.86445  0.04374  0.23292  1.0000
  H   H49       1.0  0.95099  0.14741  0.48495  1.0000
  H   H50       1.0  0.54289  0.34153  0.25878  1.0000
  C   C63       1.0  0.63024  0.48124  0.20462  1.0000
  H   H51       1.0  0.62004  0.49565  0.14077  1.0000
  C   C64       1.0  0.49744  0.29246  0.37652  1.0000
  C   C65       1.0  0.49085  0.26258  0.30450  1.0000
  C   C66       1.0  0.49475  0.21647  0.31993  1.0000
  H   H52       1.0  0.49067  0.19495  0.26771  1.0000
  N   N17       1.0  0.48070  0.27946  0.21873  1.0000
  O   O17       1.0  0.50932  0.26823  0.16203  1.0000
  O   O18       1.0  0.44346  0.26613  0.19246  1.0000
  N   N18       1.0  0.49746  0.33936  0.36621  1.0000
  H   H53       1.0  0.47008  0.34884  0.33029  1.0000
  C   C67       1.0  0.70088  0.00808  0.27179  1.0000
  C   C68       1.0  0.73232  0.00748  0.20157  1.0000
  C   C69       1.0  0.77771  0.00206  0.22253  1.0000
  H   H54       1.0  0.80032  0.00165  0.17161  1.0000
  N   N19       1.0  0.71762  0.01286  0.11253  1.0000
  O   O19       1.0  0.72756  0.97989  0.06530  1.0000
  O   O20       1.0  0.73410  0.04693  0.07746  1.0000
  N   N20       1.0  0.65490  0.01467  0.25831  1.0000
  H   H55       1.0  0.64973  0.04601  0.23353  1.0000
  C   C70       1.0  0.58265  0.42091  0.27074  1.0000
  C   C71       1.0  0.54348  0.40556  0.31235  1.0000
  C   C72       1.0  0.51127  0.43722  0.33813  1.0000
  H   H56       1.0  0.98304  0.42691  0.36971  1.0000
  C   C73       1.0  0.98518  0.01514  0.34790  1.0000
  C   C74       1.0  0.99736  0.05325  0.39745  1.0000
  C   C75       1.0  0.96620  0.08655  0.41914  1.0000
  C   C76       1.0  0.92193  0.08095  0.39080  1.0000
  H   H57       1.0  0.52953  0.05701  0.41793  1.0000
  H   H58       1.0  0.89927  0.10527  0.40454  1.0000
  H   H59       1.0  0.84259  0.06822  0.33011  1.0000
  C   C77       1.0  0.97999  0.12729  0.46789  1.0000
  H   H60       1.0  0.99560  0.11783  0.53105  1.0000
  C   C78       1.0  0.53883  0.35670  0.32464  1.0000
  H   H61       1.0  0.56671  0.34598  0.36619  1.0000
  H   H62       1.0  0.65145  0.45286  0.18869  1.0000
  C   C79       1.0  0.50533  0.19961  0.40504  1.0000
  C   C80       1.0  0.51120  0.22931  0.47739  1.0000
  C   C81       1.0  0.50673  0.27544  0.46225  1.0000
  H   H63       1.0  0.51185  0.29697  0.51405  1.0000
  N   N21       1.0  0.52207  0.21204  0.56237  1.0000
  O   O21       1.0  0.49312  0.22197  0.61930  1.0000
  O   O22       1.0  0.55891  0.22628  0.58896  1.0000
  N   N22       1.0  0.51141  0.15316  0.41179  1.0000
  H   H64       1.0  0.54366  0.14633  0.42896  1.0000
  C   C82       1.0  0.79276  0.99937  0.31178  1.0000
  C   C83       1.0  0.76100  0.00008  0.38189  1.0000
  C   C84       1.0  0.71544  0.00394  0.36075  1.0000
  H   H65       1.0  0.69265  0.00504  0.41137  1.0000
  N   N23       1.0  0.77525  0.99808  0.47188  1.0000
  O   O23       1.0  0.76448  0.03234  0.51446  1.0000
  O   O24       1.0  0.75957  0.96483  0.51133  1.0000
  N   N24       1.0  0.83953  0.99790  0.32681  1.0000
  H   H66       1.0  0.84680  0.98874  0.39113  1.0000
  C   C85       1.0  0.51766  0.98313  0.32252  1.0000
  C   C86       1.0  0.55694  0.99692  0.27895  1.0000
  C   C87       1.0  0.58986  0.96627  0.25294  1.0000
  H   H67       1.0  0.56148  0.52980  0.26459  1.0000
  H   H68       1.0  0.60608  0.89833  0.25123  1.0000
  C   C88       1.0  0.90862  0.54361  0.34054  1.0000
  C   C89       1.0  0.94061  0.51098  0.31958  1.0000
  H   H69       1.0  0.93150  0.98452  0.28088  1.0000
  C   C90       1.0  0.86249  0.54039  0.30548  1.0000
  H   H70       1.0  0.86445  0.54374  0.23292  1.0000
  H   H71       1.0  0.95099  0.64741  0.48495  1.0000
  H   H72       1.0  0.54289  0.84153  0.25878  1.0000
  C   C91       1.0  0.63024  0.98123  0.20462  1.0000
  H   H73       1.0  0.62004  0.99564  0.14077  1.0000
  C   C92       1.0  0.49744  0.79246  0.37652  1.0000
  C   C93       1.0  0.49085  0.76258  0.30450  1.0000
  C   C94       1.0  0.49475  0.71647  0.31993  1.0000
  H   H74       1.0  0.49067  0.69495  0.26771  1.0000
  N   N25       1.0  0.48070  0.77946  0.21873  1.0000
  O   O25       1.0  0.50932  0.76823  0.16203  1.0000
  O   O26       1.0  0.44346  0.76613  0.19246  1.0000
  N   N26       1.0  0.49746  0.83937  0.36621  1.0000
  H   H75       1.0  0.47008  0.84884  0.33029  1.0000
  C   C95       1.0  0.70088  0.50808  0.27179  1.0000
  C   C96       1.0  0.73232  0.50748  0.20157  1.0000
  C   C97       1.0  0.77771  0.50206  0.22253  1.0000
  H   H76       1.0  0.80032  0.50165  0.17161  1.0000
  N   N27       1.0  0.71762  0.51287  0.11253  1.0000
  O   O27       1.0  0.72756  0.47989  0.06530  1.0000
  O   O28       1.0  0.73410  0.54693  0.07746  1.0000
  N   N28       1.0  0.65490  0.51467  0.25831  1.0000
  H   H77       1.0  0.64973  0.54601  0.23353  1.0000
  C   C98       1.0  0.58265  0.92091  0.27074  1.0000
  C   C99       1.0  0.54348  0.90556  0.31235  1.0000
  C   C100      1.0  0.51127  0.93722  0.33813  1.0000
  H   H78       1.0  0.98304  0.92692  0.36971  1.0000
  C   C101      1.0  0.98518  0.51514  0.34790  1.0000
  C   C102      1.0  0.99736  0.55325  0.39745  1.0000
  C   C103      1.0  0.96620  0.58655  0.41914  1.0000
  C   C104      1.0  0.92193  0.58095  0.39080  1.0000
  H   H79       1.0  0.52953  0.55701  0.41793  1.0000
  H   H80       1.0  0.89927  0.60526  0.40454  1.0000
  H   H81       1.0  0.84259  0.56822  0.33011  1.0000
  C   C105      1.0  0.97999  0.62729  0.46789  1.0000
  H   H82       1.0  0.99560  0.61783  0.53105  1.0000
  C   C106      1.0  0.53883  0.85669  0.32464  1.0000
  H   H83       1.0  0.56671  0.84598  0.36619  1.0000
  H   H84       1.0  0.65145  0.95286  0.18869  1.0000
  C   C107      1.0  0.50533  0.69961  0.40504  1.0000
  C   C108      1.0  0.51120  0.72931  0.47739  1.0000
  C   C109      1.0  0.50673  0.77544  0.46225  1.0000
  H   H85       1.0  0.51185  0.79697  0.51405  1.0000
  N   N29       1.0  0.52207  0.71203  0.56237  1.0000
  O   O29       1.0  0.49312  0.72197  0.61930  1.0000
  O   O30       1.0  0.55891  0.72628  0.58896  1.0000
  N   N30       1.0  0.51141  0.65316  0.41179  1.0000
  H   H86       1.0  0.54366  0.64633  0.42896  1.0000
  C   C110      1.0  0.79276  0.49937  0.31178  1.0000
  C   C111      1.0  0.76100  0.50009  0.38189  1.0000
  C   C112      1.0  0.71544  0.50394  0.36075  1.0000
  H   H87       1.0  0.69265  0.50504  0.41137  1.0000
  N   N31       1.0  0.77525  0.49808  0.47188  1.0000
  O   O31       1.0  0.76448  0.53234  0.51446  1.0000
  O   O32       1.0  0.75957  0.46483  0.51133  1.0000
  N   N32       1.0  0.83953  0.49790  0.32681  1.0000
  H   H88       1.0  0.84680  0.48874  0.39113  1.0000
