data_image0
_chemical_formula_structural       C8H5CN2HNC8H5CN2HNC2H2C3H2CHC2H2C3H2CHC2H2C3H2CHC10H6CNCN2C10H6CNCN2C7H3NH2CHC7H3NH2CHC7H3NH2CH
_chemical_formula_sum              "C84 H57 N15"
_cell_length_a       44.1681
_cell_length_b       44.1681
_cell_length_c       14.9975
_cell_angle_alpha    90
_cell_angle_beta     90
_cell_angle_gamma    120

_space_group_name_H-M_alt    "P 1"
_space_group_IT_number       1

loop_
  _space_group_symop_operation_xyz
  'x, y, z'

loop_
  _atom_site_type_symbol
  _atom_site_label
  _atom_site_symmetry_multiplicity
  _atom_site_fract_x
  _atom_site_fract_y
  _atom_site_fract_z
  _atom_site_occupancy
  C   C1        1.0  0.37014  0.63005  0.33811  1.0000
  C   C2        1.0  0.40710  0.75926  0.33026  1.0000
  C   C3        1.0  0.42556  0.79603  0.32947  1.0000
  C   C4        1.0  0.20395  0.57481  0.34580  1.0000
  C   C5        1.0  0.24075  0.59314  0.34587  1.0000
  C   C6        1.0  0.35234  0.59312  0.33031  1.0000
  C   C7        1.0  0.37064  0.57466  0.32955  1.0000
  C   C8        1.0  0.40749  0.59255  0.33630  1.0000
  H   H1        1.0  0.45223  0.80885  0.32505  1.0000
  H   H2        1.0  0.25322  0.57901  0.35248  1.0000
  H   H3        1.0  0.19088  0.54815  0.35197  1.0000
  H   H4        1.0  0.32569  0.57905  0.32503  1.0000
  H   H5        1.0  0.35679  0.54798  0.32512  1.0000
  C   C9        1.0  0.35150  0.64871  0.33848  1.0000
  N   N1        1.0  0.31596  0.63176  0.33844  1.0000
  N   N2        1.0  0.36846  0.68424  0.33842  1.0000
  H   H6        1.0  0.42117  0.74668  0.32504  1.0000
  N   N3        1.0  0.42604  0.57637  0.33851  1.0000
  C   C10       1.0  0.63186  0.37181  0.32885  1.0000
  C   C11       1.0  0.59158  0.24157  0.31760  1.0000
  C   C12       1.0  0.57236  0.20479  0.31948  1.0000
  C   C13       1.0  0.79673  0.42254  0.34465  1.0000
  C   C14       1.0  0.76000  0.40501  0.34181  1.0000
  C   C15       1.0  0.65015  0.40863  0.31759  1.0000
  C   C16       1.0  0.63258  0.42784  0.31946  1.0000
  C   C17       1.0  0.59628  0.41095  0.33479  1.0000
  H   H7        1.0  0.54583  0.19225  0.31075  1.0000
  H   H8        1.0  0.74801  0.41953  0.34995  1.0000
  H   H9        1.0  0.81021  0.44907  0.35333  1.0000
  H   H10       1.0  0.67658  0.42199  0.30702  1.0000
  H   H11       1.0  0.64658  0.45438  0.31074  1.0000
  C   C18       1.0  0.64962  0.35230  0.32741  1.0000
  N   N4        1.0  0.68511  0.36841  0.32753  1.0000
  N   N5        1.0  0.63180  0.31674  0.32754  1.0000
  H   H12       1.0  0.57822  0.25463  0.30707  1.0000
  N   N6        1.0  0.58055  0.42990  0.33448  1.0000
  C   C19       1.0  0.52006  0.47914  0.28107  1.0000
  C   C20       1.0  0.53811  0.46070  0.29122  1.0000
  H   H13       1.0  0.51755  0.48678  0.21830  1.0000
  H   H14       1.0  0.54778  0.45513  0.23543  1.0000
  C   C21       1.0  0.44286  0.53440  0.31125  1.0000
  C   C22       1.0  0.43208  0.50026  0.27966  1.0000
  C   C23       1.0  0.45277  0.48471  0.29328  1.0000
  H   H15       1.0  0.40868  0.48604  0.24730  1.0000
  H   H16       1.0  0.44382  0.45974  0.27095  1.0000
  C   C24       1.0  0.42114  0.54847  0.29868  1.0000
  H   H17       1.0  0.40067  0.53617  0.25808  1.0000
  C   C25       1.0  0.52107  0.04096  0.28106  1.0000
  C   C26       1.0  0.53949  0.07744  0.29121  1.0000
  H   H18       1.0  0.51346  0.03081  0.21829  1.0000
  H   H19       1.0  0.54510  0.09268  0.23540  1.0000
  C   C27       1.0  0.46583  0.90851  0.31121  1.0000
  C   C28       1.0  0.49997  0.93187  0.27966  1.0000
  C   C29       1.0  0.51552  0.96811  0.29334  1.0000
  H   H20       1.0  0.51421  0.92270  0.24736  1.0000
  H   H21       1.0  0.54049  0.98413  0.27103  1.0000
  C   C30       1.0  0.45175  0.87271  0.29860  1.0000
  H   H22       1.0  0.46407  0.86455  0.25804  1.0000
  C   C31       1.0  0.95926  0.48015  0.28104  1.0000
  C   C32       1.0  0.92277  0.46209  0.29117  1.0000
  H   H23       1.0  0.96941  0.48269  0.21826  1.0000
  H   H24       1.0  0.90754  0.45246  0.23536  1.0000
  C   C33       1.0  0.09171  0.55736  0.31123  1.0000
  C   C34       1.0  0.06835  0.56813  0.27964  1.0000
  C   C35       1.0  0.03211  0.54744  0.29328  1.0000
  H   H25       1.0  0.07752  0.59153  0.24727  1.0000
  H   H26       1.0  0.01608  0.55638  0.27092  1.0000
  C   C36       1.0  0.12751  0.57909  0.29866  1.0000
  H   H27       1.0  0.13567  0.59958  0.25815  1.0000
  C   C37       1.0  0.26008  0.63008  0.33808  1.0000
  C   C38       1.0  0.37017  0.74014  0.33806  1.0000
  C   C39       1.0  0.40766  0.81498  0.33611  1.0000
  C   C40       1.0  0.37103  0.79626  0.34575  1.0000
  C   C41       1.0  0.35256  0.75946  0.34585  1.0000
  C   C42       1.0  0.24095  0.64788  0.33032  1.0000
  C   C43       1.0  0.20419  0.62957  0.32953  1.0000
  C   C44       1.0  0.18524  0.59273  0.33622  1.0000
  C   C45       1.0  0.42541  0.62919  0.34588  1.0000
  C   C46       1.0  0.40708  0.64766  0.34596  1.0000
  H   H28       1.0  0.35745  0.80934  0.35197  1.0000
  H   H29       1.0  0.32596  0.74699  0.35251  1.0000
  H   H30       1.0  0.25354  0.67453  0.32510  1.0000
  H   H31       1.0  0.19137  0.64343  0.32515  1.0000
  H   H32       1.0  0.45206  0.64277  0.35213  1.0000
  H   H33       1.0  0.42121  0.67426  0.35259  1.0000
  C   C47       1.0  0.29738  0.64872  0.33846  1.0000
  N   N7        1.0  0.31598  0.68426  0.33841  1.0000
  C   C48       1.0  0.35151  0.70283  0.33845  1.0000
  N   N8        1.0  0.15051  0.57417  0.33842  1.0000
  N   N9        1.0  0.42384  0.84971  0.33837  1.0000
  C   C49       1.0  0.74012  0.36835  0.32882  1.0000
  C   C50       1.0  0.62840  0.26009  0.32884  1.0000
  C   C51       1.0  0.58926  0.18538  0.33472  1.0000
  C   C52       1.0  0.62598  0.20348  0.34467  1.0000
  C   C53       1.0  0.64518  0.24021  0.34181  1.0000
  C   C54       1.0  0.75864  0.35005  0.31755  1.0000
  C   C55       1.0  0.79543  0.36762  0.31944  1.0000
  C   C56       1.0  0.81483  0.40393  0.33467  1.0000
  C   C57       1.0  0.57767  0.37423  0.34471  1.0000
  C   C58       1.0  0.59520  0.35503  0.34185  1.0000
  H   H34       1.0  0.63903  0.19001  0.35335  1.0000
  H   H35       1.0  0.67170  0.25221  0.34993  1.0000
  H   H36       1.0  0.74558  0.32363  0.30703  1.0000
  H   H37       1.0  0.80796  0.35362  0.31069  1.0000
  H   H38       1.0  0.55114  0.36118  0.35342  1.0000
  H   H39       1.0  0.58068  0.32851  0.34997  1.0000
  C   C59       1.0  0.70285  0.35059  0.32740  1.0000
  N   N10       1.0  0.68347  0.31510  0.32753  1.0000
  C   C60       1.0  0.64791  0.29736  0.32741  1.0000
  N   N11       1.0  0.84952  0.41966  0.33441  1.0000
  N   N12       1.0  0.57031  0.15069  0.33446  1.0000
  C   C61       1.0  0.54149  0.44877  0.37600  1.0000
  C   C62       1.0  0.52669  0.45639  0.45028  1.0000
  C   C63       1.0  0.50826  0.47485  0.44166  1.0000
  C   C64       1.0  0.50491  0.48630  0.35527  1.0000
  C   C65       1.0  0.48490  0.50282  0.33922  1.0000
  C   C66       1.0  0.49619  0.53709  0.36974  1.0000
  C   C67       1.0  0.47544  0.55263  0.35602  1.0000
  H   H40       1.0  0.51944  0.55082  0.40301  1.0000
  H   H41       1.0  0.48436  0.57739  0.37975  1.0000
  H   H42       1.0  0.52856  0.44747  0.51200  1.0000
  N   N13       1.0  0.49349  0.47974  0.51597  1.0000
  H   H43       1.0  0.49578  0.47124  0.57405  1.0000
  H   H44       1.0  0.47954  0.49110  0.51361  1.0000
  C   C68       1.0  0.55644  0.42782  0.38660  1.0000
  H   H45       1.0  0.54798  0.41049  0.43620  1.0000
  C   C69       1.0  0.55142  0.09276  0.37599  1.0000
  C   C70       1.0  0.54382  0.07036  0.45026  1.0000
  C   C71       1.0  0.52534  0.03345  0.44168  1.0000
  C   C72       1.0  0.51390  0.01864  0.35529  1.0000
  C   C73       1.0  0.49739  0.98211  0.33924  1.0000
  C   C74       1.0  0.46312  0.95914  0.36972  1.0000
  C   C75       1.0  0.44759  0.92285  0.35595  1.0000
  H   H46       1.0  0.44938  0.96865  0.40295  1.0000
  H   H47       1.0  0.42282  0.90700  0.37966  1.0000
  H   H48       1.0  0.55272  0.08114  0.51199  1.0000
  N   N14       1.0  0.52045  0.01380  0.51599  1.0000
  H   H49       1.0  0.52895  0.02460  0.57406  1.0000
  H   H50       1.0  0.50909  0.98849  0.51364  1.0000
  C   C76       1.0  0.57240  0.12866  0.38655  1.0000
  H   H51       1.0  0.58974  0.13753  0.43612  1.0000
  C   C77       1.0  0.90745  0.45870  0.37594  1.0000
  C   C78       1.0  0.92985  0.47350  0.45022  1.0000
  C   C79       1.0  0.96675  0.49193  0.44164  1.0000
  C   C80       1.0  0.98157  0.49530  0.35526  1.0000
  C   C81       1.0  0.01810  0.51532  0.33923  1.0000
  C   C82       1.0  0.04108  0.50403  0.36975  1.0000
  C   C83       1.0  0.07737  0.52479  0.35601  1.0000
  H   H52       1.0  0.03157  0.48079  0.40304  1.0000
  H   H53       1.0  0.09322  0.51588  0.37979  1.0000
  H   H54       1.0  0.91907  0.47162  0.51195  1.0000
  N   N15       1.0  0.98640  0.50669  0.51596  1.0000
  H   H55       1.0  0.97560  0.50443  0.57402  1.0000
  H   H56       1.0  0.01171  0.52067  0.51360  1.0000
  C   C84       1.0  0.87155  0.44377  0.38651  1.0000
  H   H57       1.0  0.86268  0.45225  0.43609  1.0000
