data_image0
_chemical_formula_structural       C2HCNHCNC4H2C2NCH3C2NCHC2HCNHCNC4H2C2NCH3C2NCHC2HCHCH2CHC3HC4H2C2H2CNCH2C2HCHCH2CHC3HC4H2C2H2CNCH2C2HC2HCNCNHC3HCHC4H2C3NCH3C2HC2HC2HCNCNHC3HCHC4H2C3NCH3C2HC2HCNHCNHC4H2C3NCH3C3NCH3C2HCNHCNHC4H2C3NCH3C3NCH3C2HC2HC2HC2HC2HC2HCNHCNHCNHCNHCNHCNHC4H2C4H2C4H2C4H2C4H2C4H2C3NCH3C3NCH3C3NCH3C3NCH3C3NCH3C3NCH3C2HC2HC2HC2HC2HC2HCNHCNHCNHCNHCNHCNHC4H2C4H2C4H2C4H2C4H2C4H2C3NCH3C3NCH3C3NCH3C3NCH3C3NCH3C3NCH3
_chemical_formula_sum              "C264 H168 N48"
_cell_length_a       46.516
_cell_length_b       46.5161
_cell_length_c       14.7973
_cell_angle_alpha    90
_cell_angle_beta     90
_cell_angle_gamma    120

_space_group_name_H-M_alt    "P 1"
_space_group_IT_number       1

loop_
  _space_group_symop_operation_xyz
  'x, y, z'

loop_
  _atom_site_type_symbol
  _atom_site_label
  _atom_site_symmetry_multiplicity
  _atom_site_fract_x
  _atom_site_fract_y
  _atom_site_fract_z
  _atom_site_occupancy
  C   C1        1.0  0.04763  0.30152  0.36560  1.0000
  C   C2        1.0  0.08211  0.31932  0.34698  1.0000
  H   H1        1.0  0.03663  0.31563  0.37080  1.0000
  C   C3        1.0  0.12183  0.25803  0.26160  1.0000
  N   N1        1.0  0.15151  0.25937  0.26427  1.0000
  H   H2        1.0  0.11654  0.26709  0.20484  1.0000
  C   C4        1.0  0.14994  0.39556  0.26171  1.0000
  N   N2        1.0  0.12164  0.36583  0.26406  1.0000
  C   C5        1.0  0.02835  0.26588  0.36826  1.0000
  C   C6        1.0  0.09857  0.30110  0.33658  1.0000
  C   C7        1.0  0.08239  0.26643  0.34828  1.0000
  C   C8        1.0  0.04769  0.24961  0.36414  1.0000
  H   H3        1.0  0.12383  0.31381  0.32697  1.0000
  H   H4        1.0  0.03668  0.22447  0.36779  1.0000
  C   C9        1.0  0.11384  0.24148  0.41762  1.0000
  C   C10       1.0  0.10210  0.25098  0.34038  1.0000
  N   N3        1.0  0.14394  0.24289  0.41366  1.0000
  C   C11       1.0  0.09891  0.23557  0.50891  1.0000
  H   H5        1.0  0.07502  0.23457  0.50959  1.0000
  H   H6        1.0  0.11567  0.25535  0.55447  1.0000
  H   H7        1.0  0.09508  0.21193  0.53467  1.0000
  C   C12       1.0  0.14125  0.40323  0.41777  1.0000
  C   C13       1.0  0.10151  0.35421  0.33746  1.0000
  N   N4        1.0  0.11255  0.37313  0.41347  1.0000
  C   C14       1.0  0.15019  0.41816  0.50905  1.0000
  H   H8        1.0  0.13034  0.42196  0.53466  1.0000
  C   C15       1.0  0.04762  0.80152  0.36560  1.0000
  C   C16       1.0  0.08211  0.81932  0.34698  1.0000
  H   H9        1.0  0.03663  0.81563  0.37080  1.0000
  C   C17       1.0  0.12182  0.75803  0.26160  1.0000
  N   N5        1.0  0.15151  0.75936  0.26427  1.0000
  H   H10       1.0  0.11654  0.76709  0.20484  1.0000
  C   C18       1.0  0.14994  0.89556  0.26171  1.0000
  N   N6        1.0  0.12164  0.86583  0.26406  1.0000
  C   C19       1.0  0.02835  0.76588  0.36826  1.0000
  C   C20       1.0  0.09857  0.80110  0.33658  1.0000
  C   C21       1.0  0.08239  0.76643  0.34828  1.0000
  C   C22       1.0  0.04768  0.74961  0.36414  1.0000
  H   H11       1.0  0.12383  0.81381  0.32697  1.0000
  H   H12       1.0  0.03668  0.72447  0.36779  1.0000
  C   C23       1.0  0.11384  0.74148  0.41762  1.0000
  C   C24       1.0  0.10210  0.75098  0.34038  1.0000
  N   N7        1.0  0.14394  0.74289  0.41366  1.0000
  C   C25       1.0  0.09891  0.73557  0.50891  1.0000
  H   H13       1.0  0.07502  0.73457  0.50959  1.0000
  H   H14       1.0  0.11567  0.75535  0.55447  1.0000
  H   H15       1.0  0.09508  0.71193  0.53467  1.0000
  C   C26       1.0  0.14125  0.90323  0.41777  1.0000
  C   C27       1.0  0.10151  0.85421  0.33746  1.0000
  N   N8        1.0  0.11255  0.87313  0.41347  1.0000
  C   C28       1.0  0.15019  0.91816  0.50905  1.0000
  H   H16       1.0  0.13033  0.92196  0.53466  1.0000
  C   C29       1.0  0.21564  0.24954  0.36587  1.0000
  C   C30       1.0  0.19786  0.26627  0.34776  1.0000
  H   H17       1.0  0.20150  0.22443  0.37078  1.0000
  C   C31       1.0  0.25302  0.04426  0.36582  1.0000
  H   H18       1.0  0.22794  0.03331  0.37162  1.0000
  C   C32       1.0  0.25080  0.43500  0.34753  1.0000
  H   H19       1.0  0.25000  0.35263  0.20561  1.0000
  H   H20       1.0  0.16438  0.40098  0.20508  1.0000
  C   C33       1.0  0.25304  0.21225  0.36437  1.0000
  H   H21       1.0  0.22790  0.19816  0.36791  1.0000
  C   C34       1.0  0.25128  0.26587  0.36849  1.0000
  C   C35       1.0  0.21611  0.30098  0.33778  1.0000
  C   C36       1.0  0.25080  0.31940  0.34899  1.0000
  H   H22       1.0  0.20342  0.31355  0.32832  1.0000
  C   C37       1.0  0.25126  0.48883  0.36837  1.0000
  C   C38       1.0  0.21610  0.41857  0.33732  1.0000
  C   C39       1.0  0.19769  0.43485  0.34847  1.0000
  C   C40       1.0  0.21564  0.46957  0.36408  1.0000
  H   H23       1.0  0.20351  0.39331  0.32771  1.0000
  H   H24       1.0  0.20157  0.48064  0.36757  1.0000
  C   C41       1.0  0.16298  0.25080  0.33785  1.0000
  C   C42       1.0  0.16253  0.41526  0.34066  1.0000
  H   H25       1.0  0.17306  0.44206  0.50980  1.0000
  H   H26       1.0  0.15319  0.40140  0.55469  1.0000
  C   C43       1.0  0.24465  0.13780  0.41777  1.0000
  N   N9        1.0  0.24608  0.10912  0.41362  1.0000
  C   C44       1.0  0.23841  0.14666  0.50887  1.0000
  H   H27       1.0  0.23742  0.16955  0.50951  1.0000
  H   H28       1.0  0.21466  0.12680  0.53398  1.0000
  C   C45       1.0  0.21564  0.74954  0.36587  1.0000
  C   C46       1.0  0.19786  0.76627  0.34776  1.0000
  H   H29       1.0  0.20150  0.72443  0.37078  1.0000
  C   C47       1.0  0.25302  0.54426  0.36582  1.0000
  H   H30       1.0  0.22794  0.53331  0.37162  1.0000
  C   C48       1.0  0.25080  0.93500  0.34753  1.0000
  H   H31       1.0  0.25000  0.85263  0.20561  1.0000
  H   H32       1.0  0.16437  0.90098  0.20508  1.0000
  C   C49       1.0  0.25304  0.71225  0.36437  1.0000
  H   H33       1.0  0.22790  0.69816  0.36791  1.0000
  C   C50       1.0  0.25128  0.76587  0.36849  1.0000
  C   C51       1.0  0.21611  0.80098  0.33778  1.0000
  C   C52       1.0  0.25080  0.81940  0.34899  1.0000
  H   H34       1.0  0.20342  0.81356  0.32832  1.0000
  C   C53       1.0  0.25125  0.98883  0.36837  1.0000
  C   C54       1.0  0.21610  0.91857  0.33732  1.0000
  C   C55       1.0  0.19769  0.93485  0.34847  1.0000
  C   C56       1.0  0.21564  0.96957  0.36408  1.0000
  H   H35       1.0  0.20351  0.89331  0.32771  1.0000
  H   H36       1.0  0.20157  0.98064  0.36757  1.0000
  C   C57       1.0  0.16298  0.75080  0.33785  1.0000
  C   C58       1.0  0.16253  0.91526  0.34066  1.0000
  H   H37       1.0  0.17306  0.94206  0.50980  1.0000
  H   H38       1.0  0.15319  0.90140  0.55469  1.0000
  C   C59       1.0  0.24465  0.63780  0.41777  1.0000
  N   N10       1.0  0.24608  0.60912  0.41362  1.0000
  C   C60       1.0  0.23841  0.64666  0.50887  1.0000
  H   H39       1.0  0.23742  0.66955  0.50951  1.0000
  H   H40       1.0  0.21466  0.62680  0.53398  1.0000
  C   C61       1.0  0.32277  0.24744  0.34742  1.0000
  C   C62       1.0  0.30500  0.26417  0.36581  1.0000
  H   H41       1.0  0.31914  0.28928  0.37085  1.0000
  C   C63       1.0  0.26972  0.07872  0.34706  1.0000
  C   C64       1.0  0.26755  0.46950  0.36583  1.0000
  H   H42       1.0  0.29265  0.48045  0.37129  1.0000
  C   C65       1.0  0.25924  0.36711  0.26209  1.0000
  N   N11       1.0  0.25769  0.39534  0.26475  1.0000
  C   C66       1.0  0.26145  0.14663  0.26194  1.0000
  N   N12       1.0  0.26295  0.11837  0.26472  1.0000
  H   H43       1.0  0.27076  0.16111  0.20550  1.0000
  C   C67       1.0  0.26936  0.24785  0.36843  1.0000
  C   C68       1.0  0.26981  0.19431  0.34861  1.0000
  C   C69       1.0  0.30449  0.21274  0.33723  1.0000
  H   H44       1.0  0.31718  0.20016  0.32780  1.0000
  C   C70       1.0  0.26759  0.30147  0.36443  1.0000
  H   H45       1.0  0.29274  0.31556  0.36801  1.0000
  C   C71       1.0  0.26932  0.02493  0.36831  1.0000
  C   C72       1.0  0.30493  0.04420  0.36397  1.0000
  C   C73       1.0  0.32286  0.07891  0.34809  1.0000
  C   C74       1.0  0.30442  0.09514  0.33664  1.0000
  H   H46       1.0  0.31902  0.03315  0.36739  1.0000
  H   H47       1.0  0.31700  0.12040  0.32704  1.0000
  C   C75       1.0  0.27579  0.37588  0.41801  1.0000
  C   C76       1.0  0.26638  0.35456  0.34103  1.0000
  C   C77       1.0  0.26623  0.41557  0.33796  1.0000
  N   N13       1.0  0.27427  0.40451  0.41369  1.0000
  C   C78       1.0  0.28177  0.36698  0.50935  1.0000
  H   H48       1.0  0.28286  0.34414  0.51013  1.0000
  H   H49       1.0  0.26198  0.36393  0.55491  1.0000
  H   H50       1.0  0.30539  0.38687  0.53501  1.0000
  C   C79       1.0  0.25422  0.15914  0.34081  1.0000
  C   C80       1.0  0.25427  0.09815  0.33804  1.0000
  H   H51       1.0  0.25801  0.14958  0.55497  1.0000
  C   C81       1.0  0.32276  0.74744  0.34742  1.0000
  C   C82       1.0  0.30500  0.76417  0.36581  1.0000
  H   H52       1.0  0.31914  0.78928  0.37085  1.0000
  C   C83       1.0  0.26973  0.57872  0.34706  1.0000
  C   C84       1.0  0.26755  0.96950  0.36583  1.0000
  H   H53       1.0  0.29265  0.98045  0.37129  1.0000
  C   C85       1.0  0.25924  0.86710  0.26209  1.0000
  N   N14       1.0  0.25769  0.89533  0.26475  1.0000
  C   C86       1.0  0.26145  0.64663  0.26194  1.0000
  N   N15       1.0  0.26295  0.61837  0.26472  1.0000
  H   H54       1.0  0.27076  0.66111  0.20550  1.0000
  C   C87       1.0  0.26936  0.74786  0.36843  1.0000
  C   C88       1.0  0.26981  0.69431  0.34861  1.0000
  C   C89       1.0  0.30449  0.71274  0.33723  1.0000
  H   H55       1.0  0.31718  0.70016  0.32780  1.0000
  C   C90       1.0  0.26759  0.80147  0.36443  1.0000
  H   H56       1.0  0.29274  0.81557  0.36801  1.0000
  C   C91       1.0  0.26932  0.52493  0.36831  1.0000
  C   C92       1.0  0.30493  0.54420  0.36397  1.0000
  C   C93       1.0  0.32286  0.57891  0.34809  1.0000
  C   C94       1.0  0.30442  0.59515  0.33664  1.0000
  H   H57       1.0  0.31902  0.53315  0.36739  1.0000
  H   H58       1.0  0.31700  0.62040  0.32704  1.0000
  C   C95       1.0  0.27578  0.87588  0.41801  1.0000
  C   C96       1.0  0.26638  0.85456  0.34103  1.0000
  C   C97       1.0  0.26623  0.91557  0.33796  1.0000
  N   N16       1.0  0.27427  0.90452  0.41369  1.0000
  C   C98       1.0  0.28177  0.86698  0.50935  1.0000
  H   H59       1.0  0.28286  0.84414  0.51013  1.0000
  H   H60       1.0  0.26198  0.86393  0.55491  1.0000
  H   H61       1.0  0.30539  0.88687  0.53501  1.0000
  C   C99       1.0  0.25422  0.65914  0.34081  1.0000
  C   C100      1.0  0.25427  0.59815  0.33804  1.0000
  H   H62       1.0  0.25801  0.64958  0.55497  1.0000
  C   C101      1.0  0.43847  0.19433  0.34725  1.0000
  C   C102      1.0  0.47297  0.21213  0.36557  1.0000
  H   H63       1.0  0.48397  0.19803  0.37054  1.0000
  C   C103      1.0  0.39884  0.25557  0.26184  1.0000
  N   N17       1.0  0.36915  0.25424  0.26429  1.0000
  H   H64       1.0  0.40415  0.24646  0.20520  1.0000
  C   C104      1.0  0.37067  0.11822  0.26129  1.0000
  N   N18       1.0  0.39901  0.14792  0.26393  1.0000
  H   H65       1.0  0.35625  0.11287  0.20465  1.0000
  C   C105      1.0  0.49225  0.24777  0.36827  1.0000
  C   C106      1.0  0.47291  0.26405  0.36425  1.0000
  C   C107      1.0  0.43820  0.24723  0.34860  1.0000
  C   C108      1.0  0.42199  0.21255  0.33712  1.0000
  H   H66       1.0  0.48393  0.28919  0.36793  1.0000
  H   H67       1.0  0.39672  0.19983  0.32769  1.0000
  C   C109      1.0  0.40677  0.27231  0.41776  1.0000
  C   C110      1.0  0.41852  0.26273  0.34077  1.0000
  C   C111      1.0  0.35765  0.26288  0.33768  1.0000
  N   N19       1.0  0.37667  0.27091  0.41354  1.0000
  C   C112      1.0  0.42171  0.27831  0.50904  1.0000
  H   H68       1.0  0.44557  0.27927  0.50980  1.0000
  H   H69       1.0  0.40493  0.25860  0.55475  1.0000
  H   H70       1.0  0.42558  0.30200  0.53455  1.0000
  C   C113      1.0  0.37923  0.11038  0.41754  1.0000
  C   C114      1.0  0.35804  0.09859  0.34025  1.0000
  C   C115      1.0  0.41907  0.15945  0.33748  1.0000
  N   N20       1.0  0.40796  0.14046  0.41338  1.0000
  C   C116      1.0  0.37024  0.09539  0.50876  1.0000
  H   H71       1.0  0.34733  0.07153  0.50943  1.0000
  H   H72       1.0  0.36729  0.11215  0.55450  1.0000
  H   H73       1.0  0.39005  0.09151  0.53430  1.0000
  C   C117      1.0  0.43847  0.69433  0.34725  1.0000
  C   C118      1.0  0.47297  0.71213  0.36557  1.0000
  H   H74       1.0  0.48397  0.69802  0.37054  1.0000
  C   C119      1.0  0.39884  0.75556  0.26184  1.0000
  N   N21       1.0  0.36915  0.75423  0.26429  1.0000
  H   H75       1.0  0.40415  0.74646  0.20520  1.0000
  C   C120      1.0  0.37067  0.61822  0.26130  1.0000
  N   N22       1.0  0.39901  0.64792  0.26393  1.0000
  H   H76       1.0  0.35625  0.61287  0.20465  1.0000
  C   C121      1.0  0.49225  0.74777  0.36827  1.0000
  C   C122      1.0  0.47291  0.76405  0.36425  1.0000
  C   C123      1.0  0.43820  0.74724  0.34860  1.0000
  C   C124      1.0  0.42199  0.71255  0.33712  1.0000
  H   H77       1.0  0.48393  0.78918  0.36793  1.0000
  H   H78       1.0  0.39672  0.69983  0.32769  1.0000
  C   C125      1.0  0.40677  0.77231  0.41776  1.0000
  C   C126      1.0  0.41852  0.76273  0.34077  1.0000
  C   C127      1.0  0.35764  0.76288  0.33768  1.0000
  N   N23       1.0  0.37667  0.77090  0.41354  1.0000
  C   C128      1.0  0.42171  0.77831  0.50904  1.0000
  H   H79       1.0  0.44557  0.77927  0.50980  1.0000
  H   H80       1.0  0.40493  0.75860  0.55475  1.0000
  H   H81       1.0  0.42558  0.80200  0.53455  1.0000
  C   C129      1.0  0.37923  0.61038  0.41754  1.0000
  C   C130      1.0  0.35803  0.59859  0.34025  1.0000
  C   C131      1.0  0.41908  0.65945  0.33748  1.0000
  N   N24       1.0  0.40796  0.64046  0.41338  1.0000
  C   C132      1.0  0.37024  0.59539  0.50876  1.0000
  H   H82       1.0  0.34733  0.57152  0.50943  1.0000
  H   H83       1.0  0.36729  0.61215  0.55450  1.0000
  H   H84       1.0  0.39005  0.59151  0.53430  1.0000
  C   C133      1.0  0.93847  0.19433  0.34725  1.0000
  C   C134      1.0  0.97297  0.21213  0.36557  1.0000
  H   H85       1.0  0.98398  0.19803  0.37054  1.0000
  C   C135      1.0  0.54763  0.30152  0.36560  1.0000
  C   C136      1.0  0.58211  0.31932  0.34698  1.0000
  H   H86       1.0  0.53663  0.31563  0.37080  1.0000
  C   C137      1.0  0.82277  0.24744  0.34742  1.0000
  C   C138      1.0  0.80500  0.26417  0.36581  1.0000
  H   H87       1.0  0.81914  0.28928  0.37085  1.0000
  C   C139      1.0  0.71564  0.24954  0.36587  1.0000
  C   C140      1.0  0.69786  0.26627  0.34776  1.0000
  H   H88       1.0  0.70150  0.22443  0.37078  1.0000
  C   C141      1.0  0.76973  0.07872  0.34706  1.0000
  C   C142      1.0  0.75302  0.04426  0.36582  1.0000
  H   H89       1.0  0.72794  0.03331  0.37162  1.0000
  C   C143      1.0  0.76755  0.46950  0.36583  1.0000
  C   C144      1.0  0.75080  0.43500  0.34753  1.0000
  H   H90       1.0  0.79265  0.48045  0.37129  1.0000
  C   C145      1.0  0.62182  0.25803  0.26160  1.0000
  N   N25       1.0  0.65151  0.25937  0.26427  1.0000
  H   H91       1.0  0.61654  0.26709  0.20484  1.0000
  C   C146      1.0  0.75924  0.36711  0.26209  1.0000
  N   N26       1.0  0.75769  0.39534  0.26475  1.0000
  H   H92       1.0  0.75000  0.35263  0.20561  1.0000
  C   C147      1.0  0.64994  0.39556  0.26171  1.0000
  N   N27       1.0  0.62164  0.36583  0.26406  1.0000
  H   H93       1.0  0.66438  0.40098  0.20508  1.0000
  C   C148      1.0  0.89884  0.25557  0.26184  1.0000
  N   N28       1.0  0.86915  0.25424  0.26429  1.0000
  H   H94       1.0  0.90416  0.24646  0.20520  1.0000
  C   C149      1.0  0.76145  0.14663  0.26194  1.0000
  N   N29       1.0  0.76296  0.11837  0.26472  1.0000
  H   H95       1.0  0.77076  0.16111  0.20550  1.0000
  C   C150      1.0  0.87067  0.11822  0.26129  1.0000
  N   N30       1.0  0.89901  0.14792  0.26393  1.0000
  H   H96       1.0  0.85625  0.11287  0.20465  1.0000
  C   C151      1.0  0.99225  0.24777  0.36827  1.0000
  C   C152      1.0  0.97291  0.26405  0.36425  1.0000
  C   C153      1.0  0.93820  0.24723  0.34860  1.0000
  C   C154      1.0  0.92199  0.21255  0.33712  1.0000
  H   H97       1.0  0.98393  0.28919  0.36793  1.0000
  H   H98       1.0  0.89672  0.19983  0.32769  1.0000
  C   C155      1.0  0.52835  0.26588  0.36826  1.0000
  C   C156      1.0  0.59858  0.30110  0.33658  1.0000
  C   C157      1.0  0.58239  0.26643  0.34828  1.0000
  C   C158      1.0  0.54769  0.24961  0.36414  1.0000
  H   H99       1.0  0.62383  0.31381  0.32697  1.0000
  H   H100      1.0  0.53668  0.22447  0.36779  1.0000
  C   C159      1.0  0.76936  0.24785  0.36843  1.0000
  C   C160      1.0  0.75304  0.21225  0.36437  1.0000
  C   C161      1.0  0.76981  0.19431  0.34861  1.0000
  C   C162      1.0  0.80449  0.21274  0.33723  1.0000
  H   H101      1.0  0.72790  0.19816  0.36791  1.0000
  H   H102      1.0  0.81718  0.20016  0.32780  1.0000
  C   C163      1.0  0.75128  0.26587  0.36849  1.0000
  C   C164      1.0  0.71611  0.30098  0.33778  1.0000
  C   C165      1.0  0.75080  0.31940  0.34899  1.0000
  C   C166      1.0  0.76759  0.30147  0.36443  1.0000
  H   H103      1.0  0.70342  0.31355  0.32832  1.0000
  H   H104      1.0  0.79273  0.31556  0.36801  1.0000
  C   C167      1.0  0.76933  0.02493  0.36831  1.0000
  C   C168      1.0  0.80494  0.04420  0.36397  1.0000
  C   C169      1.0  0.82286  0.07891  0.34809  1.0000
  C   C170      1.0  0.80442  0.09514  0.33664  1.0000
  H   H105      1.0  0.81902  0.03315  0.36739  1.0000
  H   H106      1.0  0.81700  0.12040  0.32704  1.0000
  C   C171      1.0  0.75126  0.48883  0.36837  1.0000
  C   C172      1.0  0.71610  0.41857  0.33732  1.0000
  C   C173      1.0  0.69769  0.43485  0.34847  1.0000
  C   C174      1.0  0.71564  0.46957  0.36408  1.0000
  H   H107      1.0  0.70351  0.39331  0.32771  1.0000
  H   H108      1.0  0.70157  0.48064  0.36757  1.0000
  C   C175      1.0  0.61384  0.24148  0.41762  1.0000
  C   C176      1.0  0.60210  0.25098  0.34038  1.0000
  C   C177      1.0  0.66299  0.25080  0.33785  1.0000
  N   N31       1.0  0.64394  0.24289  0.41366  1.0000
  C   C178      1.0  0.59891  0.23557  0.50891  1.0000
  H   H109      1.0  0.57502  0.23457  0.50959  1.0000
  H   H110      1.0  0.61567  0.25535  0.55447  1.0000
  H   H111      1.0  0.59508  0.21193  0.53467  1.0000
  C   C179      1.0  0.77579  0.37588  0.41801  1.0000
  C   C180      1.0  0.76638  0.35456  0.34103  1.0000
  C   C181      1.0  0.76623  0.41557  0.33796  1.0000
  N   N32       1.0  0.77427  0.40451  0.41369  1.0000
  C   C182      1.0  0.78177  0.36698  0.50935  1.0000
  H   H112      1.0  0.78286  0.34414  0.51013  1.0000
  H   H113      1.0  0.76198  0.36393  0.55491  1.0000
  H   H114      1.0  0.80539  0.38687  0.53501  1.0000
  C   C183      1.0  0.64125  0.40323  0.41777  1.0000
  C   C184      1.0  0.66253  0.41526  0.34066  1.0000
  C   C185      1.0  0.60152  0.35421  0.33746  1.0000
  N   N33       1.0  0.61255  0.37313  0.41347  1.0000
  C   C186      1.0  0.65019  0.41816  0.50905  1.0000
  H   H115      1.0  0.67306  0.44206  0.50980  1.0000
  H   H116      1.0  0.65319  0.40140  0.55469  1.0000
  H   H117      1.0  0.63034  0.42196  0.53466  1.0000
  C   C187      1.0  0.90677  0.27231  0.41776  1.0000
  C   C188      1.0  0.91852  0.26273  0.34077  1.0000
  C   C189      1.0  0.85765  0.26288  0.33768  1.0000
  N   N34       1.0  0.87667  0.27091  0.41354  1.0000
  C   C190      1.0  0.92171  0.27831  0.50904  1.0000
  H   H118      1.0  0.94558  0.27927  0.50980  1.0000
  H   H119      1.0  0.90493  0.25860  0.55475  1.0000
  H   H120      1.0  0.92558  0.30200  0.53455  1.0000
  C   C191      1.0  0.74465  0.13780  0.41777  1.0000
  C   C192      1.0  0.75422  0.15914  0.34081  1.0000
  C   C193      1.0  0.75427  0.09815  0.33804  1.0000
  N   N35       1.0  0.74608  0.10912  0.41362  1.0000
  C   C194      1.0  0.73841  0.14666  0.50887  1.0000
  H   H121      1.0  0.73742  0.16955  0.50951  1.0000
  H   H122      1.0  0.75801  0.14958  0.55497  1.0000
  H   H123      1.0  0.71466  0.12680  0.53398  1.0000
  C   C195      1.0  0.87923  0.11038  0.41754  1.0000
  C   C196      1.0  0.85804  0.09859  0.34025  1.0000
  C   C197      1.0  0.91908  0.15945  0.33748  1.0000
  N   N36       1.0  0.90796  0.14046  0.41338  1.0000
  C   C198      1.0  0.87024  0.09539  0.50876  1.0000
  H   H124      1.0  0.84733  0.07153  0.50943  1.0000
  H   H125      1.0  0.86729  0.11215  0.55450  1.0000
  H   H126      1.0  0.89005  0.09151  0.53430  1.0000
  C   C199      1.0  0.93847  0.69433  0.34725  1.0000
  C   C200      1.0  0.97297  0.71213  0.36557  1.0000
  H   H127      1.0  0.98397  0.69802  0.37054  1.0000
  C   C201      1.0  0.54763  0.80152  0.36560  1.0000
  C   C202      1.0  0.58211  0.81932  0.34698  1.0000
  H   H128      1.0  0.53663  0.81563  0.37080  1.0000
  C   C203      1.0  0.82277  0.74744  0.34742  1.0000
  C   C204      1.0  0.80500  0.76417  0.36581  1.0000
  H   H129      1.0  0.81914  0.78928  0.37085  1.0000
  C   C205      1.0  0.71564  0.74954  0.36587  1.0000
  C   C206      1.0  0.69786  0.76627  0.34776  1.0000
  H   H130      1.0  0.70150  0.72443  0.37078  1.0000
  C   C207      1.0  0.76973  0.57872  0.34706  1.0000
  C   C208      1.0  0.75302  0.54426  0.36582  1.0000
  H   H131      1.0  0.72794  0.53331  0.37162  1.0000
  C   C209      1.0  0.76755  0.96950  0.36583  1.0000
  C   C210      1.0  0.75080  0.93500  0.34753  1.0000
  H   H132      1.0  0.79265  0.98045  0.37129  1.0000
  C   C211      1.0  0.62182  0.75803  0.26160  1.0000
  N   N37       1.0  0.65151  0.75936  0.26427  1.0000
  H   H133      1.0  0.61654  0.76709  0.20484  1.0000
  C   C212      1.0  0.75924  0.86710  0.26209  1.0000
  N   N38       1.0  0.75769  0.89533  0.26475  1.0000
  H   H134      1.0  0.75000  0.85263  0.20561  1.0000
  C   C213      1.0  0.64994  0.89556  0.26171  1.0000
  N   N39       1.0  0.62164  0.86583  0.26406  1.0000
  H   H135      1.0  0.66438  0.90098  0.20508  1.0000
  C   C214      1.0  0.89884  0.75556  0.26184  1.0000
  N   N40       1.0  0.86915  0.75423  0.26429  1.0000
  H   H136      1.0  0.90416  0.74646  0.20520  1.0000
  C   C215      1.0  0.76145  0.64663  0.26194  1.0000
  N   N41       1.0  0.76296  0.61837  0.26472  1.0000
  H   H137      1.0  0.77076  0.66111  0.20550  1.0000
  C   C216      1.0  0.87067  0.61822  0.26130  1.0000
  N   N42       1.0  0.89901  0.64792  0.26393  1.0000
  H   H138      1.0  0.85625  0.61287  0.20465  1.0000
  C   C217      1.0  0.99225  0.74777  0.36827  1.0000
  C   C218      1.0  0.97291  0.76405  0.36425  1.0000
  C   C219      1.0  0.93820  0.74724  0.34860  1.0000
  C   C220      1.0  0.92199  0.71255  0.33712  1.0000
  H   H139      1.0  0.98393  0.78918  0.36793  1.0000
  H   H140      1.0  0.89672  0.69983  0.32769  1.0000
  C   C221      1.0  0.52835  0.76588  0.36826  1.0000
  C   C222      1.0  0.59857  0.80110  0.33658  1.0000
  C   C223      1.0  0.58239  0.76643  0.34828  1.0000
  C   C224      1.0  0.54768  0.74961  0.36414  1.0000
  H   H141      1.0  0.62383  0.81381  0.32697  1.0000
  H   H142      1.0  0.53668  0.72447  0.36779  1.0000
  C   C225      1.0  0.76936  0.74786  0.36843  1.0000
  C   C226      1.0  0.75304  0.71225  0.36437  1.0000
  C   C227      1.0  0.76981  0.69431  0.34861  1.0000
  C   C228      1.0  0.80449  0.71274  0.33723  1.0000
  H   H143      1.0  0.72790  0.69816  0.36791  1.0000
  H   H144      1.0  0.81718  0.70016  0.32780  1.0000
  C   C229      1.0  0.75128  0.76587  0.36849  1.0000
  C   C230      1.0  0.71611  0.80098  0.33778  1.0000
  C   C231      1.0  0.75080  0.81940  0.34899  1.0000
  C   C232      1.0  0.76759  0.80147  0.36443  1.0000
  H   H145      1.0  0.70342  0.81356  0.32832  1.0000
  H   H146      1.0  0.79274  0.81557  0.36801  1.0000
  C   C233      1.0  0.76932  0.52493  0.36831  1.0000
  C   C234      1.0  0.80493  0.54420  0.36397  1.0000
  C   C235      1.0  0.82286  0.57891  0.34809  1.0000
  C   C236      1.0  0.80442  0.59515  0.33664  1.0000
  H   H147      1.0  0.81902  0.53315  0.36739  1.0000
  H   H148      1.0  0.81700  0.62040  0.32704  1.0000
  C   C237      1.0  0.75125  0.98883  0.36837  1.0000
  C   C238      1.0  0.71610  0.91857  0.33732  1.0000
  C   C239      1.0  0.69769  0.93485  0.34847  1.0000
  C   C240      1.0  0.71564  0.96957  0.36408  1.0000
  H   H149      1.0  0.70351  0.89331  0.32771  1.0000
  H   H150      1.0  0.70157  0.98064  0.36757  1.0000
  C   C241      1.0  0.61384  0.74148  0.41762  1.0000
  C   C242      1.0  0.60210  0.75098  0.34038  1.0000
  C   C243      1.0  0.66299  0.75080  0.33785  1.0000
  N   N43       1.0  0.64394  0.74289  0.41366  1.0000
  C   C244      1.0  0.59891  0.73557  0.50891  1.0000
  H   H151      1.0  0.57502  0.73457  0.50959  1.0000
  H   H152      1.0  0.61567  0.75535  0.55447  1.0000
  H   H153      1.0  0.59508  0.71193  0.53467  1.0000
  C   C245      1.0  0.77579  0.87588  0.41801  1.0000
  C   C246      1.0  0.76638  0.85456  0.34103  1.0000
  C   C247      1.0  0.76623  0.91557  0.33796  1.0000
  N   N44       1.0  0.77427  0.90452  0.41369  1.0000
  C   C248      1.0  0.78177  0.86698  0.50935  1.0000
  H   H154      1.0  0.78286  0.84414  0.51013  1.0000
  H   H155      1.0  0.76198  0.86393  0.55491  1.0000
  H   H156      1.0  0.80539  0.88687  0.53501  1.0000
  C   C249      1.0  0.64125  0.90323  0.41777  1.0000
  C   C250      1.0  0.66253  0.91526  0.34066  1.0000
  C   C251      1.0  0.60152  0.85421  0.33746  1.0000
  N   N45       1.0  0.61255  0.87313  0.41347  1.0000
  C   C252      1.0  0.65019  0.91816  0.50905  1.0000
  H   H157      1.0  0.67306  0.94206  0.50980  1.0000
  H   H158      1.0  0.65319  0.90140  0.55469  1.0000
  H   H159      1.0  0.63033  0.92196  0.53466  1.0000
  C   C253      1.0  0.90677  0.77231  0.41776  1.0000
  C   C254      1.0  0.91852  0.76273  0.34077  1.0000
  C   C255      1.0  0.85765  0.76288  0.33768  1.0000
  N   N46       1.0  0.87667  0.77090  0.41354  1.0000
  C   C256      1.0  0.92171  0.77831  0.50904  1.0000
  H   H160      1.0  0.94557  0.77927  0.50980  1.0000
  H   H161      1.0  0.90493  0.75860  0.55475  1.0000
  H   H162      1.0  0.92558  0.80200  0.53455  1.0000
  C   C257      1.0  0.74465  0.63780  0.41777  1.0000
  C   C258      1.0  0.75422  0.65914  0.34081  1.0000
  C   C259      1.0  0.75426  0.59815  0.33804  1.0000
  N   N47       1.0  0.74608  0.60912  0.41362  1.0000
  C   C260      1.0  0.73841  0.64666  0.50887  1.0000
  H   H163      1.0  0.73742  0.66955  0.50951  1.0000
  H   H164      1.0  0.75801  0.64958  0.55497  1.0000
  H   H165      1.0  0.71466  0.62680  0.53398  1.0000
  C   C261      1.0  0.87923  0.61038  0.41754  1.0000
  C   C262      1.0  0.85803  0.59859  0.34025  1.0000
  C   C263      1.0  0.91908  0.65945  0.33748  1.0000
  N   N48       1.0  0.90796  0.64046  0.41338  1.0000
  C   C264      1.0  0.87024  0.59539  0.50876  1.0000
  H   H166      1.0  0.84733  0.57152  0.50943  1.0000
  H   H167      1.0  0.86729  0.61215  0.55450  1.0000
  H   H168      1.0  0.89005  0.59151  0.53430  1.0000
