data_image0
_chemical_formula_structural       C11H8C2O4C4HCNHNH2NHC2NC3HC5NH2NH2NHNHC14H8C3NC4H2NH2NH2NH2C11H8C2O4C4HCNHNH2NHC2NC3HC5NH2NH2NHNHC14H8C3NC4H2NH2NH2NH2C11H8C2O4C4HCNHNH2NHC2NC3HC5NH2NH2NHNHC14H8C3NC4H2NH2NH2NH2C11H8C2O4C4HCNHNH2NHC2NC3HC5NH2NH2NHNHC14H8C3NC4H2NH2NH2NH2
_chemical_formula_sum              "C196 H144 O16 N48"
_cell_length_a       39.4296
_cell_length_b       39.4296
_cell_length_c       15.0099
_cell_angle_alpha    90
_cell_angle_beta     90
_cell_angle_gamma    90

_space_group_name_H-M_alt    "P 1"
_space_group_IT_number       1

loop_
  _space_group_symop_operation_xyz
  'x, y, z'

loop_
  _atom_site_type_symbol
  _atom_site_label
  _atom_site_symmetry_multiplicity
  _atom_site_fract_x
  _atom_site_fract_y
  _atom_site_fract_z
  _atom_site_occupancy
  C   C1        1.0  0.46668  0.49393  0.00535  1.0000
  C   C2        1.0  0.45674  0.46209  0.04094  1.0000
  C   C3        1.0  0.43253  0.45946  0.10935  1.0000
  C   C4        1.0  0.41744  0.48862  0.14755  1.0000
  C   C5        1.0  0.42871  0.02054  0.11623  1.0000
  C   C6        1.0  0.45322  0.02302  0.04851  1.0000
  C   C7        1.0  0.03735  0.03393  0.02489  1.0000
  C   C8        1.0  0.06500  0.03757  0.08328  1.0000
  C   C9        1.0  0.08147  0.00889  0.11965  1.0000
  C   C10       1.0  0.06763  0.47665  0.10017  1.0000
  C   C11       1.0  0.04012  0.47316  0.04138  1.0000
  H   H1        1.0  0.42589  0.43570  0.13061  1.0000
  H   H2        1.0  0.46715  0.44012  0.01734  1.0000
  H   H3        1.0  0.41849  0.04261  0.13959  1.0000
  H   H4        1.0  0.46072  0.04676  0.02947  1.0000
  H   H5        1.0  0.02631  0.05556  0.00115  1.0000
  H   H6        1.0  0.07366  0.06153  0.09633  1.0000
  H   H7        1.0  0.07759  0.45517  0.12810  1.0000
  H   H8        1.0  0.03129  0.44924  0.02911  1.0000
  C   C12       1.0  0.38971  0.48514  0.20835  1.0000
  C   C13       1.0  0.11192  0.01248  0.17048  1.0000
  O   O1        1.0  0.11752  0.04263  0.21121  1.0000
  O   O2        1.0  0.44898  0.11690  0.31858  1.0000
  O   O3        1.0  0.37107  0.45635  0.20067  1.0000
  O   O4        1.0  0.03399  0.36855  0.35241  1.0000
  C   C14       1.0  0.47854  0.34246  0.26628  1.0000
  C   C15       1.0  0.48365  0.27149  0.26654  1.0000
  C   C16       1.0  0.50663  0.29037  0.21301  1.0000
  C   C17       1.0  0.50333  0.32614  0.21352  1.0000
  H   H9        1.0  0.02096  0.34070  0.18117  1.0000
  C   C18       1.0  0.98357  0.17908  0.25621  1.0000
  N   N1        1.0  0.97978  0.21247  0.23680  1.0000
  H   H10       1.0  0.97607  0.16155  0.21020  1.0000
  N   N2        1.0  0.53236  0.27574  0.16660  1.0000
  H   H11       1.0  0.04792  0.28930  0.13103  1.0000
  H   H12       1.0  0.53535  0.25128  0.16497  1.0000
  N   N3        1.0  0.98056  0.37613  0.28714  1.0000
  H   H13       1.0  0.95948  0.38887  0.28413  1.0000
  C   C19       1.0  0.17096  0.49499  0.18854  1.0000
  C   C20       1.0  0.18024  0.50874  0.27194  1.0000
  N   N4        1.0  0.21342  0.51255  0.29371  1.0000
  C   C21       1.0  0.23929  0.50359  0.23876  1.0000
  C   C22       1.0  0.23204  0.48885  0.15440  1.0000
  C   C23       1.0  0.19755  0.48484  0.13126  1.0000
  H   H14       1.0  0.19158  0.47447  0.07067  1.0000
  C   C24       1.0  0.27278  0.50911  0.26814  1.0000
  C   C25       1.0  0.29015  0.48643  0.32594  1.0000
  C   C26       1.0  0.32594  0.48914  0.33021  1.0000
  C   C27       1.0  0.34375  0.51308  0.27814  1.0000
  C   C28       1.0  0.32466  0.53626  0.22717  1.0000
  N   N5        1.0  0.29063  0.53265  0.22161  1.0000
  H   H15       1.0  0.33638  0.05309  0.18550  1.0000
  H   H16       1.0  0.16227  0.51540  0.31766  1.0000
  N   N6        1.0  0.25631  0.47806  0.09642  1.0000
  H   H17       1.0  0.25031  0.46775  0.03962  1.0000
  H   H18       1.0  0.28029  0.47921  0.11069  1.0000
  N   N7        1.0  0.37783  0.51040  0.26250  1.0000
  H   H19       1.0  0.39037  0.53159  0.26556  1.0000
  N   N8        1.0  0.13801  0.48995  0.16186  1.0000
  H   H20       1.0  0.13456  0.47100  0.12109  1.0000
  C   C29       1.0  0.48274  0.08009  0.40800  1.0000
  C   C30       1.0  0.01482  0.06566  0.42608  1.0000
  C   C31       1.0  0.01836  0.03925  0.48814  1.0000
  C   C32       1.0  0.49020  0.02610  0.53603  1.0000
  C   C33       1.0  0.45777  0.03800  0.50919  1.0000
  C   C34       1.0  0.45408  0.06475  0.44789  1.0000
  C   C35       1.0  0.99487  0.49720  0.60276  1.0000
  C   C36       1.0  0.99768  0.46736  0.53832  1.0000
  C   C37       1.0  0.46834  0.45284  0.49890  1.0000
  C   C38       1.0  0.47049  0.42725  0.43384  1.0000
  C   C39       1.0  0.00226  0.41578  0.40198  1.0000
  C   C40       1.0  0.03162  0.43135  0.43752  1.0000
  C   C41       1.0  0.02934  0.45669  0.50304  1.0000
  C   C42       1.0  0.02536  0.00155  0.66455  1.0000
  H   H21       1.0  0.05144  0.46758  0.52409  1.0000
  H   H22       1.0  0.05526  0.42448  0.41577  1.0000
  H   H23       1.0  0.44836  0.41659  0.41223  1.0000
  H   H24       1.0  0.44472  0.46062  0.51824  1.0000
  H   H25       1.0  0.43621  0.02785  0.53590  1.0000
  H   H26       1.0  0.04226  0.03028  0.49998  1.0000
  H   H27       1.0  0.03623  0.07468  0.39568  1.0000
  H   H28       1.0  0.43019  0.07377  0.43570  1.0000
  C   C43       1.0  0.00555  0.38759  0.34271  1.0000
  C   C44       1.0  0.47952  0.11037  0.35632  1.0000
  C   C45       1.0  0.45513  0.32202  0.31263  1.0000
  N   N9        1.0  0.45939  0.28800  0.31389  1.0000
  C   C46       1.0  0.48970  0.23773  0.29255  1.0000
  C   C47       1.0  0.50536  0.22964  0.37519  1.0000
  C   C48       1.0  0.50934  0.19493  0.39585  1.0000
  C   C49       1.0  0.49815  0.16897  0.33793  1.0000
  H   H29       1.0  0.52029  0.18835  0.45529  1.0000
  H   H30       1.0  0.43782  0.33256  0.35507  1.0000
  N   N10       1.0  0.51682  0.25334  0.43391  1.0000
  H   H31       1.0  0.51542  0.27746  0.42146  1.0000
  H   H32       1.0  0.52766  0.24679  0.48959  1.0000
  N   N11       1.0  0.50297  0.13578  0.36252  1.0000
  H   H33       1.0  0.52238  0.13176  0.40131  1.0000
  H   H34       1.0  0.33952  0.47167  0.36589  1.0000
  N   N12       1.0  0.27421  0.46143  0.37217  1.0000
  H   H35       1.0  0.24974  0.45868  0.37034  1.0000
  H   H36       1.0  0.28681  0.44603  0.41056  1.0000
  C   C50       1.0  0.46668  0.99393  0.00535  1.0000
  C   C51       1.0  0.45674  0.96209  0.04094  1.0000
  C   C52       1.0  0.43253  0.95946  0.10935  1.0000
  C   C53       1.0  0.41744  0.98862  0.14755  1.0000
  C   C54       1.0  0.42871  0.52055  0.11623  1.0000
  C   C55       1.0  0.45322  0.52302  0.04851  1.0000
  C   C56       1.0  0.03735  0.53393  0.02489  1.0000
  C   C57       1.0  0.06500  0.53757  0.08328  1.0000
  C   C58       1.0  0.08147  0.50889  0.11965  1.0000
  C   C59       1.0  0.06763  0.97665  0.10017  1.0000
  C   C60       1.0  0.04012  0.97316  0.04138  1.0000
  H   H37       1.0  0.42589  0.93570  0.13061  1.0000
  H   H38       1.0  0.46715  0.94013  0.01734  1.0000
  H   H39       1.0  0.41849  0.54261  0.13959  1.0000
  H   H40       1.0  0.46072  0.54676  0.02947  1.0000
  H   H41       1.0  0.02631  0.55556  0.00115  1.0000
  H   H42       1.0  0.07366  0.56153  0.09633  1.0000
  H   H43       1.0  0.07759  0.95517  0.12810  1.0000
  H   H44       1.0  0.03129  0.94924  0.02911  1.0000
  C   C61       1.0  0.38971  0.98515  0.20835  1.0000
  C   C62       1.0  0.11192  0.51248  0.17048  1.0000
  O   O5        1.0  0.11752  0.54263  0.21121  1.0000
  O   O6        1.0  0.44898  0.61690  0.31858  1.0000
  O   O7        1.0  0.37107  0.95635  0.20067  1.0000
  O   O8        1.0  0.03399  0.86855  0.35241  1.0000
  C   C63       1.0  0.47854  0.84246  0.26628  1.0000
  C   C64       1.0  0.48365  0.77149  0.26654  1.0000
  C   C65       1.0  0.50663  0.79037  0.21301  1.0000
  C   C66       1.0  0.50333  0.82614  0.21352  1.0000
  H   H45       1.0  0.02096  0.84070  0.18117  1.0000
  C   C67       1.0  0.98357  0.67908  0.25621  1.0000
  N   N13       1.0  0.97978  0.71247  0.23680  1.0000
  H   H46       1.0  0.97607  0.66155  0.21020  1.0000
  N   N14       1.0  0.53236  0.77574  0.16660  1.0000
  H   H47       1.0  0.04792  0.78930  0.13103  1.0000
  H   H48       1.0  0.53535  0.75128  0.16497  1.0000
  N   N15       1.0  0.98056  0.87613  0.28714  1.0000
  H   H49       1.0  0.95948  0.88887  0.28413  1.0000
  C   C68       1.0  0.17096  0.99499  0.18854  1.0000
  C   C69       1.0  0.18024  0.00874  0.27194  1.0000
  N   N16       1.0  0.21342  0.01255  0.29371  1.0000
  C   C70       1.0  0.23929  0.00358  0.23876  1.0000
  C   C71       1.0  0.23204  0.98884  0.15440  1.0000
  C   C72       1.0  0.19755  0.98484  0.13126  1.0000
  H   H50       1.0  0.19158  0.97448  0.07067  1.0000
  C   C73       1.0  0.27278  0.00911  0.26814  1.0000
  C   C74       1.0  0.29015  0.98643  0.32594  1.0000
  C   C75       1.0  0.32594  0.98914  0.33021  1.0000
  C   C76       1.0  0.34375  0.01308  0.27814  1.0000
  C   C77       1.0  0.32466  0.03626  0.22717  1.0000
  N   N17       1.0  0.29063  0.03265  0.22161  1.0000
  H   H51       1.0  0.33638  0.55309  0.18550  1.0000
  H   H52       1.0  0.16227  0.01540  0.31766  1.0000
  N   N18       1.0  0.25631  0.97806  0.09642  1.0000
  H   H53       1.0  0.25031  0.96776  0.03962  1.0000
  H   H54       1.0  0.28029  0.97921  0.11069  1.0000
  N   N19       1.0  0.37783  0.01040  0.26250  1.0000
  H   H55       1.0  0.39037  0.03159  0.26556  1.0000
  N   N20       1.0  0.13801  0.98995  0.16186  1.0000
  H   H56       1.0  0.13456  0.97100  0.12109  1.0000
  C   C78       1.0  0.48274  0.58009  0.40800  1.0000
  C   C79       1.0  0.01482  0.56566  0.42608  1.0000
  C   C80       1.0  0.01836  0.53925  0.48814  1.0000
  C   C81       1.0  0.49020  0.52610  0.53603  1.0000
  C   C82       1.0  0.45777  0.53800  0.50919  1.0000
  C   C83       1.0  0.45408  0.56475  0.44789  1.0000
  C   C84       1.0  0.99487  0.99721  0.60276  1.0000
  C   C85       1.0  0.99768  0.96736  0.53832  1.0000
  C   C86       1.0  0.46834  0.95284  0.49890  1.0000
  C   C87       1.0  0.47049  0.92725  0.43384  1.0000
  C   C88       1.0  0.00226  0.91578  0.40198  1.0000
  C   C89       1.0  0.03162  0.93135  0.43752  1.0000
  C   C90       1.0  0.02934  0.95668  0.50304  1.0000
  C   C91       1.0  0.02536  0.50155  0.66455  1.0000
  H   H57       1.0  0.05144  0.96757  0.52409  1.0000
  H   H58       1.0  0.05526  0.92448  0.41577  1.0000
  H   H59       1.0  0.44836  0.91660  0.41223  1.0000
  H   H60       1.0  0.44472  0.96062  0.51824  1.0000
  H   H61       1.0  0.43621  0.52785  0.53590  1.0000
  H   H62       1.0  0.04226  0.53028  0.49998  1.0000
  H   H63       1.0  0.03623  0.57468  0.39568  1.0000
  H   H64       1.0  0.43019  0.57377  0.43570  1.0000
  C   C92       1.0  0.00555  0.88760  0.34271  1.0000
  C   C93       1.0  0.47952  0.61037  0.35632  1.0000
  C   C94       1.0  0.45513  0.82203  0.31263  1.0000
  N   N21       1.0  0.45939  0.78800  0.31389  1.0000
  C   C95       1.0  0.48970  0.73774  0.29255  1.0000
  C   C96       1.0  0.50536  0.72964  0.37519  1.0000
  C   C97       1.0  0.50934  0.69494  0.39585  1.0000
  C   C98       1.0  0.49815  0.66897  0.33793  1.0000
  H   H65       1.0  0.52029  0.68834  0.45529  1.0000
  H   H66       1.0  0.43782  0.83256  0.35507  1.0000
  N   N22       1.0  0.51682  0.75334  0.43391  1.0000
  H   H67       1.0  0.51542  0.77747  0.42146  1.0000
  H   H68       1.0  0.52766  0.74679  0.48959  1.0000
  N   N23       1.0  0.50297  0.63578  0.36252  1.0000
  H   H69       1.0  0.52238  0.63176  0.40131  1.0000
  H   H70       1.0  0.33952  0.97168  0.36589  1.0000
  N   N24       1.0  0.27421  0.96143  0.37217  1.0000
  H   H71       1.0  0.24974  0.95868  0.37034  1.0000
  H   H72       1.0  0.28681  0.94603  0.41056  1.0000
  C   C99       1.0  0.96668  0.49393  0.00535  1.0000
  C   C100      1.0  0.95674  0.46209  0.04094  1.0000
  C   C101      1.0  0.93253  0.45946  0.10935  1.0000
  C   C102      1.0  0.91744  0.48862  0.14755  1.0000
  C   C103      1.0  0.92871  0.02054  0.11623  1.0000
  C   C104      1.0  0.95322  0.02302  0.04851  1.0000
  C   C105      1.0  0.53735  0.03393  0.02489  1.0000
  C   C106      1.0  0.56500  0.03757  0.08328  1.0000
  C   C107      1.0  0.58147  0.00889  0.11965  1.0000
  C   C108      1.0  0.56763  0.47665  0.10017  1.0000
  C   C109      1.0  0.54012  0.47316  0.04138  1.0000
  H   H73       1.0  0.92589  0.43570  0.13061  1.0000
  H   H74       1.0  0.96715  0.44012  0.01734  1.0000
  H   H75       1.0  0.91849  0.04261  0.13959  1.0000
  H   H76       1.0  0.96072  0.04676  0.02947  1.0000
  H   H77       1.0  0.52631  0.05556  0.00115  1.0000
  H   H78       1.0  0.57366  0.06153  0.09633  1.0000
  H   H79       1.0  0.57759  0.45517  0.12810  1.0000
  H   H80       1.0  0.53129  0.44924  0.02911  1.0000
  C   C110      1.0  0.88970  0.48514  0.20835  1.0000
  C   C111      1.0  0.61192  0.01248  0.17048  1.0000
  O   O9        1.0  0.61752  0.04263  0.21121  1.0000
  O   O10       1.0  0.94898  0.11690  0.31858  1.0000
  O   O11       1.0  0.87107  0.45635  0.20067  1.0000
  O   O12       1.0  0.53399  0.36855  0.35241  1.0000
  C   C112      1.0  0.97854  0.34246  0.26628  1.0000
  C   C113      1.0  0.98365  0.27149  0.26654  1.0000
  C   C114      1.0  0.00663  0.29037  0.21301  1.0000
  C   C115      1.0  0.00333  0.32614  0.21352  1.0000
  H   H81       1.0  0.52096  0.34070  0.18117  1.0000
  C   C116      1.0  0.48357  0.17908  0.25621  1.0000
  N   N25       1.0  0.47978  0.21247  0.23680  1.0000
  H   H82       1.0  0.47607  0.16155  0.21020  1.0000
  N   N26       1.0  0.03236  0.27574  0.16660  1.0000
  H   H83       1.0  0.54792  0.28930  0.13103  1.0000
  H   H84       1.0  0.03535  0.25128  0.16497  1.0000
  N   N27       1.0  0.48056  0.37613  0.28714  1.0000
  H   H85       1.0  0.45948  0.38887  0.28413  1.0000
  C   C117      1.0  0.67096  0.49499  0.18854  1.0000
  C   C118      1.0  0.68024  0.50874  0.27194  1.0000
  N   N28       1.0  0.71342  0.51255  0.29371  1.0000
  C   C119      1.0  0.73929  0.50359  0.23876  1.0000
  C   C120      1.0  0.73204  0.48885  0.15440  1.0000
  C   C121      1.0  0.69755  0.48484  0.13126  1.0000
  H   H86       1.0  0.69158  0.47447  0.07067  1.0000
  C   C122      1.0  0.77278  0.50911  0.26814  1.0000
  C   C123      1.0  0.79015  0.48643  0.32594  1.0000
  C   C124      1.0  0.82594  0.48914  0.33021  1.0000
  C   C125      1.0  0.84375  0.51308  0.27814  1.0000
  C   C126      1.0  0.82466  0.53626  0.22717  1.0000
  N   N29       1.0  0.79063  0.53265  0.22161  1.0000
  H   H87       1.0  0.83638  0.05309  0.18550  1.0000
  H   H88       1.0  0.66227  0.51540  0.31766  1.0000
  N   N30       1.0  0.75631  0.47806  0.09642  1.0000
  H   H89       1.0  0.75031  0.46775  0.03962  1.0000
  H   H90       1.0  0.78029  0.47921  0.11069  1.0000
  N   N31       1.0  0.87782  0.51040  0.26250  1.0000
  H   H91       1.0  0.89037  0.53159  0.26556  1.0000
  N   N32       1.0  0.63801  0.48995  0.16186  1.0000
  H   H92       1.0  0.63456  0.47100  0.12109  1.0000
  C   C127      1.0  0.98274  0.08009  0.40800  1.0000
  C   C128      1.0  0.51482  0.06566  0.42608  1.0000
  C   C129      1.0  0.51836  0.03925  0.48814  1.0000
  C   C130      1.0  0.99020  0.02610  0.53603  1.0000
  C   C131      1.0  0.95777  0.03800  0.50919  1.0000
  C   C132      1.0  0.95408  0.06475  0.44789  1.0000
  C   C133      1.0  0.49487  0.49720  0.60276  1.0000
  C   C134      1.0  0.49768  0.46736  0.53832  1.0000
  C   C135      1.0  0.96834  0.45284  0.49890  1.0000
  C   C136      1.0  0.97049  0.42725  0.43384  1.0000
  C   C137      1.0  0.50226  0.41578  0.40198  1.0000
  C   C138      1.0  0.53162  0.43135  0.43752  1.0000
  C   C139      1.0  0.52934  0.45669  0.50304  1.0000
  C   C140      1.0  0.52536  0.00155  0.66455  1.0000
  H   H93       1.0  0.55144  0.46758  0.52409  1.0000
  H   H94       1.0  0.55526  0.42448  0.41577  1.0000
  H   H95       1.0  0.94836  0.41659  0.41223  1.0000
  H   H96       1.0  0.94472  0.46062  0.51824  1.0000
  H   H97       1.0  0.93621  0.02785  0.53590  1.0000
  H   H98       1.0  0.54226  0.03028  0.49998  1.0000
  H   H99       1.0  0.53622  0.07468  0.39568  1.0000
  H   H100      1.0  0.93019  0.07377  0.43570  1.0000
  C   C141      1.0  0.50555  0.38759  0.34271  1.0000
  C   C142      1.0  0.97952  0.11037  0.35632  1.0000
  C   C143      1.0  0.95513  0.32202  0.31263  1.0000
  N   N33       1.0  0.95939  0.28800  0.31389  1.0000
  C   C144      1.0  0.98970  0.23773  0.29255  1.0000
  C   C145      1.0  0.00536  0.22964  0.37519  1.0000
  C   C146      1.0  0.00934  0.19493  0.39585  1.0000
  C   C147      1.0  0.99816  0.16897  0.33793  1.0000
  H   H101      1.0  0.02029  0.18835  0.45529  1.0000
  H   H102      1.0  0.93782  0.33256  0.35507  1.0000
  N   N34       1.0  0.01682  0.25334  0.43391  1.0000
  H   H103      1.0  0.01542  0.27746  0.42146  1.0000
  H   H104      1.0  0.02765  0.24679  0.48959  1.0000
  N   N35       1.0  0.00297  0.13578  0.36252  1.0000
  H   H105      1.0  0.02238  0.13176  0.40131  1.0000
  H   H106      1.0  0.83952  0.47167  0.36589  1.0000
  N   N36       1.0  0.77421  0.46143  0.37217  1.0000
  H   H107      1.0  0.74974  0.45868  0.37034  1.0000
  H   H108      1.0  0.78681  0.44603  0.41056  1.0000
  C   C148      1.0  0.96668  0.99393  0.00535  1.0000
  C   C149      1.0  0.95674  0.96209  0.04094  1.0000
  C   C150      1.0  0.93253  0.95946  0.10935  1.0000
  C   C151      1.0  0.91744  0.98862  0.14755  1.0000
  C   C152      1.0  0.92871  0.52055  0.11623  1.0000
  C   C153      1.0  0.95322  0.52302  0.04851  1.0000
  C   C154      1.0  0.53735  0.53393  0.02489  1.0000
  C   C155      1.0  0.56500  0.53757  0.08328  1.0000
  C   C156      1.0  0.58147  0.50889  0.11965  1.0000
  C   C157      1.0  0.56763  0.97665  0.10017  1.0000
  C   C158      1.0  0.54012  0.97316  0.04138  1.0000
  H   H109      1.0  0.92589  0.93570  0.13061  1.0000
  H   H110      1.0  0.96715  0.94013  0.01734  1.0000
  H   H111      1.0  0.91849  0.54261  0.13959  1.0000
  H   H112      1.0  0.96072  0.54676  0.02947  1.0000
  H   H113      1.0  0.52631  0.55556  0.00115  1.0000
  H   H114      1.0  0.57366  0.56153  0.09633  1.0000
  H   H115      1.0  0.57759  0.95517  0.12810  1.0000
  H   H116      1.0  0.53129  0.94924  0.02911  1.0000
  C   C159      1.0  0.88970  0.98515  0.20835  1.0000
  C   C160      1.0  0.61192  0.51248  0.17048  1.0000
  O   O13       1.0  0.61752  0.54263  0.21121  1.0000
  O   O14       1.0  0.94898  0.61690  0.31858  1.0000
  O   O15       1.0  0.87107  0.95635  0.20067  1.0000
  O   O16       1.0  0.53399  0.86855  0.35241  1.0000
  C   C161      1.0  0.97854  0.84246  0.26628  1.0000
  C   C162      1.0  0.98365  0.77149  0.26654  1.0000
  C   C163      1.0  0.00663  0.79037  0.21301  1.0000
  C   C164      1.0  0.00333  0.82614  0.21352  1.0000
  H   H117      1.0  0.52096  0.84070  0.18117  1.0000
  C   C165      1.0  0.48357  0.67908  0.25621  1.0000
  N   N37       1.0  0.47978  0.71247  0.23680  1.0000
  H   H118      1.0  0.47607  0.66155  0.21020  1.0000
  N   N38       1.0  0.03236  0.77574  0.16660  1.0000
  H   H119      1.0  0.54792  0.78930  0.13103  1.0000
  H   H120      1.0  0.03535  0.75128  0.16497  1.0000
  N   N39       1.0  0.48056  0.87613  0.28714  1.0000
  H   H121      1.0  0.45948  0.88887  0.28413  1.0000
  C   C166      1.0  0.67096  0.99499  0.18854  1.0000
  C   C167      1.0  0.68024  0.00874  0.27194  1.0000
  N   N40       1.0  0.71342  0.01255  0.29371  1.0000
  C   C168      1.0  0.73929  0.00358  0.23876  1.0000
  C   C169      1.0  0.73204  0.98884  0.15440  1.0000
  C   C170      1.0  0.69755  0.98484  0.13126  1.0000
  H   H122      1.0  0.69158  0.97448  0.07067  1.0000
  C   C171      1.0  0.77278  0.00911  0.26814  1.0000
  C   C172      1.0  0.79015  0.98643  0.32594  1.0000
  C   C173      1.0  0.82594  0.98914  0.33021  1.0000
  C   C174      1.0  0.84375  0.01308  0.27814  1.0000
  C   C175      1.0  0.82466  0.03626  0.22717  1.0000
  N   N41       1.0  0.79063  0.03265  0.22161  1.0000
  H   H123      1.0  0.83638  0.55309  0.18550  1.0000
  H   H124      1.0  0.66227  0.01540  0.31766  1.0000
  N   N42       1.0  0.75631  0.97806  0.09642  1.0000
  H   H125      1.0  0.75031  0.96776  0.03962  1.0000
  H   H126      1.0  0.78029  0.97921  0.11069  1.0000
  N   N43       1.0  0.87782  0.01040  0.26250  1.0000
  H   H127      1.0  0.89037  0.03159  0.26556  1.0000
  N   N44       1.0  0.63801  0.98995  0.16186  1.0000
  H   H128      1.0  0.63456  0.97100  0.12109  1.0000
  C   C176      1.0  0.98274  0.58009  0.40800  1.0000
  C   C177      1.0  0.51482  0.56566  0.42608  1.0000
  C   C178      1.0  0.51836  0.53925  0.48814  1.0000
  C   C179      1.0  0.99020  0.52610  0.53603  1.0000
  C   C180      1.0  0.95777  0.53800  0.50919  1.0000
  C   C181      1.0  0.95408  0.56475  0.44789  1.0000
  C   C182      1.0  0.49487  0.99721  0.60276  1.0000
  C   C183      1.0  0.49768  0.96736  0.53832  1.0000
  C   C184      1.0  0.96834  0.95284  0.49890  1.0000
  C   C185      1.0  0.97049  0.92725  0.43384  1.0000
  C   C186      1.0  0.50226  0.91578  0.40198  1.0000
  C   C187      1.0  0.53162  0.93135  0.43752  1.0000
  C   C188      1.0  0.52934  0.95668  0.50304  1.0000
  C   C189      1.0  0.52536  0.50155  0.66455  1.0000
  H   H129      1.0  0.55144  0.96757  0.52409  1.0000
  H   H130      1.0  0.55526  0.92448  0.41577  1.0000
  H   H131      1.0  0.94836  0.91660  0.41223  1.0000
  H   H132      1.0  0.94472  0.96062  0.51824  1.0000
  H   H133      1.0  0.93621  0.52785  0.53590  1.0000
  H   H134      1.0  0.54226  0.53028  0.49998  1.0000
  H   H135      1.0  0.53622  0.57468  0.39568  1.0000
  H   H136      1.0  0.93019  0.57377  0.43570  1.0000
  C   C190      1.0  0.50555  0.88760  0.34271  1.0000
  C   C191      1.0  0.97952  0.61037  0.35632  1.0000
  C   C192      1.0  0.95513  0.82203  0.31263  1.0000
  N   N45       1.0  0.95939  0.78800  0.31389  1.0000
  C   C193      1.0  0.98970  0.73774  0.29255  1.0000
  C   C194      1.0  0.00536  0.72964  0.37519  1.0000
  C   C195      1.0  0.00934  0.69494  0.39585  1.0000
  C   C196      1.0  0.99816  0.66897  0.33793  1.0000
  H   H137      1.0  0.02029  0.68834  0.45529  1.0000
  H   H138      1.0  0.93782  0.83256  0.35507  1.0000
  N   N46       1.0  0.01682  0.75334  0.43391  1.0000
  H   H139      1.0  0.01542  0.77747  0.42146  1.0000
  H   H140      1.0  0.02765  0.74679  0.48959  1.0000
  N   N47       1.0  0.00297  0.63578  0.36252  1.0000
  H   H141      1.0  0.02238  0.63176  0.40131  1.0000
  H   H142      1.0  0.83952  0.97168  0.36589  1.0000
  N   N48       1.0  0.77421  0.96143  0.37217  1.0000
  H   H143      1.0  0.74974  0.95868  0.37034  1.0000
  H   H144      1.0  0.78681  0.94603  0.41056  1.0000
