data_image0
_chemical_formula_structural       C3HCH3C3HCH3C3HCH3NC18H12NC18H12C3HCH3C3HCH3C3HCH3C3HCH3C3HCH3C3HCH3NC18H12NC18H12C3HCH3C3HCH3C3HCH3C3HCH3C3HCH3C3HCH3NC18H12NC18H12C3HCH3C3HCH3C3HCH3C3HCH3C3HCH3C3HCH3NC18H12NC18H12C3HCH3C3HCH3C3HCH3
_chemical_formula_sum              "C240 H192 N8"
_cell_length_a       50.4307
_cell_length_b       50.4307
_cell_length_c       14.5828
_cell_angle_alpha    90
_cell_angle_beta     90
_cell_angle_gamma    120

_space_group_name_H-M_alt    "P 1"
_space_group_IT_number       1

loop_
  _space_group_symop_operation_xyz
  'x, y, z'

loop_
  _atom_site_type_symbol
  _atom_site_label
  _atom_site_symmetry_multiplicity
  _atom_site_fract_x
  _atom_site_fract_y
  _atom_site_fract_z
  _atom_site_occupancy
  C   C1        1.0  0.25352  0.27984  0.35888  1.0000
  C   C2        1.0  0.25396  0.26189  0.28366  1.0000
  C   C3        1.0  0.27186  0.24728  0.28877  1.0000
  H   H1        1.0  0.27125  0.23410  0.23435  1.0000
  C   C4        1.0  0.23515  0.25593  0.19924  1.0000
  H   H2        1.0  0.21858  0.26370  0.20421  1.0000
  H   H3        1.0  0.22212  0.23136  0.18542  1.0000
  H   H4        1.0  0.25016  0.26735  0.14096  1.0000
  C   C5        1.0  0.25594  0.48084  0.35891  1.0000
  C   C6        1.0  0.27383  0.49922  0.28360  1.0000
  C   C7        1.0  0.28844  0.03174  0.28873  1.0000
  H   H5        1.0  0.30158  0.04431  0.23426  1.0000
  C   C8        1.0  0.27973  0.48637  0.19910  1.0000
  H   H6        1.0  0.27199  0.46204  0.20406  1.0000
  H   H7        1.0  0.30429  0.49792  0.18510  1.0000
  H   H8        1.0  0.26826  0.48995  0.14092  1.0000
  C   C9        1.0  0.05493  0.28224  0.35888  1.0000
  C   C10       1.0  0.03654  0.28174  0.28357  1.0000
  C   C11       1.0  0.50402  0.26384  0.28870  1.0000
  H   H9        1.0  0.49145  0.26440  0.23422  1.0000
  C   C12       1.0  0.04939  0.30048  0.19903  1.0000
  H   H10       1.0  0.07373  0.31707  0.20397  1.0000
  H   H11       1.0  0.03784  0.31348  0.18499  1.0000
  H   H12       1.0  0.04581  0.28541  0.14089  1.0000
  N   N1        1.0  0.18813  0.34764  0.36209  1.0000
  C   C13       1.0  0.20463  0.33103  0.36165  1.0000
  C   C14       1.0  0.20474  0.38075  0.36164  1.0000
  C   C15       1.0  0.15502  0.33114  0.36165  1.0000
  C   C16       1.0  0.13806  0.31076  0.28990  1.0000
  C   C17       1.0  0.10562  0.29459  0.28958  1.0000
  C   C18       1.0  0.08831  0.29860  0.35945  1.0000
  C   C19       1.0  0.10549  0.31876  0.43181  1.0000
  C   C20       1.0  0.13792  0.33453  0.43303  1.0000
  C   C21       1.0  0.22497  0.33442  0.28984  1.0000
  C   C22       1.0  0.24113  0.31814  0.28950  1.0000
  C   C23       1.0  0.23716  0.29686  0.35944  1.0000
  C   C24       1.0  0.21703  0.29391  0.43188  1.0000
  C   C25       1.0  0.20127  0.31058  0.43309  1.0000
  C   C26       1.0  0.22521  0.39784  0.43305  1.0000
  C   C27       1.0  0.24188  0.43028  0.43184  1.0000
  C   C28       1.0  0.23890  0.44745  0.35947  1.0000
  C   C29       1.0  0.21760  0.43015  0.28956  1.0000
  C   C30       1.0  0.20132  0.39771  0.28989  1.0000
  H   H13       1.0  0.25597  0.32190  0.23664  1.0000
  H   H14       1.0  0.22834  0.34918  0.23713  1.0000
  H   H15       1.0  0.18686  0.30747  0.48659  1.0000
  H   H16       1.0  0.21331  0.27903  0.48461  1.0000
  H   H17       1.0  0.14945  0.30736  0.23727  1.0000
  H   H18       1.0  0.09454  0.27972  0.23678  1.0000
  H   H19       1.0  0.22834  0.38654  0.48649  1.0000
  H   H20       1.0  0.25679  0.44143  0.48451  1.0000
  H   H21       1.0  0.21382  0.44122  0.23675  1.0000
  H   H22       1.0  0.18655  0.38632  0.23722  1.0000
  H   H23       1.0  0.14922  0.34897  0.48647  1.0000
  H   H24       1.0  0.09433  0.32252  0.48447  1.0000
  N   N2        1.0  0.35479  0.18097  0.36354  1.0000
  C   C31       1.0  0.33829  0.19759  0.36397  1.0000
  C   C32       1.0  0.33817  0.14786  0.36399  1.0000
  C   C33       1.0  0.38790  0.19747  0.36397  1.0000
  C   C34       1.0  0.40486  0.21786  0.43569  1.0000
  C   C35       1.0  0.43730  0.23402  0.43603  1.0000
  C   C36       1.0  0.45461  0.23000  0.36617  1.0000
  C   C37       1.0  0.43743  0.20983  0.29381  1.0000
  C   C38       1.0  0.40499  0.19408  0.29259  1.0000
  C   C39       1.0  0.31794  0.19420  0.43576  1.0000
  C   C40       1.0  0.30179  0.21048  0.43610  1.0000
  C   C41       1.0  0.30576  0.23175  0.36614  1.0000
  C   C42       1.0  0.32590  0.23472  0.29372  1.0000
  C   C43       1.0  0.34166  0.21804  0.29252  1.0000
  C   C44       1.0  0.31771  0.13078  0.29258  1.0000
  C   C45       1.0  0.30102  0.09834  0.29379  1.0000
  C   C46       1.0  0.30400  0.08116  0.36617  1.0000
  C   C47       1.0  0.32531  0.09846  0.43606  1.0000
  C   C48       1.0  0.34159  0.13090  0.43572  1.0000
  H   H25       1.0  0.28694  0.20672  0.48895  1.0000
  H   H26       1.0  0.31457  0.17944  0.48847  1.0000
  H   H27       1.0  0.35607  0.22115  0.23904  1.0000
  H   H28       1.0  0.32963  0.24960  0.24100  1.0000
  H   H29       1.0  0.39347  0.22126  0.48835  1.0000
  H   H30       1.0  0.44838  0.24889  0.48882  1.0000
  H   H31       1.0  0.31456  0.14208  0.23915  1.0000
  H   H32       1.0  0.28612  0.08719  0.24114  1.0000
  H   H33       1.0  0.32910  0.08739  0.48887  1.0000
  H   H34       1.0  0.35637  0.14229  0.48839  1.0000
  H   H35       1.0  0.39369  0.17963  0.23917  1.0000
  H   H36       1.0  0.44858  0.20607  0.24116  1.0000
  C   C49       1.0  0.28942  0.24880  0.36669  1.0000
  C   C50       1.0  0.28898  0.26675  0.44192  1.0000
  C   C51       1.0  0.27107  0.28136  0.43681  1.0000
  H   H37       1.0  0.27167  0.29452  0.49126  1.0000
  C   C52       1.0  0.30776  0.27267  0.52638  1.0000
  H   H38       1.0  0.32434  0.26491  0.52141  1.0000
  H   H39       1.0  0.29273  0.26122  0.58461  1.0000
  H   H40       1.0  0.32078  0.29723  0.54031  1.0000
  C   C53       1.0  0.28696  0.04778  0.36672  1.0000
  C   C54       1.0  0.26906  0.02939  0.44201  1.0000
  C   C55       1.0  0.25446  0.49687  0.43689  1.0000
  H   H41       1.0  0.24133  0.48430  0.49139  1.0000
  C   C56       1.0  0.26319  0.04225  0.52657  1.0000
  H   H42       1.0  0.27093  0.06658  0.52161  1.0000
  H   H43       1.0  0.27468  0.03866  0.58469  1.0000
  H   H44       1.0  0.23864  0.03070  0.54065  1.0000
  C   C57       1.0  0.48799  0.24635  0.36673  1.0000
  C   C58       1.0  0.50638  0.24684  0.44204  1.0000
  C   C59       1.0  0.03889  0.26475  0.43690  1.0000
  H   H45       1.0  0.05146  0.26420  0.49142  1.0000
  C   C60       1.0  0.49352  0.22813  0.52662  1.0000
  H   H46       1.0  0.46918  0.21154  0.52169  1.0000
  H   H47       1.0  0.49711  0.24322  0.58471  1.0000
  H   H48       1.0  0.50507  0.21513  0.54075  1.0000
  C   C61       1.0  0.25352  0.77983  0.35888  1.0000
  C   C62       1.0  0.25396  0.76189  0.28366  1.0000
  C   C63       1.0  0.27186  0.74728  0.28877  1.0000
  H   H49       1.0  0.27125  0.73410  0.23435  1.0000
  C   C64       1.0  0.23515  0.75593  0.19924  1.0000
  H   H50       1.0  0.21858  0.76370  0.20421  1.0000
  H   H51       1.0  0.22212  0.73137  0.18542  1.0000
  H   H52       1.0  0.25016  0.76735  0.14096  1.0000
  C   C65       1.0  0.25594  0.98084  0.35891  1.0000
  C   C66       1.0  0.27383  0.99922  0.28360  1.0000
  C   C67       1.0  0.28844  0.53174  0.28873  1.0000
  H   H53       1.0  0.30158  0.54431  0.23426  1.0000
  C   C68       1.0  0.27973  0.98637  0.19910  1.0000
  H   H54       1.0  0.27199  0.96203  0.20406  1.0000
  H   H55       1.0  0.30429  0.99792  0.18510  1.0000
  H   H56       1.0  0.26826  0.98995  0.14092  1.0000
  C   C69       1.0  0.05493  0.78224  0.35888  1.0000
  C   C70       1.0  0.03654  0.78174  0.28357  1.0000
  C   C71       1.0  0.50402  0.76384  0.28870  1.0000
  H   H57       1.0  0.49145  0.76440  0.23422  1.0000
  C   C72       1.0  0.04939  0.80048  0.19903  1.0000
  H   H58       1.0  0.07373  0.81706  0.20397  1.0000
  H   H59       1.0  0.03784  0.81348  0.18499  1.0000
  H   H60       1.0  0.04581  0.78541  0.14089  1.0000
  N   N3        1.0  0.18813  0.84764  0.36209  1.0000
  C   C73       1.0  0.20463  0.83103  0.36165  1.0000
  C   C74       1.0  0.20474  0.88075  0.36164  1.0000
  C   C75       1.0  0.15501  0.83114  0.36165  1.0000
  C   C76       1.0  0.13806  0.81076  0.28990  1.0000
  C   C77       1.0  0.10562  0.79459  0.28958  1.0000
  C   C78       1.0  0.08831  0.79860  0.35945  1.0000
  C   C79       1.0  0.10549  0.81876  0.43181  1.0000
  C   C80       1.0  0.13792  0.83453  0.43303  1.0000
  C   C81       1.0  0.22497  0.83442  0.28984  1.0000
  C   C82       1.0  0.24113  0.81814  0.28950  1.0000
  C   C83       1.0  0.23716  0.79686  0.35944  1.0000
  C   C84       1.0  0.21703  0.79391  0.43188  1.0000
  C   C85       1.0  0.20127  0.81058  0.43309  1.0000
  C   C86       1.0  0.22521  0.89784  0.43305  1.0000
  C   C87       1.0  0.24188  0.93028  0.43184  1.0000
  C   C88       1.0  0.23890  0.94745  0.35947  1.0000
  C   C89       1.0  0.21760  0.93015  0.28956  1.0000
  C   C90       1.0  0.20132  0.89771  0.28989  1.0000
  H   H61       1.0  0.25597  0.82190  0.23664  1.0000
  H   H62       1.0  0.22834  0.84918  0.23713  1.0000
  H   H63       1.0  0.18686  0.80747  0.48659  1.0000
  H   H64       1.0  0.21331  0.77903  0.48461  1.0000
  H   H65       1.0  0.14945  0.80736  0.23727  1.0000
  H   H66       1.0  0.09454  0.77972  0.23678  1.0000
  H   H67       1.0  0.22834  0.88654  0.48649  1.0000
  H   H68       1.0  0.25679  0.94143  0.48451  1.0000
  H   H69       1.0  0.21382  0.94122  0.23675  1.0000
  H   H70       1.0  0.18655  0.88632  0.23722  1.0000
  H   H71       1.0  0.14922  0.84896  0.48647  1.0000
  H   H72       1.0  0.09433  0.82252  0.48447  1.0000
  N   N4        1.0  0.35479  0.68097  0.36354  1.0000
  C   C91       1.0  0.33829  0.69759  0.36397  1.0000
  C   C92       1.0  0.33817  0.64786  0.36399  1.0000
  C   C93       1.0  0.38790  0.69747  0.36397  1.0000
  C   C94       1.0  0.40486  0.71786  0.43569  1.0000
  C   C95       1.0  0.43730  0.73402  0.43603  1.0000
  C   C96       1.0  0.45460  0.73000  0.36617  1.0000
  C   C97       1.0  0.43743  0.70983  0.29381  1.0000
  C   C98       1.0  0.40499  0.69408  0.29259  1.0000
  C   C99       1.0  0.31794  0.69420  0.43576  1.0000
  C   C100      1.0  0.30179  0.71048  0.43610  1.0000
  C   C101      1.0  0.30576  0.73176  0.36614  1.0000
  C   C102      1.0  0.32590  0.73472  0.29372  1.0000
  C   C103      1.0  0.34166  0.71804  0.29252  1.0000
  C   C104      1.0  0.31771  0.63078  0.29258  1.0000
  C   C105      1.0  0.30102  0.59834  0.29379  1.0000
  C   C106      1.0  0.30400  0.58116  0.36617  1.0000
  C   C107      1.0  0.32531  0.59846  0.43606  1.0000
  C   C108      1.0  0.34159  0.63090  0.43572  1.0000
  H   H73       1.0  0.28694  0.70672  0.48895  1.0000
  H   H74       1.0  0.31457  0.67944  0.48847  1.0000
  H   H75       1.0  0.35607  0.72115  0.23904  1.0000
  H   H76       1.0  0.32963  0.74960  0.24100  1.0000
  H   H77       1.0  0.39347  0.72125  0.48835  1.0000
  H   H78       1.0  0.44838  0.74888  0.48882  1.0000
  H   H79       1.0  0.31456  0.64208  0.23915  1.0000
  H   H80       1.0  0.28612  0.58719  0.24114  1.0000
  H   H81       1.0  0.32910  0.58738  0.48887  1.0000
  H   H82       1.0  0.35637  0.64229  0.48839  1.0000
  H   H83       1.0  0.39369  0.67963  0.23917  1.0000
  H   H84       1.0  0.44858  0.70607  0.24116  1.0000
  C   C109      1.0  0.28942  0.74880  0.36669  1.0000
  C   C110      1.0  0.28898  0.76675  0.44192  1.0000
  C   C111      1.0  0.27107  0.78135  0.43681  1.0000
  H   H85       1.0  0.27167  0.79452  0.49126  1.0000
  C   C112      1.0  0.30776  0.77267  0.52638  1.0000
  H   H86       1.0  0.32434  0.76491  0.52141  1.0000
  H   H87       1.0  0.29273  0.76122  0.58461  1.0000
  H   H88       1.0  0.32078  0.79723  0.54031  1.0000
  C   C113      1.0  0.28696  0.54778  0.36672  1.0000
  C   C114      1.0  0.26906  0.52939  0.44201  1.0000
  C   C115      1.0  0.25445  0.99687  0.43689  1.0000
  H   H89       1.0  0.24133  0.98430  0.49139  1.0000
  C   C116      1.0  0.26319  0.54225  0.52657  1.0000
  H   H90       1.0  0.27093  0.56658  0.52161  1.0000
  H   H91       1.0  0.27468  0.53866  0.58469  1.0000
  H   H92       1.0  0.23864  0.53069  0.54065  1.0000
  C   C117      1.0  0.48799  0.74635  0.36673  1.0000
  C   C118      1.0  0.50638  0.74684  0.44204  1.0000
  C   C119      1.0  0.03889  0.76475  0.43690  1.0000
  H   H93       1.0  0.05146  0.76420  0.49142  1.0000
  C   C120      1.0  0.49352  0.72813  0.52662  1.0000
  H   H94       1.0  0.46918  0.71154  0.52169  1.0000
  H   H95       1.0  0.49710  0.74322  0.58471  1.0000
  H   H96       1.0  0.50507  0.71513  0.54075  1.0000
  C   C121      1.0  0.75352  0.27984  0.35888  1.0000
  C   C122      1.0  0.75396  0.26189  0.28366  1.0000
  C   C123      1.0  0.77186  0.24728  0.28877  1.0000
  H   H97       1.0  0.77125  0.23410  0.23435  1.0000
  C   C124      1.0  0.73515  0.25593  0.19924  1.0000
  H   H98       1.0  0.71858  0.26370  0.20421  1.0000
  H   H99       1.0  0.72211  0.23136  0.18542  1.0000
  H   H100      1.0  0.75016  0.26735  0.14096  1.0000
  C   C125      1.0  0.75594  0.48084  0.35891  1.0000
  C   C126      1.0  0.77382  0.49922  0.28360  1.0000
  C   C127      1.0  0.78844  0.03174  0.28873  1.0000
  H   H101      1.0  0.80158  0.04431  0.23426  1.0000
  C   C128      1.0  0.77973  0.48637  0.19910  1.0000
  H   H102      1.0  0.77199  0.46204  0.20406  1.0000
  H   H103      1.0  0.80429  0.49792  0.18510  1.0000
  H   H104      1.0  0.76826  0.48995  0.14092  1.0000
  C   C129      1.0  0.55493  0.28224  0.35888  1.0000
  C   C130      1.0  0.53654  0.28174  0.28357  1.0000
  C   C131      1.0  0.00402  0.26384  0.28870  1.0000
  H   H105      1.0  0.99145  0.26440  0.23422  1.0000
  C   C132      1.0  0.54939  0.30048  0.19903  1.0000
  H   H106      1.0  0.57373  0.31707  0.20397  1.0000
  H   H107      1.0  0.53784  0.31348  0.18499  1.0000
  H   H108      1.0  0.54581  0.28541  0.14089  1.0000
  N   N5        1.0  0.68813  0.34764  0.36209  1.0000
  C   C133      1.0  0.70463  0.33103  0.36165  1.0000
  C   C134      1.0  0.70474  0.38075  0.36164  1.0000
  C   C135      1.0  0.65502  0.33114  0.36165  1.0000
  C   C136      1.0  0.63806  0.31076  0.28990  1.0000
  C   C137      1.0  0.60562  0.29459  0.28958  1.0000
  C   C138      1.0  0.58831  0.29860  0.35945  1.0000
  C   C139      1.0  0.60549  0.31876  0.43181  1.0000
  C   C140      1.0  0.63792  0.33453  0.43303  1.0000
  C   C141      1.0  0.72497  0.33442  0.28984  1.0000
  C   C142      1.0  0.74113  0.31814  0.28950  1.0000
  C   C143      1.0  0.73716  0.29686  0.35944  1.0000
  C   C144      1.0  0.71703  0.29391  0.43188  1.0000
  C   C145      1.0  0.70127  0.31058  0.43309  1.0000
  C   C146      1.0  0.72521  0.39784  0.43305  1.0000
  C   C147      1.0  0.74188  0.43028  0.43184  1.0000
  C   C148      1.0  0.73890  0.44745  0.35947  1.0000
  C   C149      1.0  0.71760  0.43015  0.28956  1.0000
  C   C150      1.0  0.70132  0.39771  0.28989  1.0000
  H   H109      1.0  0.75597  0.32190  0.23664  1.0000
  H   H110      1.0  0.72834  0.34918  0.23713  1.0000
  H   H111      1.0  0.68686  0.30747  0.48659  1.0000
  H   H112      1.0  0.71331  0.27903  0.48461  1.0000
  H   H113      1.0  0.64945  0.30736  0.23727  1.0000
  H   H114      1.0  0.59454  0.27972  0.23678  1.0000
  H   H115      1.0  0.72834  0.38654  0.48649  1.0000
  H   H116      1.0  0.75679  0.44143  0.48451  1.0000
  H   H117      1.0  0.71382  0.44122  0.23675  1.0000
  H   H118      1.0  0.68655  0.38632  0.23722  1.0000
  H   H119      1.0  0.64922  0.34897  0.48647  1.0000
  H   H120      1.0  0.59433  0.32252  0.48447  1.0000
  N   N6        1.0  0.85479  0.18097  0.36354  1.0000
  C   C151      1.0  0.83829  0.19759  0.36397  1.0000
  C   C152      1.0  0.83817  0.14786  0.36399  1.0000
  C   C153      1.0  0.88790  0.19747  0.36397  1.0000
  C   C154      1.0  0.90486  0.21786  0.43569  1.0000
  C   C155      1.0  0.93730  0.23402  0.43603  1.0000
  C   C156      1.0  0.95461  0.23000  0.36617  1.0000
  C   C157      1.0  0.93743  0.20983  0.29381  1.0000
  C   C158      1.0  0.90499  0.19408  0.29259  1.0000
  C   C159      1.0  0.81794  0.19420  0.43576  1.0000
  C   C160      1.0  0.80179  0.21048  0.43610  1.0000
  C   C161      1.0  0.80576  0.23175  0.36614  1.0000
  C   C162      1.0  0.82590  0.23472  0.29372  1.0000
  C   C163      1.0  0.84166  0.21804  0.29252  1.0000
  C   C164      1.0  0.81771  0.13078  0.29258  1.0000
  C   C165      1.0  0.80102  0.09834  0.29379  1.0000
  C   C166      1.0  0.80400  0.08116  0.36617  1.0000
  C   C167      1.0  0.82531  0.09846  0.43606  1.0000
  C   C168      1.0  0.84159  0.13090  0.43572  1.0000
  H   H121      1.0  0.78694  0.20672  0.48895  1.0000
  H   H122      1.0  0.81457  0.17944  0.48847  1.0000
  H   H123      1.0  0.85607  0.22115  0.23904  1.0000
  H   H124      1.0  0.82963  0.24960  0.24100  1.0000
  H   H125      1.0  0.89347  0.22126  0.48835  1.0000
  H   H126      1.0  0.94838  0.24889  0.48882  1.0000
  H   H127      1.0  0.81456  0.14208  0.23915  1.0000
  H   H128      1.0  0.78612  0.08719  0.24114  1.0000
  H   H129      1.0  0.82909  0.08739  0.48887  1.0000
  H   H130      1.0  0.85637  0.14229  0.48839  1.0000
  H   H131      1.0  0.89369  0.17963  0.23917  1.0000
  H   H132      1.0  0.94858  0.20607  0.24116  1.0000
  C   C169      1.0  0.78942  0.24880  0.36669  1.0000
  C   C170      1.0  0.78898  0.26675  0.44192  1.0000
  C   C171      1.0  0.77107  0.28136  0.43681  1.0000
  H   H133      1.0  0.77167  0.29452  0.49126  1.0000
  C   C172      1.0  0.80776  0.27267  0.52638  1.0000
  H   H134      1.0  0.82434  0.26491  0.52141  1.0000
  H   H135      1.0  0.79273  0.26122  0.58461  1.0000
  H   H136      1.0  0.82078  0.29723  0.54031  1.0000
  C   C173      1.0  0.78696  0.04778  0.36672  1.0000
  C   C174      1.0  0.76906  0.02939  0.44201  1.0000
  C   C175      1.0  0.75446  0.49687  0.43689  1.0000
  H   H137      1.0  0.74133  0.48430  0.49139  1.0000
  C   C176      1.0  0.76319  0.04225  0.52657  1.0000
  H   H138      1.0  0.77093  0.06658  0.52161  1.0000
  H   H139      1.0  0.77468  0.03866  0.58469  1.0000
  H   H140      1.0  0.73864  0.03070  0.54065  1.0000
  C   C177      1.0  0.98799  0.24635  0.36673  1.0000
  C   C178      1.0  0.00638  0.24684  0.44204  1.0000
  C   C179      1.0  0.53889  0.26475  0.43690  1.0000
  H   H141      1.0  0.55146  0.26420  0.49142  1.0000
  C   C180      1.0  0.99352  0.22813  0.52662  1.0000
  H   H142      1.0  0.96918  0.21154  0.52169  1.0000
  H   H143      1.0  0.99711  0.24322  0.58471  1.0000
  H   H144      1.0  0.00507  0.21513  0.54075  1.0000
  C   C181      1.0  0.75352  0.77983  0.35888  1.0000
  C   C182      1.0  0.75396  0.76189  0.28366  1.0000
  C   C183      1.0  0.77186  0.74728  0.28877  1.0000
  H   H145      1.0  0.77125  0.73410  0.23435  1.0000
  C   C184      1.0  0.73515  0.75593  0.19924  1.0000
  H   H146      1.0  0.71858  0.76370  0.20421  1.0000
  H   H147      1.0  0.72212  0.73137  0.18542  1.0000
  H   H148      1.0  0.75016  0.76735  0.14096  1.0000
  C   C185      1.0  0.75594  0.98084  0.35891  1.0000
  C   C186      1.0  0.77382  0.99922  0.28360  1.0000
  C   C187      1.0  0.78844  0.53174  0.28873  1.0000
  H   H149      1.0  0.80158  0.54431  0.23426  1.0000
  C   C188      1.0  0.77973  0.98637  0.19910  1.0000
  H   H150      1.0  0.77199  0.96203  0.20406  1.0000
  H   H151      1.0  0.80429  0.99792  0.18510  1.0000
  H   H152      1.0  0.76826  0.98995  0.14092  1.0000
  C   C189      1.0  0.55493  0.78224  0.35888  1.0000
  C   C190      1.0  0.53654  0.78174  0.28357  1.0000
  C   C191      1.0  0.00402  0.76384  0.28870  1.0000
  H   H153      1.0  0.99145  0.76440  0.23422  1.0000
  C   C192      1.0  0.54939  0.80048  0.19903  1.0000
  H   H154      1.0  0.57373  0.81706  0.20397  1.0000
  H   H155      1.0  0.53785  0.81348  0.18499  1.0000
  H   H156      1.0  0.54580  0.78541  0.14089  1.0000
  N   N7        1.0  0.68813  0.84764  0.36209  1.0000
  C   C193      1.0  0.70462  0.83103  0.36165  1.0000
  C   C194      1.0  0.70474  0.88075  0.36164  1.0000
  C   C195      1.0  0.65501  0.83114  0.36165  1.0000
  C   C196      1.0  0.63806  0.81076  0.28990  1.0000
  C   C197      1.0  0.60562  0.79459  0.28958  1.0000
  C   C198      1.0  0.58831  0.79860  0.35945  1.0000
  C   C199      1.0  0.60549  0.81876  0.43181  1.0000
  C   C200      1.0  0.63792  0.83453  0.43303  1.0000
  C   C201      1.0  0.72497  0.83442  0.28984  1.0000
  C   C202      1.0  0.74113  0.81814  0.28950  1.0000
  C   C203      1.0  0.73716  0.79686  0.35944  1.0000
  C   C204      1.0  0.71703  0.79391  0.43188  1.0000
  C   C205      1.0  0.70127  0.81058  0.43309  1.0000
  C   C206      1.0  0.72521  0.89784  0.43305  1.0000
  C   C207      1.0  0.74188  0.93028  0.43184  1.0000
  C   C208      1.0  0.73890  0.94745  0.35947  1.0000
  C   C209      1.0  0.71760  0.93015  0.28956  1.0000
  C   C210      1.0  0.70132  0.89771  0.28989  1.0000
  H   H157      1.0  0.75597  0.82190  0.23664  1.0000
  H   H158      1.0  0.72834  0.84918  0.23713  1.0000
  H   H159      1.0  0.68686  0.80747  0.48659  1.0000
  H   H160      1.0  0.71331  0.77903  0.48461  1.0000
  H   H161      1.0  0.64945  0.80736  0.23727  1.0000
  H   H162      1.0  0.59454  0.77972  0.23678  1.0000
  H   H163      1.0  0.72835  0.88654  0.48649  1.0000
  H   H164      1.0  0.75679  0.94143  0.48451  1.0000
  H   H165      1.0  0.71382  0.94122  0.23675  1.0000
  H   H166      1.0  0.68655  0.88632  0.23722  1.0000
  H   H167      1.0  0.64922  0.84896  0.48647  1.0000
  H   H168      1.0  0.59433  0.82252  0.48447  1.0000
  N   N8        1.0  0.85479  0.68097  0.36354  1.0000
  C   C211      1.0  0.83829  0.69759  0.36397  1.0000
  C   C212      1.0  0.83817  0.64786  0.36399  1.0000
  C   C213      1.0  0.88790  0.69747  0.36397  1.0000
  C   C214      1.0  0.90486  0.71786  0.43569  1.0000
  C   C215      1.0  0.93730  0.73402  0.43603  1.0000
  C   C216      1.0  0.95460  0.73000  0.36617  1.0000
  C   C217      1.0  0.93743  0.70983  0.29381  1.0000
  C   C218      1.0  0.90499  0.69408  0.29259  1.0000
  C   C219      1.0  0.81794  0.69420  0.43576  1.0000
  C   C220      1.0  0.80179  0.71048  0.43610  1.0000
  C   C221      1.0  0.80576  0.73176  0.36614  1.0000
  C   C222      1.0  0.82590  0.73472  0.29372  1.0000
  C   C223      1.0  0.84166  0.71804  0.29252  1.0000
  C   C224      1.0  0.81770  0.63078  0.29258  1.0000
  C   C225      1.0  0.80102  0.59834  0.29379  1.0000
  C   C226      1.0  0.80400  0.58116  0.36617  1.0000
  C   C227      1.0  0.82531  0.59846  0.43606  1.0000
  C   C228      1.0  0.84159  0.63090  0.43572  1.0000
  H   H169      1.0  0.78694  0.70672  0.48895  1.0000
  H   H170      1.0  0.81457  0.67944  0.48847  1.0000
  H   H171      1.0  0.85607  0.72115  0.23904  1.0000
  H   H172      1.0  0.82963  0.74960  0.24100  1.0000
  H   H173      1.0  0.89347  0.72125  0.48835  1.0000
  H   H174      1.0  0.94838  0.74888  0.48882  1.0000
  H   H175      1.0  0.81456  0.64208  0.23915  1.0000
  H   H176      1.0  0.78612  0.58719  0.24114  1.0000
  H   H177      1.0  0.82909  0.58738  0.48887  1.0000
  H   H178      1.0  0.85637  0.64229  0.48839  1.0000
  H   H179      1.0  0.89369  0.67963  0.23917  1.0000
  H   H180      1.0  0.94858  0.70607  0.24116  1.0000
  C   C229      1.0  0.78942  0.74880  0.36669  1.0000
  C   C230      1.0  0.78898  0.76675  0.44192  1.0000
  C   C231      1.0  0.77107  0.78135  0.43681  1.0000
  H   H181      1.0  0.77167  0.79452  0.49126  1.0000
  C   C232      1.0  0.80776  0.77267  0.52638  1.0000
  H   H182      1.0  0.82434  0.76491  0.52141  1.0000
  H   H183      1.0  0.79273  0.76122  0.58461  1.0000
  H   H184      1.0  0.82078  0.79723  0.54031  1.0000
  C   C233      1.0  0.78696  0.54778  0.36672  1.0000
  C   C234      1.0  0.76906  0.52939  0.44201  1.0000
  C   C235      1.0  0.75446  0.99687  0.43689  1.0000
  H   H185      1.0  0.74133  0.98430  0.49139  1.0000
  C   C236      1.0  0.76319  0.54225  0.52657  1.0000
  H   H186      1.0  0.77093  0.56658  0.52161  1.0000
  H   H187      1.0  0.77468  0.53866  0.58469  1.0000
  H   H188      1.0  0.73864  0.53069  0.54065  1.0000
  C   C237      1.0  0.98799  0.74635  0.36673  1.0000
  C   C238      1.0  0.00638  0.74684  0.44204  1.0000
  C   C239      1.0  0.53889  0.76475  0.43690  1.0000
  H   H189      1.0  0.55146  0.76420  0.49142  1.0000
  C   C240      1.0  0.99352  0.72813  0.52662  1.0000
  H   H190      1.0  0.96918  0.71154  0.52169  1.0000
  H   H191      1.0  0.99710  0.74322  0.58471  1.0000
  H   H192      1.0  0.00507  0.71513  0.54075  1.0000
