data_image0
_chemical_formula_structural       C8HNO2C4HNO2C3HNO2CNCNCNCNCNCNC2HNO2C2HNO2CHNO2C4HNO2C4HNO2C3HNO2CNCNCNCNCNCNC2HNO2C2HNO2CHNO2C4HNO2C4HNO2C4HNO2CNCNCNCNCNCNC2HNO2C2HNO2C2HNO2C4HNO2C4HNO2C4HNO2CNCNCNCNCNCNC2HNO2C2HNO2C2HNO2
_chemical_formula_sum              "C96 H24 N48 O48"
_cell_length_a       29.5909
_cell_length_b       29.5908
_cell_length_c       14.9663
_cell_angle_alpha    90
_cell_angle_beta     90
_cell_angle_gamma    120

_space_group_name_H-M_alt    "P 1"
_space_group_IT_number       1

loop_
  _space_group_symop_operation_xyz
  'x, y, z'

loop_
  _atom_site_type_symbol
  _atom_site_label
  _atom_site_symmetry_multiplicity
  _atom_site_fract_x
  _atom_site_fract_y
  _atom_site_fract_z
  _atom_site_occupancy
  C   C1        1.0  0.02754  0.22853  0.29745  1.0000
  C   C2        1.0  0.02762  0.30183  0.36602  1.0000
  C   C3        1.0  0.03226  0.80318  0.30033  1.0000
  C   C4        1.0  0.03374  0.72755  0.35202  1.0000
  C   C5        1.0  0.21967  0.27936  0.32499  1.0000
  C   C6        1.0  0.19401  0.22477  0.31666  1.0000
  C   C7        1.0  0.22122  0.19664  0.31630  1.0000
  C   C8        1.0  0.27684  0.22266  0.32550  1.0000
  H   H1        1.0  0.15421  0.20433  0.31088  1.0000
  N   N1        1.0  0.19079  0.14205  0.30611  1.0000
  O   O1        1.0  0.16604  0.12999  0.23336  1.0000
  O   O2        1.0  0.15920  0.12141  0.36984  1.0000
  C   C9        1.0  0.22105  0.44242  0.35329  1.0000
  C   C10       1.0  0.19616  0.47225  0.35462  1.0000
  C   C11       1.0  0.22701  0.02693  0.29408  1.0000
  C   C12       1.0  0.27989  0.05765  0.32353  1.0000
  H   H2        1.0  0.15623  0.45346  0.35406  1.0000
  N   N2        1.0  0.19988  0.04997  0.25490  1.0000
  O   O3        1.0  0.19423  0.04131  0.17226  1.0000
  O   O4        1.0  0.15530  0.03271  0.28897  1.0000
  C   C13       1.0  0.05632  0.27939  0.33259  1.0000
  C   C14       1.0  0.47221  0.20105  0.29372  1.0000
  C   C15       1.0  0.44311  0.22351  0.32995  1.0000
  H   H3        1.0  0.04711  0.21189  0.26875  1.0000
  N   N3        1.0  0.44705  0.15411  0.24345  1.0000
  O   O5        1.0  0.46118  0.12215  0.26596  1.0000
  O   O6        1.0  0.45620  0.16324  0.16143  1.0000
  C   C16       1.0  0.19242  0.38724  0.34804  1.0000
  N   N4        1.0  0.13933  0.35970  0.34630  1.0000
  C   C17       1.0  0.11150  0.30701  0.33452  1.0000
  N   N5        1.0  0.13897  0.28175  0.32532  1.0000
  C   C18       1.0  0.19193  0.30675  0.32904  1.0000
  N   N6        1.0  0.21728  0.35936  0.33990  1.0000
  C   C19       1.0  0.30641  0.11350  0.32312  1.0000
  N   N7        1.0  0.35943  0.14264  0.32572  1.0000
  C   C20       1.0  0.38735  0.19568  0.32888  1.0000
  N   N8        1.0  0.35831  0.21973  0.33030  1.0000
  C   C21       1.0  0.30508  0.19482  0.32604  1.0000
  N   N9        1.0  0.28122  0.14158  0.32201  1.0000
  C   C22       1.0  0.30264  0.27831  0.33412  1.0000
  C   C23       1.0  0.27432  0.30526  0.33248  1.0000
  H   H4        1.0  0.29461  0.34499  0.33966  1.0000
  N   N10       1.0  0.35695  0.30894  0.34832  1.0000
  O   O7        1.0  0.36689  0.33281  0.42185  1.0000
  O   O8        1.0  0.37927  0.34122  0.28614  1.0000
  C   C24       1.0  0.30482  0.02976  0.35490  1.0000
  C   C25       1.0  0.27595  0.47058  0.35280  1.0000
  H   H5        1.0  0.29588  0.45058  0.35266  1.0000
  N   N11       1.0  0.35503  0.05618  0.39489  1.0000
  O   O9        1.0  0.35231  0.04850  0.47780  1.0000
  O   O10       1.0  0.38539  0.04223  0.36275  1.0000
  C   C26       1.0  0.47231  0.27493  0.36645  1.0000
  H   H6        1.0  0.04717  0.33787  0.39536  1.0000
  N   N12       1.0  0.44749  0.29861  0.41165  1.0000
  O   O11       1.0  0.46501  0.34516  0.38709  1.0000
  O   O12       1.0  0.45404  0.29870  0.49465  1.0000
  C   C27       1.0  0.22632  0.78131  0.34643  1.0000
  C   C28       1.0  0.20254  0.72900  0.31854  1.0000
  C   C29       1.0  0.22945  0.70061  0.31542  1.0000
  C   C30       1.0  0.28279  0.72397  0.34309  1.0000
  H   H7        1.0  0.16517  0.71145  0.29451  1.0000
  N   N13       1.0  0.20318  0.65065  0.27520  1.0000
  O   O13       1.0  0.19957  0.65441  0.19215  1.0000
  O   O14       1.0  0.15768  0.62317  0.30588  1.0000
  C   C31       1.0  0.22544  0.94419  0.32781  1.0000
  C   C32       1.0  0.20109  0.97169  0.29718  1.0000
  C   C33       1.0  0.22418  0.52761  0.35054  1.0000
  C   C34       1.0  0.28015  0.55671  0.34931  1.0000
  H   H8        1.0  0.16367  0.95120  0.27351  1.0000
  N   N14       1.0  0.19395  0.55214  0.34358  1.0000
  O   O15       1.0  0.16528  0.53654  0.27513  1.0000
  O   O16       1.0  0.16609  0.54436  0.41176  1.0000
  C   C35       1.0  0.06207  0.78003  0.32472  1.0000
  C   C36       1.0  0.47674  0.77573  0.30276  1.0000
  C   C37       1.0  0.44796  0.72271  0.33319  1.0000
  H   H9        1.0  0.05123  0.84077  0.27721  1.0000
  N   N15       1.0  0.45075  0.80092  0.26671  1.0000
  O   O17       1.0  0.45674  0.80591  0.18346  1.0000
  O   O18       1.0  0.46707  0.84550  0.29962  1.0000
  C   C38       1.0  0.19815  0.88898  0.33090  1.0000
  N   N16       1.0  0.14526  0.86092  0.32142  1.0000
  C   C39       1.0  0.11747  0.80795  0.32571  1.0000
  N   N17       1.0  0.14557  0.78328  0.33551  1.0000
  C   C40       1.0  0.19853  0.80879  0.34344  1.0000
  N   N18       1.0  0.22362  0.86181  0.34322  1.0000
  C   C41       1.0  0.30921  0.61290  0.34539  1.0000
  N   N19       1.0  0.36262  0.64148  0.34301  1.0000
  C   C42       1.0  0.39192  0.69475  0.33848  1.0000
  N   N20       1.0  0.36356  0.71967  0.33884  1.0000
  C   C43       1.0  0.31039  0.69560  0.34158  1.0000
  N   N21       1.0  0.28545  0.64237  0.34375  1.0000
  C   C44       1.0  0.30694  0.77704  0.37289  1.0000
  C   C45       1.0  0.27901  0.80464  0.37265  1.0000
  H   H10       1.0  0.29722  0.84217  0.39600  1.0000
  N   N22       1.0  0.35733  0.80161  0.41204  1.0000
  O   O19       1.0  0.35448  0.80587  0.49512  1.0000
  O   O20       1.0  0.38643  0.84649  0.38093  1.0000
  C   C46       1.0  0.30518  0.52595  0.35190  1.0000
  C   C47       1.0  0.27782  0.97436  0.35524  1.0000
  H   H11       1.0  0.29640  0.95588  0.38071  1.0000
  N   N23       1.0  0.35996  0.54900  0.35296  1.0000
  O   O21       1.0  0.37529  0.53617  0.42195  1.0000
  O   O22       1.0  0.37644  0.53692  0.28464  1.0000
  C   C48       1.0  0.47842  0.69923  0.35733  1.0000
  H   H12       1.0  0.05376  0.70959  0.37312  1.0000
  N   N24       1.0  0.45517  0.64836  0.39362  1.0000
  O   O23       1.0  0.46550  0.64954  0.47538  1.0000
  O   O24       1.0  0.47053  0.62086  0.35411  1.0000
  C   C49       1.0  0.71967  0.27936  0.32499  1.0000
  C   C50       1.0  0.69401  0.22477  0.31666  1.0000
  C   C51       1.0  0.72122  0.19664  0.31630  1.0000
  C   C52       1.0  0.77684  0.22266  0.32550  1.0000
  H   H13       1.0  0.65421  0.20433  0.31088  1.0000
  N   N25       1.0  0.69079  0.14205  0.30611  1.0000
  O   O25       1.0  0.66604  0.12999  0.23336  1.0000
  O   O26       1.0  0.65920  0.12141  0.36984  1.0000
  C   C53       1.0  0.72105  0.44242  0.35329  1.0000
  C   C54       1.0  0.69616  0.47225  0.35462  1.0000
  C   C55       1.0  0.72701  0.02693  0.29408  1.0000
  C   C56       1.0  0.77989  0.05765  0.32353  1.0000
  H   H14       1.0  0.65623  0.45346  0.35406  1.0000
  N   N26       1.0  0.69988  0.04997  0.25490  1.0000
  O   O27       1.0  0.69423  0.04131  0.17226  1.0000
  O   O28       1.0  0.65529  0.03271  0.28897  1.0000
  C   C57       1.0  0.55632  0.27939  0.33259  1.0000
  C   C58       1.0  0.52754  0.22853  0.29745  1.0000
  C   C59       1.0  0.97221  0.20105  0.29372  1.0000
  C   C60       1.0  0.94311  0.22351  0.32995  1.0000
  H   H15       1.0  0.54711  0.21189  0.26875  1.0000
  N   N27       1.0  0.94705  0.15411  0.24345  1.0000
  O   O29       1.0  0.96118  0.12215  0.26596  1.0000
  O   O30       1.0  0.95620  0.16324  0.16143  1.0000
  C   C61       1.0  0.69243  0.38724  0.34804  1.0000
  N   N28       1.0  0.63932  0.35970  0.34630  1.0000
  C   C62       1.0  0.61150  0.30701  0.33452  1.0000
  N   N29       1.0  0.63896  0.28175  0.32532  1.0000
  C   C63       1.0  0.69193  0.30675  0.32904  1.0000
  N   N30       1.0  0.71728  0.35936  0.33990  1.0000
  C   C64       1.0  0.80641  0.11350  0.32312  1.0000
  N   N31       1.0  0.85943  0.14264  0.32572  1.0000
  C   C65       1.0  0.88735  0.19568  0.32888  1.0000
  N   N32       1.0  0.85831  0.21973  0.33030  1.0000
  C   C66       1.0  0.80508  0.19482  0.32604  1.0000
  N   N33       1.0  0.78121  0.14158  0.32201  1.0000
  C   C67       1.0  0.80264  0.27831  0.33412  1.0000
  C   C68       1.0  0.77432  0.30526  0.33248  1.0000
  H   H16       1.0  0.79461  0.34499  0.33966  1.0000
  N   N34       1.0  0.85694  0.30894  0.34832  1.0000
  O   O31       1.0  0.86689  0.33281  0.42185  1.0000
  O   O32       1.0  0.87927  0.34122  0.28614  1.0000
  C   C69       1.0  0.80482  0.02976  0.35490  1.0000
  C   C70       1.0  0.77595  0.47058  0.35280  1.0000
  H   H17       1.0  0.79588  0.45058  0.35266  1.0000
  N   N35       1.0  0.85503  0.05618  0.39489  1.0000
  O   O33       1.0  0.85231  0.04850  0.47780  1.0000
  O   O34       1.0  0.88539  0.04223  0.36275  1.0000
  C   C71       1.0  0.97231  0.27493  0.36645  1.0000
  C   C72       1.0  0.52762  0.30183  0.36602  1.0000
  H   H18       1.0  0.54717  0.33787  0.39536  1.0000
  N   N36       1.0  0.94749  0.29861  0.41165  1.0000
  O   O35       1.0  0.96501  0.34516  0.38709  1.0000
  O   O36       1.0  0.95404  0.29870  0.49465  1.0000
  C   C73       1.0  0.72632  0.78131  0.34643  1.0000
  C   C74       1.0  0.70254  0.72900  0.31854  1.0000
  C   C75       1.0  0.72945  0.70061  0.31542  1.0000
  C   C76       1.0  0.78279  0.72397  0.34309  1.0000
  H   H19       1.0  0.66517  0.71145  0.29451  1.0000
  N   N37       1.0  0.70317  0.65065  0.27520  1.0000
  O   O37       1.0  0.69957  0.65441  0.19215  1.0000
  O   O38       1.0  0.65768  0.62317  0.30588  1.0000
  C   C77       1.0  0.72544  0.94419  0.32781  1.0000
  C   C78       1.0  0.70109  0.97169  0.29718  1.0000
  C   C79       1.0  0.72418  0.52761  0.35054  1.0000
  C   C80       1.0  0.78015  0.55671  0.34931  1.0000
  H   H20       1.0  0.66367  0.95120  0.27351  1.0000
  N   N38       1.0  0.69395  0.55214  0.34358  1.0000
  O   O39       1.0  0.66528  0.53654  0.27513  1.0000
  O   O40       1.0  0.66609  0.54436  0.41176  1.0000
  C   C81       1.0  0.56207  0.78003  0.32472  1.0000
  C   C82       1.0  0.53226  0.80318  0.30033  1.0000
  C   C83       1.0  0.97674  0.77573  0.30276  1.0000
  C   C84       1.0  0.94796  0.72271  0.33319  1.0000
  H   H21       1.0  0.55123  0.84077  0.27721  1.0000
  N   N39       1.0  0.95075  0.80092  0.26671  1.0000
  O   O41       1.0  0.95674  0.80591  0.18346  1.0000
  O   O42       1.0  0.96707  0.84550  0.29962  1.0000
  C   C85       1.0  0.69815  0.88898  0.33090  1.0000
  N   N40       1.0  0.64526  0.86092  0.32142  1.0000
  C   C86       1.0  0.61747  0.80795  0.32571  1.0000
  N   N41       1.0  0.64557  0.78328  0.33551  1.0000
  C   C87       1.0  0.69853  0.80879  0.34344  1.0000
  N   N42       1.0  0.72362  0.86181  0.34322  1.0000
  C   C88       1.0  0.80921  0.61290  0.34539  1.0000
  N   N43       1.0  0.86261  0.64148  0.34301  1.0000
  C   C89       1.0  0.89192  0.69475  0.33848  1.0000
  N   N44       1.0  0.86356  0.71967  0.33884  1.0000
  C   C90       1.0  0.81039  0.69560  0.34158  1.0000
  N   N45       1.0  0.78545  0.64237  0.34375  1.0000
  C   C91       1.0  0.80693  0.77704  0.37289  1.0000
  C   C92       1.0  0.77901  0.80464  0.37265  1.0000
  H   H22       1.0  0.79722  0.84217  0.39600  1.0000
  N   N46       1.0  0.85733  0.80161  0.41204  1.0000
  O   O43       1.0  0.85449  0.80587  0.49512  1.0000
  O   O44       1.0  0.88642  0.84649  0.38093  1.0000
  C   C93       1.0  0.80518  0.52595  0.35190  1.0000
  C   C94       1.0  0.77782  0.97436  0.35524  1.0000
  H   H23       1.0  0.79640  0.95588  0.38071  1.0000
  N   N47       1.0  0.85996  0.54900  0.35296  1.0000
  O   O45       1.0  0.87529  0.53617  0.42195  1.0000
  O   O46       1.0  0.87644  0.53692  0.28464  1.0000
  C   C95       1.0  0.97842  0.69923  0.35733  1.0000
  C   C96       1.0  0.53374  0.72755  0.35202  1.0000
  H   H24       1.0  0.55375  0.70959  0.37312  1.0000
  N   N48       1.0  0.95517  0.64836  0.39362  1.0000
  O   O47       1.0  0.96550  0.64954  0.47538  1.0000
  O   O48       1.0  0.97053  0.62086  0.35411  1.0000
