data_image0
_chemical_formula_structural       C2HC2HN2C2NHCHC2NHCHC4H2C4H2N2CNCHCHCNCHCHC2HC2HN2C2NHCHC2NHCHC4H2C4H2N2CNCHCHCNCHCHC2HC2HN2C2NHCHC2NHCHC4H2C4H2N2CNCHCHCNCHCHC2HC2HN2C2NHCHC2NHCHC4H2C4H2N2CNCHCHCNCHCH
_chemical_formula_sum              "C96 H56 N32"
_cell_length_a       31.2236
_cell_length_b       31.2236
_cell_length_c       14.8202
_cell_angle_alpha    90
_cell_angle_beta     90
_cell_angle_gamma    90

_space_group_name_H-M_alt    "P 1"
_space_group_IT_number       1

loop_
  _space_group_symop_operation_xyz
  'x, y, z'

loop_
  _atom_site_type_symbol
  _atom_site_label
  _atom_site_symmetry_multiplicity
  _atom_site_fract_x
  _atom_site_fract_y
  _atom_site_fract_z
  _atom_site_occupancy
  C   C1        1.0  0.01279  0.06725  0.34523  1.0000
  C   C2        1.0  0.04441  0.09971  0.34535  1.0000
  H   H1        1.0  0.48207  0.07767  0.34430  1.0000
  C   C3        1.0  0.46771  0.41244  0.34566  1.0000
  C   C4        1.0  0.49932  0.44489  0.34557  1.0000
  H   H2        1.0  0.03004  0.43448  0.34482  1.0000
  N   N1        1.0  0.47559  0.36974  0.34540  1.0000
  N   N2        1.0  0.03653  0.14241  0.34498  1.0000
  C   C5        1.0  0.00295  0.21133  0.34450  1.0000
  C   C6        1.0  0.96597  0.23735  0.34412  1.0000
  N   N3        1.0  0.97052  0.28060  0.34441  1.0000
  H   H3        1.0  0.93590  0.22442  0.34368  1.0000
  C   C7        1.0  0.00051  0.16640  0.34441  1.0000
  H   H4        1.0  0.97119  0.15183  0.34410  1.0000
  C   C8        1.0  0.30080  0.00918  0.34702  1.0000
  C   C9        1.0  0.27478  0.04616  0.34667  1.0000
  N   N4        1.0  0.23153  0.04162  0.34690  1.0000
  H   H5        1.0  0.28771  0.07624  0.34614  1.0000
  C   C10       1.0  0.34573  0.01162  0.34672  1.0000
  H   H6        1.0  0.36030  0.04094  0.34632  1.0000
  C   C11       1.0  0.02245  0.02246  0.34602  1.0000
  C   C12       1.0  0.08770  0.08772  0.34601  1.0000
  C   C13       1.0  0.09969  0.04442  0.34667  1.0000
  C   C14       1.0  0.06724  0.01281  0.34680  1.0000
  H   H7        1.0  0.07765  0.48209  0.34775  1.0000
  H   H8        1.0  0.11094  0.11096  0.34600  1.0000
  C   C15       1.0  0.48966  0.48968  0.34603  1.0000
  C   C16       1.0  0.44487  0.49934  0.34647  1.0000
  C   C17       1.0  0.41243  0.46773  0.34640  1.0000
  C   C18       1.0  0.42441  0.42443  0.34604  1.0000
  H   H9        1.0  0.43446  0.03006  0.34722  1.0000
  H   H10       1.0  0.40117  0.40119  0.34605  1.0000
  N   N5        1.0  0.36972  0.47560  0.34666  1.0000
  N   N6        1.0  0.14239  0.03654  0.34704  1.0000
  C   C19       1.0  0.04615  0.27480  0.34534  1.0000
  N   N7        1.0  0.04160  0.23155  0.34511  1.0000
  C   C20       1.0  0.00916  0.30082  0.34501  1.0000
  H   H11       1.0  0.07622  0.28773  0.34582  1.0000
  C   C21       1.0  0.01160  0.34575  0.34531  1.0000
  H   H12       1.0  0.04092  0.36032  0.34570  1.0000
  C   C22       1.0  0.23733  0.96599  0.34798  1.0000
  N   N8        1.0  0.28058  0.97053  0.34767  1.0000
  C   C23       1.0  0.21131  0.00297  0.34755  1.0000
  H   H13       1.0  0.22440  0.93592  0.34844  1.0000
  C   C24       1.0  0.16638  0.00053  0.34765  1.0000
  H   H14       1.0  0.15181  0.97121  0.34797  1.0000
  C   C25       1.0  0.01279  0.56726  0.34523  1.0000
  C   C26       1.0  0.04441  0.59971  0.34535  1.0000
  H   H15       1.0  0.48207  0.57767  0.34430  1.0000
  C   C27       1.0  0.46771  0.91244  0.34566  1.0000
  C   C28       1.0  0.49932  0.94489  0.34557  1.0000
  H   H16       1.0  0.03004  0.93448  0.34482  1.0000
  N   N9        1.0  0.47559  0.86974  0.34540  1.0000
  N   N10       1.0  0.03653  0.64241  0.34498  1.0000
  C   C29       1.0  0.00295  0.71133  0.34450  1.0000
  C   C30       1.0  0.96597  0.73735  0.34412  1.0000
  N   N11       1.0  0.97052  0.78060  0.34441  1.0000
  H   H17       1.0  0.93590  0.72442  0.34368  1.0000
  C   C31       1.0  0.00051  0.66640  0.34441  1.0000
  H   H18       1.0  0.97119  0.65183  0.34410  1.0000
  C   C32       1.0  0.30080  0.50919  0.34702  1.0000
  C   C33       1.0  0.27478  0.54617  0.34667  1.0000
  N   N12       1.0  0.23153  0.54162  0.34690  1.0000
  H   H19       1.0  0.28771  0.57624  0.34614  1.0000
  C   C34       1.0  0.34573  0.51162  0.34672  1.0000
  H   H20       1.0  0.36030  0.54094  0.34632  1.0000
  C   C35       1.0  0.02245  0.52247  0.34602  1.0000
  C   C36       1.0  0.08770  0.58772  0.34601  1.0000
  C   C37       1.0  0.09969  0.54442  0.34667  1.0000
  C   C38       1.0  0.06724  0.51281  0.34680  1.0000
  H   H21       1.0  0.07765  0.98209  0.34775  1.0000
  H   H22       1.0  0.11094  0.61096  0.34600  1.0000
  C   C39       1.0  0.48966  0.98968  0.34603  1.0000
  C   C40       1.0  0.44487  0.99934  0.34647  1.0000
  C   C41       1.0  0.41243  0.96772  0.34640  1.0000
  C   C42       1.0  0.42441  0.92443  0.34604  1.0000
  H   H23       1.0  0.43446  0.53006  0.34722  1.0000
  H   H24       1.0  0.40117  0.90119  0.34605  1.0000
  N   N13       1.0  0.36972  0.97561  0.34666  1.0000
  N   N14       1.0  0.14239  0.53654  0.34704  1.0000
  C   C43       1.0  0.04615  0.77480  0.34534  1.0000
  N   N15       1.0  0.04160  0.73155  0.34511  1.0000
  C   C44       1.0  0.00916  0.80082  0.34501  1.0000
  H   H25       1.0  0.07622  0.78773  0.34582  1.0000
  C   C45       1.0  0.01160  0.84575  0.34531  1.0000
  H   H26       1.0  0.04092  0.86032  0.34570  1.0000
  C   C46       1.0  0.23733  0.46598  0.34798  1.0000
  N   N16       1.0  0.28058  0.47053  0.34767  1.0000
  C   C47       1.0  0.21131  0.50297  0.34755  1.0000
  H   H27       1.0  0.22440  0.43591  0.34844  1.0000
  C   C48       1.0  0.16638  0.50053  0.34765  1.0000
  H   H28       1.0  0.15181  0.47121  0.34797  1.0000
  C   C49       1.0  0.51279  0.06725  0.34523  1.0000
  C   C50       1.0  0.54441  0.09971  0.34535  1.0000
  H   H29       1.0  0.98207  0.07767  0.34430  1.0000
  C   C51       1.0  0.96771  0.41244  0.34566  1.0000
  C   C52       1.0  0.99932  0.44489  0.34557  1.0000
  H   H30       1.0  0.53004  0.43448  0.34482  1.0000
  N   N17       1.0  0.97559  0.36974  0.34540  1.0000
  N   N18       1.0  0.53653  0.14241  0.34498  1.0000
  C   C53       1.0  0.50295  0.21133  0.34450  1.0000
  C   C54       1.0  0.46597  0.23735  0.34412  1.0000
  N   N19       1.0  0.47051  0.28060  0.34441  1.0000
  H   H31       1.0  0.43590  0.22442  0.34368  1.0000
  C   C55       1.0  0.50052  0.16640  0.34441  1.0000
  H   H32       1.0  0.47119  0.15183  0.34410  1.0000
  C   C56       1.0  0.80080  0.00918  0.34702  1.0000
  C   C57       1.0  0.77478  0.04616  0.34667  1.0000
  N   N20       1.0  0.73153  0.04162  0.34690  1.0000
  H   H33       1.0  0.78771  0.07624  0.34614  1.0000
  C   C58       1.0  0.84573  0.01162  0.34672  1.0000
  H   H34       1.0  0.86030  0.04094  0.34632  1.0000
  C   C59       1.0  0.52245  0.02246  0.34602  1.0000
  C   C60       1.0  0.58771  0.08772  0.34601  1.0000
  C   C61       1.0  0.59969  0.04442  0.34667  1.0000
  C   C62       1.0  0.56724  0.01281  0.34680  1.0000
  H   H35       1.0  0.57765  0.48209  0.34775  1.0000
  H   H36       1.0  0.61094  0.11096  0.34600  1.0000
  C   C63       1.0  0.98966  0.48968  0.34603  1.0000
  C   C64       1.0  0.94487  0.49934  0.34647  1.0000
  C   C65       1.0  0.91242  0.46773  0.34640  1.0000
  C   C66       1.0  0.92441  0.42443  0.34604  1.0000
  H   H37       1.0  0.93446  0.03006  0.34722  1.0000
  H   H38       1.0  0.90117  0.40119  0.34605  1.0000
  N   N21       1.0  0.86972  0.47560  0.34666  1.0000
  N   N22       1.0  0.64239  0.03654  0.34704  1.0000
  C   C67       1.0  0.54615  0.27480  0.34534  1.0000
  N   N23       1.0  0.54160  0.23155  0.34511  1.0000
  C   C68       1.0  0.50916  0.30082  0.34501  1.0000
  H   H39       1.0  0.57622  0.28773  0.34582  1.0000
  C   C69       1.0  0.51160  0.34575  0.34531  1.0000
  H   H40       1.0  0.54092  0.36032  0.34570  1.0000
  C   C70       1.0  0.73733  0.96599  0.34798  1.0000
  N   N24       1.0  0.78058  0.97053  0.34767  1.0000
  C   C71       1.0  0.71131  0.00297  0.34755  1.0000
  H   H41       1.0  0.72440  0.93592  0.34844  1.0000
  C   C72       1.0  0.66638  0.00053  0.34765  1.0000
  H   H42       1.0  0.65181  0.97121  0.34797  1.0000
  C   C73       1.0  0.51279  0.56726  0.34523  1.0000
  C   C74       1.0  0.54441  0.59971  0.34535  1.0000
  H   H43       1.0  0.98207  0.57767  0.34430  1.0000
  C   C75       1.0  0.96771  0.91244  0.34566  1.0000
  C   C76       1.0  0.99932  0.94489  0.34557  1.0000
  H   H44       1.0  0.53004  0.93448  0.34482  1.0000
  N   N25       1.0  0.97559  0.86974  0.34540  1.0000
  N   N26       1.0  0.53653  0.64241  0.34498  1.0000
  C   C77       1.0  0.50295  0.71133  0.34450  1.0000
  C   C78       1.0  0.46597  0.73735  0.34412  1.0000
  N   N27       1.0  0.47051  0.78060  0.34441  1.0000
  H   H45       1.0  0.43590  0.72442  0.34368  1.0000
  C   C79       1.0  0.50052  0.66640  0.34441  1.0000
  H   H46       1.0  0.47119  0.65183  0.34410  1.0000
  C   C80       1.0  0.80080  0.50919  0.34702  1.0000
  C   C81       1.0  0.77478  0.54617  0.34667  1.0000
  N   N28       1.0  0.73153  0.54162  0.34690  1.0000
  H   H47       1.0  0.78771  0.57624  0.34614  1.0000
  C   C82       1.0  0.84573  0.51162  0.34672  1.0000
  H   H48       1.0  0.86030  0.54094  0.34632  1.0000
  C   C83       1.0  0.52245  0.52247  0.34602  1.0000
  C   C84       1.0  0.58771  0.58772  0.34601  1.0000
  C   C85       1.0  0.59969  0.54442  0.34667  1.0000
  C   C86       1.0  0.56724  0.51281  0.34680  1.0000
  H   H49       1.0  0.57765  0.98209  0.34775  1.0000
  H   H50       1.0  0.61094  0.61096  0.34600  1.0000
  C   C87       1.0  0.98966  0.98968  0.34603  1.0000
  C   C88       1.0  0.94487  0.99934  0.34647  1.0000
  C   C89       1.0  0.91242  0.96772  0.34640  1.0000
  C   C90       1.0  0.92441  0.92443  0.34604  1.0000
  H   H51       1.0  0.93446  0.53006  0.34722  1.0000
  H   H52       1.0  0.90117  0.90119  0.34605  1.0000
  N   N29       1.0  0.86972  0.97561  0.34666  1.0000
  N   N30       1.0  0.64239  0.53654  0.34704  1.0000
  C   C91       1.0  0.54615  0.77480  0.34534  1.0000
  N   N31       1.0  0.54160  0.73155  0.34511  1.0000
  C   C92       1.0  0.50916  0.80082  0.34501  1.0000
  H   H53       1.0  0.57622  0.78773  0.34582  1.0000
  C   C93       1.0  0.51160  0.84575  0.34531  1.0000
  H   H54       1.0  0.54092  0.86032  0.34570  1.0000
  C   C94       1.0  0.73733  0.46598  0.34798  1.0000
  N   N32       1.0  0.78058  0.47053  0.34767  1.0000
  C   C95       1.0  0.71131  0.50297  0.34755  1.0000
  H   H55       1.0  0.72440  0.43591  0.34844  1.0000
  C   C96       1.0  0.66638  0.50053  0.34765  1.0000
  H   H56       1.0  0.65181  0.47121  0.34797  1.0000
