data_image0
_chemical_formula_structural       C3H4CH4C3HOHNHC3HOHNHC2HOHNHC29H17C3O3C29H17C3O3C3OH2NHC3OH2NHC2OH2NH
_chemical_formula_sum              "C84 H60 O12 N6"
_cell_length_a       45.0437
_cell_length_b       45.0437
_cell_length_c       14.9827
_cell_angle_alpha    90
_cell_angle_beta     90
_cell_angle_gamma    120

_space_group_name_H-M_alt    "P 1"
_space_group_IT_number       1

loop_
  _space_group_symop_operation_xyz
  'x, y, z'

loop_
  _atom_site_type_symbol
  _atom_site_label
  _atom_site_symmetry_multiplicity
  _atom_site_fract_x
  _atom_site_fract_y
  _atom_site_fract_z
  _atom_site_occupancy
  C   C1        1.0  0.01620  0.50640  0.41892  1.0000
  C   C2        1.0  0.02141  0.50968  0.25702  1.0000
  C   C3        1.0  0.40742  0.85488  0.33760  1.0000
  H   H1        1.0  0.39636  0.86982  0.33128  1.0000
  H   H2        1.0  0.35981  0.80962  0.35006  1.0000
  H   H3        1.0  0.47463  0.60509  0.33123  1.0000
  H   H4        1.0  0.13161  0.52682  0.33126  1.0000
  C   C4        1.0  0.59432  0.14627  0.33134  1.0000
  H   H5        1.0  0.60539  0.13134  0.33772  1.0000
  H   H6        1.0  0.64193  0.19154  0.31896  1.0000
  H   H7        1.0  0.52711  0.39606  0.33770  1.0000
  H   H8        1.0  0.87010  0.47434  0.33762  1.0000
  C   C5        1.0  0.51596  0.47940  0.32712  1.0000
  C   C6        1.0  0.50666  0.49102  0.25025  1.0000
  C   C7        1.0  0.49176  0.51202  0.25700  1.0000
  H   H9        1.0  0.51136  0.48470  0.18830  1.0000
  O   O1        1.0  0.48576  0.52506  0.18146  1.0000
  H   H10       1.0  0.46798  0.50562  0.14740  1.0000
  N   N1        1.0  0.52946  0.45823  0.31746  1.0000
  H   H11       1.0  0.51815  0.43960  0.27451  1.0000
  C   C8        1.0  0.52205  0.03686  0.32709  1.0000
  C   C9        1.0  0.51043  0.01593  0.25022  1.0000
  C   C10       1.0  0.48941  0.98002  0.25698  1.0000
  H   H12       1.0  0.51674  0.02694  0.18828  1.0000
  O   O2        1.0  0.47637  0.96098  0.18145  1.0000
  H   H13       1.0  0.49581  0.96265  0.14738  1.0000
  N   N2        1.0  0.54321  0.07151  0.31743  1.0000
  H   H14       1.0  0.56184  0.07883  0.27448  1.0000
  C   C11       1.0  0.96458  0.48550  0.32715  1.0000
  C   C12       1.0  0.98550  0.49479  0.25028  1.0000
  H   H15       1.0  0.97449  0.49009  0.18834  1.0000
  O   O3        1.0  0.04045  0.51567  0.18149  1.0000
  H   H16       1.0  0.03878  0.53345  0.14742  1.0000
  N   N3        1.0  0.92992  0.47201  0.31752  1.0000
  H   H17       1.0  0.92264  0.48334  0.27455  1.0000
  C   C13       1.0  0.44347  0.86955  0.33268  1.0000
  C   C14       1.0  0.45704  0.84724  0.33839  1.0000
  C   C15       1.0  0.43548  0.81168  0.34927  1.0000
  C   C16       1.0  0.39948  0.79716  0.35315  1.0000
  C   C17       1.0  0.38578  0.81929  0.34797  1.0000
  C   C18       1.0  0.37765  0.76208  0.36285  1.0000
  C   C19       1.0  0.37883  0.73849  0.31020  1.0000
  C   C20       1.0  0.35659  0.70338  0.31747  1.0000
  C   C21       1.0  0.32062  0.68934  0.31681  1.0000
  C   C22       1.0  0.29806  0.65350  0.31734  1.0000
  C   C23       1.0  0.31210  0.63156  0.31675  1.0000
  C   C24       1.0  0.34794  0.64485  0.31735  1.0000
  C   C25       1.0  0.36988  0.68082  0.31685  1.0000
  C   C26       1.0  0.36081  0.62261  0.31010  1.0000
  C   C27       1.0  0.38558  0.62379  0.36277  1.0000
  C   C28       1.0  0.39883  0.60196  0.35308  1.0000
  C   C29       1.0  0.43467  0.61567  0.34789  1.0000
  C   C30       1.0  0.37736  0.56597  0.34920  1.0000
  C   C31       1.0  0.39136  0.54441  0.33828  1.0000
  C   C32       1.0  0.42724  0.55798  0.33261  1.0000
  C   C33       1.0  0.44861  0.59403  0.33760  1.0000
  C   C34       1.0  0.26295  0.64063  0.31008  1.0000
  C   C35       1.0  0.23936  0.61585  0.36271  1.0000
  C   C36       1.0  0.20428  0.60260  0.35303  1.0000
  C   C37       1.0  0.18976  0.62407  0.34919  1.0000
  C   C38       1.0  0.18215  0.56677  0.34784  1.0000
  C   C39       1.0  0.14656  0.55283  0.33758  1.0000
  C   C40       1.0  0.13189  0.57420  0.33268  1.0000
  C   C41       1.0  0.15420  0.61009  0.33835  1.0000
  H   H18       1.0  0.48294  0.85670  0.33583  1.0000
  H   H19       1.0  0.44633  0.79648  0.35406  1.0000
  H   H20       1.0  0.39590  0.69073  0.31378  1.0000
  H   H21       1.0  0.31071  0.70545  0.31376  1.0000
  H   H22       1.0  0.29598  0.60554  0.31366  1.0000
  H   H23       1.0  0.20497  0.65014  0.35399  1.0000
  H   H24       1.0  0.45097  0.64164  0.35004  1.0000
  H   H25       1.0  0.37492  0.51850  0.33573  1.0000
  H   H26       1.0  0.35130  0.55511  0.35399  1.0000
  H   H27       1.0  0.14474  0.62653  0.33583  1.0000
  H   H28       1.0  0.19181  0.55047  0.34998  1.0000
  H   H29       1.0  0.39599  0.64190  0.40941  1.0000
  H   H30       1.0  0.35069  0.60467  0.26295  1.0000
  H   H31       1.0  0.35953  0.75439  0.40945  1.0000
  H   H32       1.0  0.39678  0.74630  0.26307  1.0000
  H   H33       1.0  0.24705  0.60542  0.40933  1.0000
  H   H34       1.0  0.25514  0.65077  0.26296  1.0000
  C   C42       1.0  0.09598  0.56037  0.31938  1.0000
  C   C43       1.0  0.44109  0.53592  0.31923  1.0000
  C   C44       1.0  0.46554  0.90546  0.31936  1.0000
  O   O4        1.0  0.42119  0.50571  0.27688  1.0000
  O   O5        1.0  0.49573  0.91577  0.27687  1.0000
  O   O6        1.0  0.08567  0.58025  0.27691  1.0000
  C   C45       1.0  0.55827  0.13160  0.33627  1.0000
  C   C46       1.0  0.54469  0.15390  0.33059  1.0000
  C   C47       1.0  0.56626  0.18946  0.31972  1.0000
  C   C48       1.0  0.60225  0.20399  0.31586  1.0000
  C   C49       1.0  0.61596  0.18187  0.32102  1.0000
  C   C50       1.0  0.62408  0.23907  0.30616  1.0000
  C   C51       1.0  0.62290  0.26267  0.35877  1.0000
  C   C52       1.0  0.64514  0.29777  0.35147  1.0000
  C   C53       1.0  0.68111  0.31181  0.35211  1.0000
  C   C54       1.0  0.70368  0.34765  0.35149  1.0000
  C   C55       1.0  0.68963  0.36959  0.35208  1.0000
  C   C56       1.0  0.65379  0.35631  0.35149  1.0000
  C   C57       1.0  0.63186  0.32033  0.35207  1.0000
  C   C58       1.0  0.64092  0.37854  0.35879  1.0000
  C   C59       1.0  0.61616  0.37737  0.30614  1.0000
  C   C60       1.0  0.60291  0.39920  0.31584  1.0000
  C   C61       1.0  0.56707  0.38549  0.32099  1.0000
  C   C62       1.0  0.62437  0.43520  0.31972  1.0000
  C   C63       1.0  0.61037  0.45675  0.33061  1.0000
  C   C64       1.0  0.57448  0.44317  0.33629  1.0000
  C   C65       1.0  0.55312  0.40713  0.33132  1.0000
  C   C66       1.0  0.73878  0.36052  0.35879  1.0000
  C   C67       1.0  0.76237  0.38528  0.30612  1.0000
  C   C68       1.0  0.79745  0.39854  0.31582  1.0000
  C   C69       1.0  0.81198  0.37708  0.31972  1.0000
  C   C70       1.0  0.81957  0.43438  0.32100  1.0000
  C   C71       1.0  0.85516  0.44833  0.33131  1.0000
  C   C72       1.0  0.86985  0.42697  0.33626  1.0000
  C   C73       1.0  0.84754  0.39108  0.33059  1.0000
  H   H35       1.0  0.51879  0.14444  0.33311  1.0000
  H   H36       1.0  0.55540  0.20466  0.31492  1.0000
  H   H37       1.0  0.60584  0.31043  0.35518  1.0000
  H   H38       1.0  0.69102  0.29570  0.35518  1.0000
  H   H39       1.0  0.70575  0.39561  0.35518  1.0000
  H   H40       1.0  0.79678  0.35102  0.31495  1.0000
  H   H41       1.0  0.55077  0.35952  0.31891  1.0000
  H   H42       1.0  0.62680  0.48266  0.33316  1.0000
  H   H43       1.0  0.65043  0.44605  0.31494  1.0000
  H   H44       1.0  0.85701  0.37465  0.33316  1.0000
  H   H45       1.0  0.80990  0.45067  0.31883  1.0000
  H   H46       1.0  0.60574  0.35927  0.25948  1.0000
  H   H47       1.0  0.65105  0.39648  0.40595  1.0000
  H   H48       1.0  0.64218  0.24675  0.25951  1.0000
  H   H49       1.0  0.60495  0.25486  0.40592  1.0000
  H   H50       1.0  0.75468  0.39569  0.25944  1.0000
  H   H51       1.0  0.74659  0.35040  0.40597  1.0000
  C   C74       1.0  0.90576  0.44081  0.34961  1.0000
  C   C75       1.0  0.56064  0.46524  0.34964  1.0000
  C   C76       1.0  0.53621  0.09568  0.34960  1.0000
  O   O7        1.0  0.58051  0.49542  0.39213  1.0000
  O   O8        1.0  0.50602  0.08537  0.39209  1.0000
  O   O9        1.0  0.91607  0.42094  0.39207  1.0000
  C   C77       1.0  0.49504  0.51010  0.41890  1.0000
  C   C78       1.0  0.50994  0.48909  0.41215  1.0000
  C   C79       1.0  0.48574  0.52172  0.34203  1.0000
  O   O10       1.0  0.51595  0.47605  0.48767  1.0000
  H   H52       1.0  0.49034  0.51641  0.48083  1.0000
  H   H53       1.0  0.53372  0.49549  0.52174  1.0000
  N   N4        1.0  0.47219  0.54284  0.35172  1.0000
  H   H54       1.0  0.48354  0.56152  0.39452  1.0000
  C   C80       1.0  0.49134  0.98523  0.41888  1.0000
  C   C81       1.0  0.51235  0.02114  0.41213  1.0000
  C   C82       1.0  0.47972  0.96430  0.34201  1.0000
  O   O11       1.0  0.52540  0.04019  0.48764  1.0000
  H   H55       1.0  0.48503  0.97422  0.48082  1.0000
  H   H56       1.0  0.50596  0.03852  0.52172  1.0000
  N   N5        1.0  0.45860  0.92965  0.35171  1.0000
  H   H57       1.0  0.43991  0.92231  0.39451  1.0000
  C   C83       1.0  0.98030  0.49151  0.41218  1.0000
  C   C84       1.0  0.03713  0.51570  0.34205  1.0000
  O   O12       1.0  0.96126  0.48551  0.48770  1.0000
  H   H58       1.0  0.02722  0.51110  0.48086  1.0000
  H   H59       1.0  0.96292  0.46773  0.52176  1.0000
  N   N6        1.0  0.07179  0.52924  0.35174  1.0000
  H   H60       1.0  0.07912  0.51789  0.39453  1.0000
