data_image0
_chemical_formula_structural       C5H5CHNC9H5CHC3H3NCHCHC3HC2H2C3H3NCHNC4H3C3H2NC2HNC7H3C2H2C2H3C3H2CH3C2H3C2HN2C5H3CHC2H3
_chemical_formula_sum              "C66 H54 N8"
_cell_length_a       32.0808
_cell_length_b       32.0798
_cell_length_c       14.4149
_cell_angle_alpha    90
_cell_angle_beta     90
_cell_angle_gamma    120.002

_space_group_name_H-M_alt    "P 1"
_space_group_IT_number       1

loop_
  _space_group_symop_operation_xyz
  'x, y, z'

loop_
  _atom_site_type_symbol
  _atom_site_label
  _atom_site_symmetry_multiplicity
  _atom_site_fract_x
  _atom_site_fract_y
  _atom_site_fract_z
  _atom_site_occupancy
  C   C1        1.0  0.41337  0.76815  0.30883  1.0000
  C   C2        1.0  0.28260  0.65537  0.30881  1.0000
  C   C3        1.0  0.23209  0.62625  0.31546  1.0000
  C   C4        1.0  0.39537  0.63737  0.30885  1.0000
  C   C5        1.0  0.42447  0.61596  0.31553  1.0000
  H   H1        1.0  0.41817  0.75334  0.24983  1.0000
  H   H2        1.0  0.29742  0.67498  0.24981  1.0000
  H   H3        1.0  0.21140  0.62515  0.26045  1.0000
  H   H4        1.0  0.37576  0.63257  0.24985  1.0000
  H   H5        1.0  0.42559  0.59638  0.26051  1.0000
  C   C6        1.0  0.05552  0.52794  0.29676  1.0000
  H   H6        1.0  0.07323  0.53212  0.23532  1.0000
  N   N1        1.0  0.36378  0.68696  0.37547  1.0000
  C   C7        1.0  0.31279  0.65748  0.38215  1.0000
  C   C8        1.0  0.38528  0.73795  0.38217  1.0000
  C   C9        1.0  0.39326  0.66546  0.38217  1.0000
  C   C10       1.0  0.40033  0.80992  0.46901  1.0000
  C   C11       1.0  0.37940  0.75957  0.46265  1.0000
  C   C12       1.0  0.21030  0.59814  0.39563  1.0000
  C   C13       1.0  0.24083  0.60056  0.46899  1.0000
  C   C14       1.0  0.29118  0.62999  0.46264  1.0000
  C   C15       1.0  0.42075  0.67134  0.46266  1.0000
  H   H7        1.0  0.39482  0.82410  0.52831  1.0000
  H   H8        1.0  0.35948  0.73858  0.51703  1.0000
  H   H9        1.0  0.31216  0.63104  0.51701  1.0000
  H   H10       1.0  0.22664  0.58088  0.52829  1.0000
  H   H11       1.0  0.41969  0.69127  0.51703  1.0000
  C   C16       1.0  0.16074  0.56737  0.40329  1.0000
  H   H12       1.0  0.14917  0.53735  0.44044  1.0000
  C   C17       1.0  0.08147  0.55079  0.37778  1.0000
  C   C18       1.0  0.05603  0.54497  0.46245  1.0000
  C   C19       1.0  0.08256  0.57194  0.54748  1.0000
  H   H13       1.0  0.12031  0.59823  0.53510  1.0000
  H   H14       1.0  0.08128  0.54685  0.59998  1.0000
  H   H15       1.0  0.06617  0.59197  0.57544  1.0000
  N   N2        1.0  0.12942  0.57722  0.36965  1.0000
  C   C20       1.0  0.43478  0.81866  0.31550  1.0000
  H   H16       1.0  0.45434  0.83936  0.26046  1.0000
  C   C21       1.0  0.51301  0.99522  0.29678  1.0000
  H   H17       1.0  0.49947  0.97751  0.23535  1.0000
  C   C22       1.0  0.42842  0.84045  0.39565  1.0000
  C   C23       1.0  0.45259  0.62230  0.39571  1.0000
  C   C24       1.0  0.45016  0.65041  0.46904  1.0000
  H   H18       1.0  0.46985  0.65591  0.52835  1.0000
  C   C25       1.0  0.48334  0.60350  0.40341  1.0000
  C   C26       1.0  0.44721  0.89000  0.40330  1.0000
  H   H19       1.0  0.51337  0.62194  0.44052  1.0000
  H   H20       1.0  0.42877  0.90158  0.44047  1.0000
  C   C27       1.0  0.49993  0.54081  0.37782  1.0000
  C   C28       1.0  0.50575  0.52117  0.46246  1.0000
  C   C29       1.0  0.47876  0.52069  0.54750  1.0000
  H   H21       1.0  0.45249  0.53217  0.53515  1.0000
  H   H22       1.0  0.50386  0.54448  0.60004  1.0000
  H   H23       1.0  0.45872  0.48427  0.57539  1.0000
  N   N3        1.0  0.47351  0.56234  0.36973  1.0000
  C   C30       1.0  0.50992  0.96927  0.37780  1.0000
  H   H24       1.0  0.50620  0.96951  0.60002  1.0000
  N   N4        1.0  0.48839  0.92133  0.36969  1.0000
  C   C31       1.0  0.64721  0.27324  0.30527  1.0000
  C   C32       1.0  0.62660  0.22274  0.30878  1.0000
  C   C33       1.0  0.66661  0.40353  0.30521  1.0000
  C   C34       1.0  0.63672  0.42414  0.30869  1.0000
  H   H25       1.0  0.64167  0.28867  0.24801  1.0000
  H   H26       1.0  0.60690  0.20260  0.25331  1.0000
  H   H27       1.0  0.63629  0.44384  0.25321  1.0000
  C   C35       1.0  0.55889  0.49756  0.38154  1.0000
  C   C36       1.0  0.55170  0.51633  0.29859  1.0000
  C   C37       1.0  0.52280  0.53776  0.29679  1.0000
  H   H28       1.0  0.51864  0.55131  0.23537  1.0000
  H   H29       1.0  0.56750  0.51443  0.23821  1.0000
  N   N5        1.0  0.58674  0.47749  0.37588  1.0000
  C   C38       1.0  0.55319  0.07149  0.38158  1.0000
  C   C39       1.0  0.53444  0.04554  0.29860  1.0000
  H   H30       1.0  0.53636  0.06325  0.23823  1.0000
  N   N6        1.0  0.57327  0.11941  0.37593  1.0000
  C   C40       1.0  0.67582  0.30260  0.37905  1.0000
  C   C41       1.0  0.66737  0.37494  0.37902  1.0000
  C   C42       1.0  0.63449  0.20033  0.38604  1.0000
  C   C43       1.0  0.66301  0.22985  0.45996  1.0000
  C   C44       1.0  0.60645  0.41629  0.38596  1.0000
  C   C45       1.0  0.60743  0.38776  0.45989  1.0000
  C   C46       1.0  0.63783  0.36783  0.45688  1.0000
  H   H31       1.0  0.66978  0.21497  0.51678  1.0000
  H   H32       1.0  0.58578  0.38101  0.51671  1.0000
  H   H33       1.0  0.63771  0.34731  0.51128  1.0000
  C   C47       1.0  0.57391  0.43287  0.38824  1.0000
  C   C48       1.0  0.61788  0.15120  0.38838  1.0000
  H   H34       1.0  0.53996  0.40957  0.40559  1.0000
  H   H35       1.0  0.64118  0.14054  0.40571  1.0000
  C   C49       1.0  0.53712  0.50131  0.46520  1.0000
  C   C50       1.0  0.54759  0.48544  0.55555  1.0000
  H   H36       1.0  0.57578  0.47598  0.55126  1.0000
  H   H37       1.0  0.51516  0.45407  0.58154  1.0000
  H   H38       1.0  0.55988  0.51441  0.60639  1.0000
  C   C51       1.0  0.52955  0.99472  0.46247  1.0000
  C   C52       1.0  0.54942  0.04596  0.46523  1.0000
  C   C53       1.0  0.52999  0.96820  0.54750  1.0000
  H   H39       1.0  0.51851  0.93044  0.53513  1.0000
  H   H40       1.0  0.56641  0.98457  0.57543  1.0000
  C   C54       1.0  0.56526  0.07228  0.55560  1.0000
  H   H41       1.0  0.57473  0.10993  0.55132  1.0000
  H   H42       1.0  0.59663  0.07122  0.58163  1.0000
  H   H43       1.0  0.53629  0.05560  0.60641  1.0000
  C   C55       1.0  0.77752  0.38414  0.30528  1.0000
  C   C56       1.0  0.82802  0.41403  0.30881  1.0000
  H   H44       1.0  0.76209  0.36315  0.24804  1.0000
  H   H45       1.0  0.84817  0.41443  0.25338  1.0000
  H   H46       1.0  0.68759  0.40906  0.24796  1.0000
  C   C57       1.0  0.97927  0.49183  0.38158  1.0000
  C   C58       1.0  0.00521  0.49905  0.29859  1.0000
  H   H47       1.0  0.98749  0.48326  0.23822  1.0000
  N   N7        1.0  0.93134  0.46398  0.37597  1.0000
  N   N8        1.0  0.69711  0.35364  0.37515  1.0000
  C   C59       1.0  0.74815  0.38339  0.37905  1.0000
  C   C60       1.0  0.68293  0.28018  0.45692  1.0000
  C   C61       1.0  0.85042  0.44432  0.38608  1.0000
  C   C62       1.0  0.82090  0.44333  0.45998  1.0000
  C   C63       1.0  0.77058  0.41294  0.45691  1.0000
  H   H48       1.0  0.70346  0.30060  0.51130  1.0000
  H   H49       1.0  0.75015  0.41305  0.51128  1.0000
  H   H50       1.0  0.83577  0.46497  0.51681  1.0000
  C   C64       1.0  0.89956  0.47680  0.38850  1.0000
  H   H51       1.0  0.91023  0.51077  0.40573  1.0000
  C   C65       1.0  0.00480  0.51358  0.46523  1.0000
  C   C66       1.0  0.97849  0.50309  0.55562  1.0000
  H   H52       1.0  0.94085  0.47489  0.55136  1.0000
  H   H53       1.0  0.97954  0.53551  0.58166  1.0000
  H   H54       1.0  0.99520  0.49081  0.60641  1.0000
