data_image0
_chemical_formula_structural       CHOHC5OH3C6O2H4C6O2H4C2NC2HNCHC2NC2HNCHC2NC2HNCHC2NC2HNCHC2NC2HNCHC2NC2HNCHC3HOC3OC3HOC3OHC3HOC3OHC2HC3N2HC2HC3N2HC2HC3N2HC2HC3N2HC2HC3N2HC2HC3N2H
_chemical_formula_sum              "C96 H42 O12 N24"
_cell_length_a       31.4053
_cell_length_b       31.4052
_cell_length_c       14.9585
_cell_angle_alpha    90
_cell_angle_beta     90
_cell_angle_gamma    120

_space_group_name_H-M_alt    "P 1"
_space_group_IT_number       1

loop_
  _space_group_symop_operation_xyz
  'x, y, z'

loop_
  _atom_site_type_symbol
  _atom_site_label
  _atom_site_symmetry_multiplicity
  _atom_site_fract_x
  _atom_site_fract_y
  _atom_site_fract_z
  _atom_site_occupancy
  C   C1        1.0  0.02900  0.51545  0.33093  1.0000
  H   H1        1.0  0.02857  0.58552  0.22078  1.0000
  O   O1        1.0  0.03627  0.59387  0.28432  1.0000
  H   H2        1.0  0.03985  0.45590  0.36826  1.0000
  C   C2        1.0  0.97519  0.48734  0.33099  1.0000
  C   C3        1.0  0.89541  0.40856  0.32539  1.0000
  C   C4        1.0  0.94717  0.43540  0.31425  1.0000
  C   C5        1.0  0.05701  0.56737  0.31406  1.0000
  C   C6        1.0  0.10879  0.59423  0.32506  1.0000
  O   O2        1.0  0.96790  0.40888  0.28459  1.0000
  H   H3        1.0  0.97557  0.41718  0.22103  1.0000
  H   H4        1.0  0.80713  0.40375  0.28220  1.0000
  H   H5        1.0  0.19704  0.59899  0.28175  1.0000
  C   C7        1.0  0.51613  0.48855  0.33102  1.0000
  C   C8        1.0  0.59491  0.48755  0.32520  1.0000
  C   C9        1.0  0.56805  0.51245  0.31412  1.0000
  C   C10       1.0  0.48800  0.51423  0.33099  1.0000
  C   C11       1.0  0.43607  0.49030  0.31417  1.0000
  C   C12       1.0  0.40921  0.51521  0.32521  1.0000
  O   O3        1.0  0.59455  0.55970  0.28441  1.0000
  O   O4        1.0  0.40955  0.44303  0.28459  1.0000
  H   H6        1.0  0.58622  0.55905  0.22087  1.0000
  H   H7        1.0  0.41786  0.44364  0.22104  1.0000
  H   H8        1.0  0.59966  0.40405  0.28187  1.0000
  H   H9        1.0  0.40439  0.59868  0.28202  1.0000
  C   C13       1.0  0.51494  0.02832  0.33085  1.0000
  C   C14       1.0  0.51592  0.10809  0.32516  1.0000
  C   C15       1.0  0.49101  0.05632  0.31407  1.0000
  C   C16       1.0  0.48925  0.97451  0.33090  1.0000
  C   C17       1.0  0.51317  0.94650  0.31409  1.0000
  C   C18       1.0  0.48825  0.89473  0.32525  1.0000
  O   O5        1.0  0.44375  0.03558  0.28446  1.0000
  O   O6        1.0  0.56040  0.96722  0.28433  1.0000
  H   H10       1.0  0.44436  0.02787  0.22092  1.0000
  H   H11       1.0  0.55973  0.97488  0.22078  1.0000
  H   H12       1.0  0.59940  0.19640  0.28201  1.0000
  H   H13       1.0  0.40477  0.80644  0.28219  1.0000
  C   C19       1.0  0.35697  0.49052  0.32817  1.0000
  C   C20       1.0  0.32961  0.48505  0.24972  1.0000
  N   N1        1.0  0.28365  0.47886  0.25551  1.0000
  C   C21       1.0  0.26120  0.47650  0.33465  1.0000
  C   C22       1.0  0.21644  0.47676  0.33942  1.0000
  H   H14       1.0  0.34555  0.49047  0.18808  1.0000
  N   N2        1.0  0.19246  0.47803  0.26484  1.0000
  C   C23       1.0  0.15267  0.48417  0.26751  1.0000
  H   H15       1.0  0.13903  0.48850  0.20826  1.0000
  C   C24       1.0  0.51295  0.86717  0.32811  1.0000
  C   C25       1.0  0.51852  0.84540  0.24962  1.0000
  N   N3        1.0  0.52455  0.80552  0.25545  1.0000
  C   C26       1.0  0.52687  0.78541  0.33460  1.0000
  C   C27       1.0  0.52661  0.74040  0.33936  1.0000
  H   H16       1.0  0.51287  0.85577  0.18802  1.0000
  N   N4        1.0  0.52533  0.71513  0.26478  1.0000
  C   C28       1.0  0.51914  0.66918  0.26751  1.0000
  H   H17       1.0  0.51497  0.65124  0.20830  1.0000
  C   C29       1.0  0.13634  0.64648  0.32772  1.0000
  C   C30       1.0  0.15830  0.67390  0.24938  1.0000
  N   N5        1.0  0.19813  0.71982  0.25531  1.0000
  C   C31       1.0  0.21816  0.74220  0.33452  1.0000
  C   C32       1.0  0.26317  0.78695  0.33947  1.0000
  H   H18       1.0  0.14784  0.65793  0.18775  1.0000
  N   N6        1.0  0.28847  0.81101  0.26498  1.0000
  C   C33       1.0  0.33437  0.85087  0.26778  1.0000
  H   H19       1.0  0.35240  0.86454  0.20861  1.0000
  C   C34       1.0  0.64716  0.51223  0.32781  1.0000
  C   C35       1.0  0.67456  0.51767  0.24945  1.0000
  N   N7        1.0  0.72051  0.52383  0.25531  1.0000
  C   C36       1.0  0.74292  0.52617  0.33448  1.0000
  C   C37       1.0  0.78770  0.52596  0.33934  1.0000
  H   H20       1.0  0.65865  0.51229  0.18780  1.0000
  N   N8        1.0  0.81174  0.52471  0.26480  1.0000
  C   C38       1.0  0.85156  0.51861  0.26755  1.0000
  H   H21       1.0  0.86522  0.51429  0.20834  1.0000
  C   C39       1.0  0.49123  0.13564  0.32813  1.0000
  C   C40       1.0  0.48575  0.15753  0.24969  1.0000
  N   N9        1.0  0.47956  0.19730  0.25551  1.0000
  C   C41       1.0  0.47718  0.21736  0.33466  1.0000
  C   C42       1.0  0.47744  0.26237  0.33946  1.0000
  H   H22       1.0  0.49118  0.14702  0.18805  1.0000
  N   N10       1.0  0.47871  0.28764  0.26491  1.0000
  C   C43       1.0  0.48486  0.33358  0.26764  1.0000
  H   H23       1.0  0.48918  0.35154  0.20840  1.0000
  C   C44       1.0  0.86785  0.35632  0.32830  1.0000
  C   C45       1.0  0.84608  0.32896  0.24980  1.0000
  N   N11       1.0  0.80620  0.28304  0.25557  1.0000
  C   C46       1.0  0.78607  0.26059  0.33468  1.0000
  C   C47       1.0  0.74106  0.21583  0.33938  1.0000
  H   H24       1.0  0.85646  0.34498  0.18821  1.0000
  N   N12       1.0  0.71582  0.19187  0.26476  1.0000
  C   C48       1.0  0.66987  0.15211  0.26741  1.0000
  H   H25       1.0  0.65192  0.13834  0.20818  1.0000
  C   C49       1.0  0.94734  0.51070  0.35111  1.0000
  C   C50       1.0  0.89554  0.48566  0.34939  1.0000
  C   C51       1.0  0.86961  0.43418  0.33875  1.0000
  H   H26       1.0  0.96437  0.54692  0.36816  1.0000
  O   O7        1.0  0.81935  0.40913  0.34405  1.0000
  C   C52       1.0  0.13459  0.56863  0.33843  1.0000
  C   C53       1.0  0.10867  0.51715  0.34921  1.0000
  C   C54       1.0  0.05686  0.49211  0.35108  1.0000
  O   O8        1.0  0.18486  0.59367  0.34362  1.0000
  C   C55       1.0  0.49279  0.43735  0.35119  1.0000
  C   C56       1.0  0.51783  0.41059  0.34934  1.0000
  C   C57       1.0  0.56930  0.43613  0.33856  1.0000
  H   H27       1.0  0.45658  0.41815  0.36834  1.0000
  O   O9        1.0  0.59434  0.41091  0.34374  1.0000
  C   C58       1.0  0.43481  0.56663  0.33858  1.0000
  C   C59       1.0  0.48629  0.59218  0.34920  1.0000
  C   C60       1.0  0.51135  0.56544  0.35105  1.0000
  O   O10       1.0  0.40975  0.59183  0.34387  1.0000
  H   H28       1.0  0.54757  0.58465  0.36814  1.0000
  C   C61       1.0  0.56615  0.05618  0.35092  1.0000
  C   C62       1.0  0.59290  0.10798  0.34909  1.0000
  C   C63       1.0  0.56733  0.13390  0.33850  1.0000
  H   H29       1.0  0.58537  0.03917  0.36800  1.0000
  O   O11       1.0  0.59254  0.18416  0.34384  1.0000
  C   C64       1.0  0.43685  0.86893  0.33869  1.0000
  C   C65       1.0  0.41130  0.89487  0.34933  1.0000
  C   C66       1.0  0.43806  0.94667  0.35112  1.0000
  O   O12       1.0  0.41163  0.81867  0.34403  1.0000
  H   H30       1.0  0.41887  0.96369  0.36826  1.0000
  C   C67       1.0  0.28641  0.48007  0.41535  1.0000
  C   C68       1.0  0.33389  0.48612  0.41164  1.0000
  H   H31       1.0  0.35375  0.49355  0.46958  1.0000
  C   C69       1.0  0.13552  0.49184  0.35004  1.0000
  C   C70       1.0  0.15861  0.48923  0.42928  1.0000
  C   C71       1.0  0.19914  0.48162  0.42433  1.0000
  N   N13       1.0  0.22533  0.48403  0.49829  1.0000
  N   N14       1.0  0.26652  0.48316  0.49405  1.0000
  H   H32       1.0  0.14959  0.49813  0.48945  1.0000
  C   C72       1.0  0.52336  0.80708  0.41531  1.0000
  C   C73       1.0  0.51727  0.84847  0.41161  1.0000
  H   H33       1.0  0.50999  0.86105  0.46953  1.0000
  C   C74       1.0  0.51157  0.64433  0.35001  1.0000
  C   C75       1.0  0.51414  0.67010  0.42915  1.0000
  C   C76       1.0  0.52179  0.71825  0.42426  1.0000
  N   N15       1.0  0.51945  0.74206  0.49824  1.0000
  N   N16       1.0  0.52033  0.78412  0.49401  1.0000
  H   H34       1.0  0.50543  0.65222  0.48937  1.0000
  C   C77       1.0  0.19646  0.71695  0.41515  1.0000
  C   C78       1.0  0.15507  0.66947  0.41128  1.0000
  H   H35       1.0  0.14244  0.64959  0.46918  1.0000
  C   C79       1.0  0.35914  0.86802  0.35040  1.0000
  C   C80       1.0  0.33337  0.84475  0.42947  1.0000
  C   C81       1.0  0.28525  0.80425  0.42443  1.0000
  N   N17       1.0  0.26139  0.77801  0.49831  1.0000
  N   N18       1.0  0.21935  0.73680  0.49393  1.0000
  H   H36       1.0  0.35125  0.85387  0.48969  1.0000
  C   C82       1.0  0.71766  0.52255  0.41514  1.0000
  C   C83       1.0  0.67016  0.51640  0.41132  1.0000
  H   H37       1.0  0.65036  0.50923  0.46930  1.0000
  C   C84       1.0  0.86868  0.51096  0.35013  1.0000
  C   C85       1.0  0.84555  0.51356  0.42933  1.0000
  C   C86       1.0  0.80499  0.52110  0.42427  1.0000
  N   N19       1.0  0.77877  0.51870  0.49820  1.0000
  N   N20       1.0  0.73755  0.51951  0.49388  1.0000
  H   H38       1.0  0.85455  0.50467  0.48953  1.0000
  C   C87       1.0  0.48075  0.19570  0.41535  1.0000
  C   C88       1.0  0.48681  0.15429  0.41162  1.0000
  H   H39       1.0  0.49424  0.14186  0.46955  1.0000
  C   C89       1.0  0.49253  0.35844  0.35015  1.0000
  C   C90       1.0  0.48990  0.33266  0.42931  1.0000
  C   C91       1.0  0.48229  0.28453  0.42437  1.0000
  N   N21       1.0  0.48469  0.26074  0.49832  1.0000
  N   N22       1.0  0.48383  0.21868  0.49405  1.0000
  H   H40       1.0  0.49879  0.35056  0.48951  1.0000
  C   C92       1.0  0.80771  0.28574  0.41541  1.0000
  C   C93       1.0  0.84910  0.33323  0.41175  1.0000
  H   H41       1.0  0.86166  0.35307  0.46969  1.0000
  C   C94       1.0  0.64506  0.13486  0.34993  1.0000
  C   C95       1.0  0.67075  0.15797  0.42917  1.0000
  C   C96       1.0  0.71889  0.19847  0.42428  1.0000
  N   N23       1.0  0.74269  0.22461  0.49828  1.0000
  N   N24       1.0  0.78475  0.26580  0.49410  1.0000
  H   H42       1.0  0.65283  0.14878  0.48935  1.0000
