data_image0
_chemical_formula_structural       C15H12C4H2C4H2C2NC2NC5NC3NC17H14N4C15H12C4H2C4H2C2NC2NC5NC3NC17H14N4C15H12C4H2C4H2C2NC2NC5NC3NC17H14N4C15H12C4H2C4H2C2NC2NC5NC3NC17H14N4
_chemical_formula_sum              "C208 H120 N32"
_cell_length_a       42.6498
_cell_length_b       42.6498
_cell_length_c       14.936
_cell_angle_alpha    90
_cell_angle_beta     90
_cell_angle_gamma    90

_space_group_name_H-M_alt    "P 1"
_space_group_IT_number       1

loop_
  _space_group_symop_operation_xyz
  'x, y, z'

loop_
  _atom_site_type_symbol
  _atom_site_label
  _atom_site_symmetry_multiplicity
  _atom_site_fract_x
  _atom_site_fract_y
  _atom_site_fract_z
  _atom_site_occupancy
  C   C1        1.0  0.43549  0.47197  0.34976  1.0000
  C   C2        1.0  0.03242  0.43472  0.34948  1.0000
  C   C3        1.0  0.50047  0.08405  0.34870  1.0000
  C   C4        1.0  0.47093  0.06859  0.34936  1.0000
  C   C5        1.0  0.41896  0.06006  0.34715  1.0000
  C   C6        1.0  0.44160  0.08316  0.34794  1.0000
  C   C7        1.0  0.33819  0.49243  0.25434  1.0000
  C   C8        1.0  0.37108  0.49272  0.26137  1.0000
  C   C9        1.0  0.50038  0.11751  0.34231  1.0000
  C   C10       1.0  0.49247  0.16514  0.25362  1.0000
  C   C11       1.0  0.49265  0.13226  0.26068  1.0000
  C   C12       1.0  0.13225  0.01069  0.26150  1.0000
  C   C13       1.0  0.16514  0.01103  0.25444  1.0000
  C   C14       1.0  0.01072  0.37106  0.26076  1.0000
  C   C15       1.0  0.01091  0.33818  0.25367  1.0000
  H   H1        1.0  0.01760  0.32892  0.19367  1.0000
  H   H2        1.0  0.01661  0.38422  0.20593  1.0000
  H   H3        1.0  0.43991  0.39634  0.34474  1.0000
  H   H4        1.0  0.11907  0.01654  0.20668  1.0000
  H   H5        1.0  0.17438  0.01783  0.19449  1.0000
  H   H6        1.0  0.06344  0.10697  0.34504  1.0000
  H   H7        1.0  0.39538  0.06423  0.34480  1.0000
  H   H8        1.0  0.43698  0.10666  0.34653  1.0000
  H   H9        1.0  0.48677  0.11910  0.20584  1.0000
  H   H10       1.0  0.48579  0.17441  0.19361  1.0000
  H   H11       1.0  0.38425  0.48693  0.20648  1.0000
  H   H12       1.0  0.32892  0.48570  0.19436  1.0000
  C   C16       1.0  0.00226  0.28496  0.32029  1.0000
  C   C17       1.0  0.00189  0.26814  0.23858  1.0000
  C   C18       1.0  0.00154  0.23518  0.23858  1.0000
  C   C19       1.0  0.00112  0.21835  0.32027  1.0000
  H   H13       1.0  0.00206  0.22401  0.17819  1.0000
  H   H14       1.0  0.00140  0.27931  0.17820  1.0000
  C   C20       1.0  0.21838  0.00236  0.32091  1.0000
  C   C21       1.0  0.23521  0.00213  0.23921  1.0000
  C   C22       1.0  0.26817  0.00172  0.23923  1.0000
  C   C23       1.0  0.28498  0.00110  0.32093  1.0000
  H   H15       1.0  0.27937  0.00235  0.17888  1.0000
  H   H16       1.0  0.22404  0.00178  0.17881  1.0000
  C   C24       1.0  0.44420  0.41989  0.34728  1.0000
  C   C25       1.0  0.42110  0.44253  0.34824  1.0000
  N   N1        1.0  0.46674  0.46598  0.35169  1.0000
  C   C26       1.0  0.47335  0.43486  0.34976  1.0000
  C   C27       1.0  0.50288  0.41925  0.34881  1.0000
  N   N2        1.0  0.03819  0.46590  0.35099  1.0000
  C   C28       1.0  0.06926  0.47228  0.34974  1.0000
  C   C29       1.0  0.08439  0.44325  0.34726  1.0000
  C   C30       1.0  0.06175  0.42015  0.34810  1.0000
  C   C31       1.0  0.08409  0.50213  0.34919  1.0000
  C   C32       1.0  0.06786  0.03134  0.34993  1.0000
  N   N3        1.0  0.03661  0.03732  0.35175  1.0000
  C   C33       1.0  0.03000  0.06845  0.34984  1.0000
  C   C34       1.0  0.05915  0.08342  0.34760  1.0000
  C   C35       1.0  0.08225  0.06078  0.34860  1.0000
  N   N4        1.0  0.46516  0.03741  0.35091  1.0000
  C   C36       1.0  0.43409  0.03103  0.34970  1.0000
  C   C37       1.0  0.41926  0.50117  0.34903  1.0000
  C   C38       1.0  0.38581  0.50059  0.34292  1.0000
  C   C39       1.0  0.36677  0.00816  0.41715  1.0000
  C   C40       1.0  0.33384  0.00825  0.40939  1.0000
  C   C41       1.0  0.31863  0.50060  0.32767  1.0000
  C   C42       1.0  0.00799  0.13654  0.41654  1.0000
  C   C43       1.0  0.00822  0.16946  0.40871  1.0000
  C   C44       1.0  0.50063  0.18470  0.32697  1.0000
  C   C45       1.0  0.11754  0.50272  0.34300  1.0000
  C   C46       1.0  0.18473  0.50281  0.32766  1.0000
  C   C47       1.0  0.16953  0.49504  0.40931  1.0000
  C   C48       1.0  0.13661  0.49509  0.41713  1.0000
  C   C49       1.0  0.50297  0.38580  0.34239  1.0000
  C   C50       1.0  0.49535  0.36677  0.41660  1.0000
  C   C51       1.0  0.49515  0.33384  0.40875  1.0000
  C   C52       1.0  0.50274  0.31861  0.32701  1.0000
  H   H17       1.0  0.48899  0.32109  0.46403  1.0000
  H   H18       1.0  0.48963  0.37679  0.47669  1.0000
  H   H19       1.0  0.39762  0.43778  0.34694  1.0000
  H   H20       1.0  0.48249  0.48205  0.35317  1.0000
  H   H21       1.0  0.02085  0.02125  0.35279  1.0000
  H   H22       1.0  0.06637  0.39664  0.34677  1.0000
  H   H23       1.0  0.10797  0.43907  0.34498  1.0000
  H   H24       1.0  0.12661  0.48916  0.47709  1.0000
  H   H25       1.0  0.18229  0.48882  0.46451  1.0000
  H   H26       1.0  0.10573  0.06553  0.34740  1.0000
  H   H27       1.0  0.01370  0.12651  0.47663  1.0000
  H   H28       1.0  0.01436  0.18221  0.46402  1.0000
  H   H29       1.0  0.32109  0.01444  0.46462  1.0000
  H   H30       1.0  0.37678  0.01404  0.47713  1.0000
  N   N5        1.0  0.00140  0.23630  0.39576  1.0000
  N   N6        1.0  0.00194  0.26701  0.39577  1.0000
  N   N7        1.0  0.26703  0.00127  0.39641  1.0000
  N   N8        1.0  0.23633  0.00185  0.39639  1.0000
  C   C53       1.0  0.43549  0.97197  0.34976  1.0000
  C   C54       1.0  0.03242  0.93472  0.34948  1.0000
  C   C55       1.0  0.50047  0.58405  0.34870  1.0000
  C   C56       1.0  0.47093  0.56859  0.34936  1.0000
  C   C57       1.0  0.41896  0.56006  0.34715  1.0000
  C   C58       1.0  0.44160  0.58316  0.34794  1.0000
  C   C59       1.0  0.33819  0.99243  0.25434  1.0000
  C   C60       1.0  0.37108  0.99272  0.26137  1.0000
  C   C61       1.0  0.50038  0.61751  0.34231  1.0000
  C   C62       1.0  0.49247  0.66514  0.25362  1.0000
  C   C63       1.0  0.49265  0.63226  0.26068  1.0000
  C   C64       1.0  0.13225  0.51068  0.26150  1.0000
  C   C65       1.0  0.16514  0.51104  0.25444  1.0000
  C   C66       1.0  0.01072  0.87106  0.26076  1.0000
  C   C67       1.0  0.01091  0.83818  0.25367  1.0000
  H   H31       1.0  0.01760  0.82892  0.19367  1.0000
  H   H32       1.0  0.01661  0.88422  0.20593  1.0000
  H   H33       1.0  0.43991  0.89634  0.34474  1.0000
  H   H34       1.0  0.11907  0.51653  0.20668  1.0000
  H   H35       1.0  0.17438  0.51782  0.19449  1.0000
  H   H36       1.0  0.06344  0.60697  0.34504  1.0000
  H   H37       1.0  0.39538  0.56423  0.34480  1.0000
  H   H38       1.0  0.43698  0.60666  0.34653  1.0000
  H   H39       1.0  0.48677  0.61910  0.20584  1.0000
  H   H40       1.0  0.48579  0.67441  0.19361  1.0000
  H   H41       1.0  0.38425  0.98693  0.20648  1.0000
  H   H42       1.0  0.32892  0.98570  0.19436  1.0000
  C   C68       1.0  0.00226  0.78496  0.32029  1.0000
  C   C69       1.0  0.00189  0.76813  0.23858  1.0000
  C   C70       1.0  0.00154  0.73518  0.23858  1.0000
  C   C71       1.0  0.00112  0.71835  0.32027  1.0000
  H   H43       1.0  0.00206  0.72400  0.17819  1.0000
  H   H44       1.0  0.00140  0.77931  0.17820  1.0000
  C   C72       1.0  0.21838  0.50236  0.32091  1.0000
  C   C73       1.0  0.23521  0.50213  0.23921  1.0000
  C   C74       1.0  0.26817  0.50172  0.23923  1.0000
  C   C75       1.0  0.28498  0.50110  0.32093  1.0000
  H   H45       1.0  0.27937  0.50235  0.17888  1.0000
  H   H46       1.0  0.22404  0.50178  0.17881  1.0000
  C   C76       1.0  0.44420  0.91989  0.34728  1.0000
  C   C77       1.0  0.42110  0.94253  0.34824  1.0000
  N   N9        1.0  0.46674  0.96598  0.35169  1.0000
  C   C78       1.0  0.47335  0.93486  0.34976  1.0000
  C   C79       1.0  0.50288  0.91926  0.34881  1.0000
  N   N10       1.0  0.03819  0.96590  0.35099  1.0000
  C   C80       1.0  0.06926  0.97228  0.34974  1.0000
  C   C81       1.0  0.08439  0.94325  0.34726  1.0000
  C   C82       1.0  0.06175  0.92015  0.34810  1.0000
  C   C83       1.0  0.08409  0.00214  0.34919  1.0000
  C   C84       1.0  0.06786  0.53134  0.34993  1.0000
  N   N11       1.0  0.03661  0.53732  0.35175  1.0000
  C   C85       1.0  0.03000  0.56845  0.34984  1.0000
  C   C86       1.0  0.05915  0.58342  0.34760  1.0000
  C   C87       1.0  0.08225  0.56078  0.34860  1.0000
  N   N12       1.0  0.46516  0.53741  0.35091  1.0000
  C   C88       1.0  0.43409  0.53102  0.34970  1.0000
  C   C89       1.0  0.41926  0.00117  0.34903  1.0000
  C   C90       1.0  0.38581  0.00059  0.34292  1.0000
  C   C91       1.0  0.36677  0.50816  0.41715  1.0000
  C   C92       1.0  0.33384  0.50825  0.40939  1.0000
  C   C93       1.0  0.31863  0.00060  0.32767  1.0000
  C   C94       1.0  0.00799  0.63654  0.41654  1.0000
  C   C95       1.0  0.00822  0.66946  0.40871  1.0000
  C   C96       1.0  0.50063  0.68470  0.32697  1.0000
  C   C97       1.0  0.11754  0.00273  0.34300  1.0000
  C   C98       1.0  0.18473  0.00281  0.32766  1.0000
  C   C99       1.0  0.16953  0.99504  0.40931  1.0000
  C   C100      1.0  0.13661  0.99509  0.41713  1.0000
  C   C101      1.0  0.50297  0.88580  0.34239  1.0000
  C   C102      1.0  0.49535  0.86677  0.41660  1.0000
  C   C103      1.0  0.49515  0.83384  0.40875  1.0000
  C   C104      1.0  0.50274  0.81861  0.32701  1.0000
  H   H47       1.0  0.48899  0.82109  0.46403  1.0000
  H   H48       1.0  0.48963  0.87679  0.47669  1.0000
  H   H49       1.0  0.39762  0.93778  0.34694  1.0000
  H   H50       1.0  0.48249  0.98205  0.35317  1.0000
  H   H51       1.0  0.02085  0.52125  0.35279  1.0000
  H   H52       1.0  0.06637  0.89664  0.34677  1.0000
  H   H53       1.0  0.10797  0.93907  0.34498  1.0000
  H   H54       1.0  0.12661  0.98916  0.47709  1.0000
  H   H55       1.0  0.18229  0.98882  0.46451  1.0000
  H   H56       1.0  0.10573  0.56553  0.34740  1.0000
  H   H57       1.0  0.01370  0.62651  0.47663  1.0000
  H   H58       1.0  0.01436  0.68220  0.46402  1.0000
  H   H59       1.0  0.32109  0.51444  0.46462  1.0000
  H   H60       1.0  0.37678  0.51403  0.47713  1.0000
  N   N13       1.0  0.00140  0.73630  0.39576  1.0000
  N   N14       1.0  0.00194  0.76700  0.39577  1.0000
  N   N15       1.0  0.26703  0.50127  0.39641  1.0000
  N   N16       1.0  0.23633  0.50185  0.39639  1.0000
  C   C105      1.0  0.93549  0.47197  0.34976  1.0000
  C   C106      1.0  0.53242  0.43472  0.34948  1.0000
  C   C107      1.0  0.00047  0.08405  0.34870  1.0000
  C   C108      1.0  0.97093  0.06859  0.34936  1.0000
  C   C109      1.0  0.91896  0.06006  0.34715  1.0000
  C   C110      1.0  0.94160  0.08316  0.34794  1.0000
  C   C111      1.0  0.83819  0.49243  0.25434  1.0000
  C   C112      1.0  0.87108  0.49272  0.26137  1.0000
  C   C113      1.0  0.00038  0.11751  0.34231  1.0000
  C   C114      1.0  0.99246  0.16514  0.25362  1.0000
  C   C115      1.0  0.99264  0.13226  0.26068  1.0000
  C   C116      1.0  0.63225  0.01069  0.26150  1.0000
  C   C117      1.0  0.66514  0.01103  0.25444  1.0000
  C   C118      1.0  0.51072  0.37106  0.26076  1.0000
  C   C119      1.0  0.51091  0.33818  0.25367  1.0000
  H   H61       1.0  0.51760  0.32892  0.19367  1.0000
  H   H62       1.0  0.51661  0.38422  0.20593  1.0000
  H   H63       1.0  0.93991  0.39634  0.34474  1.0000
  H   H64       1.0  0.61907  0.01654  0.20668  1.0000
  H   H65       1.0  0.67438  0.01783  0.19449  1.0000
  H   H66       1.0  0.56344  0.10697  0.34504  1.0000
  H   H67       1.0  0.89538  0.06423  0.34480  1.0000
  H   H68       1.0  0.93698  0.10666  0.34653  1.0000
  H   H69       1.0  0.98677  0.11910  0.20584  1.0000
  H   H70       1.0  0.98578  0.17441  0.19361  1.0000
  H   H71       1.0  0.88425  0.48693  0.20648  1.0000
  H   H72       1.0  0.82892  0.48570  0.19436  1.0000
  C   C120      1.0  0.50226  0.28496  0.32029  1.0000
  C   C121      1.0  0.50189  0.26814  0.23858  1.0000
  C   C122      1.0  0.50154  0.23518  0.23858  1.0000
  C   C123      1.0  0.50111  0.21835  0.32027  1.0000
  H   H73       1.0  0.50206  0.22401  0.17819  1.0000
  H   H74       1.0  0.50140  0.27931  0.17820  1.0000
  C   C124      1.0  0.71838  0.00236  0.32091  1.0000
  C   C125      1.0  0.73521  0.00213  0.23921  1.0000
  C   C126      1.0  0.76817  0.00172  0.23923  1.0000
  C   C127      1.0  0.78498  0.00110  0.32093  1.0000
  H   H75       1.0  0.77937  0.00235  0.17888  1.0000
  H   H76       1.0  0.72404  0.00178  0.17881  1.0000
  C   C128      1.0  0.94421  0.41989  0.34728  1.0000
  C   C129      1.0  0.92110  0.44253  0.34824  1.0000
  N   N17       1.0  0.96674  0.46598  0.35169  1.0000
  C   C130      1.0  0.97335  0.43486  0.34976  1.0000
  C   C131      1.0  0.00288  0.41925  0.34881  1.0000
  N   N18       1.0  0.53819  0.46590  0.35099  1.0000
  C   C132      1.0  0.56926  0.47228  0.34974  1.0000
  C   C133      1.0  0.58439  0.44325  0.34726  1.0000
  C   C134      1.0  0.56175  0.42015  0.34810  1.0000
  C   C135      1.0  0.58409  0.50213  0.34919  1.0000
  C   C136      1.0  0.56786  0.03134  0.34993  1.0000
  N   N19       1.0  0.53661  0.03732  0.35175  1.0000
  C   C137      1.0  0.53000  0.06845  0.34984  1.0000
  C   C138      1.0  0.55915  0.08342  0.34760  1.0000
  C   C139      1.0  0.58225  0.06078  0.34860  1.0000
  N   N20       1.0  0.96516  0.03741  0.35091  1.0000
  C   C140      1.0  0.93409  0.03103  0.34970  1.0000
  C   C141      1.0  0.91926  0.50117  0.34903  1.0000
  C   C142      1.0  0.88581  0.50059  0.34292  1.0000
  C   C143      1.0  0.86677  0.00816  0.41715  1.0000
  C   C144      1.0  0.83384  0.00825  0.40939  1.0000
  C   C145      1.0  0.81863  0.50060  0.32767  1.0000
  C   C146      1.0  0.50799  0.13654  0.41654  1.0000
  C   C147      1.0  0.50822  0.16946  0.40871  1.0000
  C   C148      1.0  0.00063  0.18470  0.32697  1.0000
  C   C149      1.0  0.61754  0.50272  0.34300  1.0000
  C   C150      1.0  0.68473  0.50281  0.32766  1.0000
  C   C151      1.0  0.66953  0.49504  0.40931  1.0000
  C   C152      1.0  0.63661  0.49509  0.41713  1.0000
  C   C153      1.0  0.00297  0.38580  0.34239  1.0000
  C   C154      1.0  0.99535  0.36677  0.41660  1.0000
  C   C155      1.0  0.99514  0.33384  0.40875  1.0000
  C   C156      1.0  0.00274  0.31861  0.32701  1.0000
  H   H77       1.0  0.98899  0.32109  0.46403  1.0000
  H   H78       1.0  0.98963  0.37679  0.47669  1.0000
  H   H79       1.0  0.89762  0.43778  0.34694  1.0000
  H   H80       1.0  0.98249  0.48205  0.35317  1.0000
  H   H81       1.0  0.52085  0.02125  0.35279  1.0000
  H   H82       1.0  0.56637  0.39664  0.34677  1.0000
  H   H83       1.0  0.60797  0.43907  0.34498  1.0000
  H   H84       1.0  0.62661  0.48916  0.47709  1.0000
  H   H85       1.0  0.68229  0.48882  0.46451  1.0000
  H   H86       1.0  0.60573  0.06553  0.34740  1.0000
  H   H87       1.0  0.51370  0.12651  0.47663  1.0000
  H   H88       1.0  0.51436  0.18221  0.46402  1.0000
  H   H89       1.0  0.82109  0.01444  0.46462  1.0000
  H   H90       1.0  0.87678  0.01404  0.47713  1.0000
  N   N21       1.0  0.50140  0.23630  0.39576  1.0000
  N   N22       1.0  0.50194  0.26701  0.39577  1.0000
  N   N23       1.0  0.76703  0.00127  0.39641  1.0000
  N   N24       1.0  0.73633  0.00185  0.39639  1.0000
  C   C157      1.0  0.93549  0.97197  0.34976  1.0000
  C   C158      1.0  0.53242  0.93472  0.34948  1.0000
  C   C159      1.0  0.00047  0.58405  0.34870  1.0000
  C   C160      1.0  0.97093  0.56859  0.34936  1.0000
  C   C161      1.0  0.91896  0.56006  0.34715  1.0000
  C   C162      1.0  0.94160  0.58316  0.34794  1.0000
  C   C163      1.0  0.83819  0.99243  0.25434  1.0000
  C   C164      1.0  0.87108  0.99272  0.26137  1.0000
  C   C165      1.0  0.00038  0.61751  0.34231  1.0000
  C   C166      1.0  0.99246  0.66514  0.25362  1.0000
  C   C167      1.0  0.99264  0.63226  0.26068  1.0000
  C   C168      1.0  0.63225  0.51068  0.26150  1.0000
  C   C169      1.0  0.66514  0.51104  0.25444  1.0000
  C   C170      1.0  0.51072  0.87106  0.26076  1.0000
  C   C171      1.0  0.51091  0.83818  0.25367  1.0000
  H   H91       1.0  0.51760  0.82892  0.19367  1.0000
  H   H92       1.0  0.51661  0.88422  0.20593  1.0000
  H   H93       1.0  0.93991  0.89634  0.34474  1.0000
  H   H94       1.0  0.61907  0.51653  0.20668  1.0000
  H   H95       1.0  0.67438  0.51782  0.19449  1.0000
  H   H96       1.0  0.56344  0.60697  0.34504  1.0000
  H   H97       1.0  0.89538  0.56423  0.34480  1.0000
  H   H98       1.0  0.93698  0.60666  0.34653  1.0000
  H   H99       1.0  0.98677  0.61910  0.20584  1.0000
  H   H100      1.0  0.98578  0.67441  0.19361  1.0000
  H   H101      1.0  0.88425  0.98693  0.20648  1.0000
  H   H102      1.0  0.82892  0.98570  0.19436  1.0000
  C   C172      1.0  0.50226  0.78496  0.32029  1.0000
  C   C173      1.0  0.50189  0.76813  0.23858  1.0000
  C   C174      1.0  0.50154  0.73518  0.23858  1.0000
  C   C175      1.0  0.50111  0.71835  0.32027  1.0000
  H   H103      1.0  0.50206  0.72400  0.17819  1.0000
  H   H104      1.0  0.50140  0.77931  0.17820  1.0000
  C   C176      1.0  0.71838  0.50236  0.32091  1.0000
  C   C177      1.0  0.73521  0.50213  0.23921  1.0000
  C   C178      1.0  0.76817  0.50172  0.23923  1.0000
  C   C179      1.0  0.78498  0.50110  0.32093  1.0000
  H   H105      1.0  0.77937  0.50235  0.17888  1.0000
  H   H106      1.0  0.72404  0.50178  0.17881  1.0000
  C   C180      1.0  0.94421  0.91989  0.34728  1.0000
  C   C181      1.0  0.92110  0.94253  0.34824  1.0000
  N   N25       1.0  0.96674  0.96598  0.35169  1.0000
  C   C182      1.0  0.97335  0.93486  0.34976  1.0000
  C   C183      1.0  0.00288  0.91926  0.34881  1.0000
  N   N26       1.0  0.53819  0.96590  0.35099  1.0000
  C   C184      1.0  0.56926  0.97228  0.34974  1.0000
  C   C185      1.0  0.58439  0.94325  0.34726  1.0000
  C   C186      1.0  0.56175  0.92015  0.34810  1.0000
  C   C187      1.0  0.58409  0.00214  0.34919  1.0000
  C   C188      1.0  0.56786  0.53134  0.34993  1.0000
  N   N27       1.0  0.53661  0.53732  0.35175  1.0000
  C   C189      1.0  0.53000  0.56845  0.34984  1.0000
  C   C190      1.0  0.55915  0.58342  0.34760  1.0000
  C   C191      1.0  0.58225  0.56078  0.34860  1.0000
  N   N28       1.0  0.96516  0.53741  0.35091  1.0000
  C   C192      1.0  0.93409  0.53102  0.34970  1.0000
  C   C193      1.0  0.91926  0.00117  0.34903  1.0000
  C   C194      1.0  0.88581  0.00059  0.34292  1.0000
  C   C195      1.0  0.86677  0.50816  0.41715  1.0000
  C   C196      1.0  0.83384  0.50825  0.40939  1.0000
  C   C197      1.0  0.81863  0.00060  0.32767  1.0000
  C   C198      1.0  0.50799  0.63654  0.41654  1.0000
  C   C199      1.0  0.50822  0.66946  0.40871  1.0000
  C   C200      1.0  0.00063  0.68470  0.32697  1.0000
  C   C201      1.0  0.61754  0.00273  0.34300  1.0000
  C   C202      1.0  0.68473  0.00281  0.32766  1.0000
  C   C203      1.0  0.66953  0.99504  0.40931  1.0000
  C   C204      1.0  0.63661  0.99509  0.41713  1.0000
  C   C205      1.0  0.00297  0.88580  0.34239  1.0000
  C   C206      1.0  0.99535  0.86677  0.41660  1.0000
  C   C207      1.0  0.99514  0.83384  0.40875  1.0000
  C   C208      1.0  0.00274  0.81861  0.32701  1.0000
  H   H107      1.0  0.98899  0.82109  0.46403  1.0000
  H   H108      1.0  0.98963  0.87679  0.47669  1.0000
  H   H109      1.0  0.89762  0.93778  0.34694  1.0000
  H   H110      1.0  0.98249  0.98205  0.35317  1.0000
  H   H111      1.0  0.52085  0.52125  0.35279  1.0000
  H   H112      1.0  0.56637  0.89664  0.34677  1.0000
  H   H113      1.0  0.60797  0.93907  0.34498  1.0000
  H   H114      1.0  0.62661  0.98916  0.47709  1.0000
  H   H115      1.0  0.68229  0.98882  0.46451  1.0000
  H   H116      1.0  0.60573  0.56553  0.34740  1.0000
  H   H117      1.0  0.51370  0.62651  0.47663  1.0000
  H   H118      1.0  0.51436  0.68220  0.46402  1.0000
  H   H119      1.0  0.82109  0.51444  0.46462  1.0000
  H   H120      1.0  0.87678  0.51403  0.47713  1.0000
  N   N29       1.0  0.50140  0.73630  0.39576  1.0000
  N   N30       1.0  0.50194  0.76700  0.39577  1.0000
  N   N31       1.0  0.76703  0.50127  0.39641  1.0000
  N   N32       1.0  0.73633  0.50185  0.39639  1.0000
