data_image0
_chemical_formula_structural       CHC2HC2H2C4HC3HCHC2HC2HC2HC2HC2HC2NC2NCH3C2NC3NHCH3NC3NH2C2NC3NHCH3C2NC3NHCH3C2NC3NHCH3C4H3C4H2C4H2C4H2C4H2C2HC3H2C2HC5H3C6H3C2HC5H3C2HC5H3C2HC5H3
_chemical_formula_sum              "C114 H66 N12"
_cell_length_a       31.7129
_cell_length_b       31.7129
_cell_length_c       14.8452
_cell_angle_alpha    90
_cell_angle_beta     90
_cell_angle_gamma    120

_space_group_name_H-M_alt    "P 1"
_space_group_IT_number       1

loop_
  _space_group_symop_operation_xyz
  'x, y, z'

loop_
  _atom_site_type_symbol
  _atom_site_label
  _atom_site_symmetry_multiplicity
  _atom_site_fract_x
  _atom_site_fract_y
  _atom_site_fract_z
  _atom_site_occupancy
  C   C1        1.0  0.06282  0.57069  0.33992  1.0000
  H   H1        1.0  0.04655  0.59135  0.33810  1.0000
  C   C2        1.0  0.03468  0.51859  0.34221  1.0000
  C   C3        1.0  0.06272  0.49451  0.34434  1.0000
  H   H2        1.0  0.04637  0.45760  0.34756  1.0000
  C   C4        1.0  0.11430  0.59683  0.33932  1.0000
  C   C5        1.0  0.14294  0.64855  0.33956  1.0000
  H   H3        1.0  0.11745  0.61981  0.16550  1.0000
  H   H4        1.0  0.14301  0.68041  0.12762  1.0000
  C   C6        1.0  0.13942  0.57082  0.34023  1.0000
  C   C7        1.0  0.11419  0.51971  0.34269  1.0000
  C   C8        1.0  0.14267  0.49657  0.34522  1.0000
  C   C9        1.0  0.16389  0.49207  0.26475  1.0000
  H   H5        1.0  0.15232  0.49697  0.20339  1.0000
  C   C10       1.0  0.16499  0.67493  0.25929  1.0000
  C   C11       1.0  0.15023  0.65558  0.16682  1.0000
  C   C12       1.0  0.16337  0.49361  0.42763  1.0000
  H   H6        1.0  0.15087  0.50004  0.48676  1.0000
  C   C13       1.0  0.16258  0.67176  0.42296  1.0000
  H   H7        1.0  0.14930  0.65247  0.48157  1.0000
  C   C14       1.0  0.90138  0.41356  0.33929  1.0000
  C   C15       1.0  0.95286  0.43971  0.33988  1.0000
  H   H8        1.0  0.96914  0.41906  0.33798  1.0000
  C   C16       1.0  0.59944  0.49034  0.33936  1.0000
  C   C17       1.0  0.57331  0.51569  0.34006  1.0000
  H   H9        1.0  0.59398  0.55263  0.33839  1.0000
  C   C18       1.0  0.44234  0.49471  0.33992  1.0000
  C   C19       1.0  0.41620  0.52006  0.33927  1.0000
  H   H10       1.0  0.42167  0.45778  0.33813  1.0000
  C   C20       1.0  0.52269  0.11173  0.33950  1.0000
  C   C21       1.0  0.49735  0.06025  0.34014  1.0000
  H   H11       1.0  0.46041  0.04399  0.33856  1.0000
  C   C22       1.0  0.51834  0.95027  0.34010  1.0000
  C   C23       1.0  0.49299  0.89878  0.33943  1.0000
  H   H12       1.0  0.55527  0.96652  0.33853  1.0000
  C   C24       1.0  0.36446  0.49695  0.33932  1.0000
  C   C25       1.0  0.33810  0.49274  0.25914  1.0000
  N   N1        1.0  0.29283  0.48730  0.26578  1.0000
  C   C26       1.0  0.27003  0.48505  0.34462  1.0000
  C   C27       1.0  0.22533  0.48492  0.34571  1.0000
  N   N2        1.0  0.20396  0.48708  0.26773  1.0000
  C   C28       1.0  0.35742  0.49730  0.16667  1.0000
  H   H13       1.0  0.39319  0.50027  0.16533  1.0000
  H   H14       1.0  0.36028  0.52955  0.13441  1.0000
  H   H15       1.0  0.33257  0.46525  0.12749  1.0000
  C   C29       1.0  0.51607  0.87014  0.33961  1.0000
  C   C30       1.0  0.52032  0.84799  0.25941  1.0000
  N   N3        1.0  0.52577  0.80817  0.26595  1.0000
  C   C31       1.0  0.52803  0.78759  0.34473  1.0000
  C   C32       1.0  0.52816  0.74302  0.34574  1.0000
  C   C33       1.0  0.52103  0.67447  0.26467  1.0000
  N   N4        1.0  0.52599  0.71952  0.26773  1.0000
  H   H16       1.0  0.51605  0.65798  0.20333  1.0000
  C   C34       1.0  0.51578  0.86277  0.16694  1.0000
  H   H17       1.0  0.51282  0.89557  0.16560  1.0000
  H   H18       1.0  0.48353  0.83339  0.13466  1.0000
  H   H19       1.0  0.54784  0.86998  0.12778  1.0000
  N   N5        1.0  0.20483  0.72020  0.26580  1.0000
  C   C35       1.0  0.22544  0.74306  0.34457  1.0000
  C   C36       1.0  0.27001  0.78775  0.34549  1.0000
  C   C37       1.0  0.33857  0.84909  0.26438  1.0000
  N   N6        1.0  0.29349  0.80907  0.26745  1.0000
  H   H20       1.0  0.35499  0.86072  0.20300  1.0000
  H   H21       1.0  0.17963  0.65273  0.13458  1.0000
  C   C38       1.0  0.65117  0.51342  0.33959  1.0000
  C   C39       1.0  0.67754  0.51774  0.25934  1.0000
  N   N7        1.0  0.72280  0.52315  0.26593  1.0000
  C   C40       1.0  0.74562  0.52536  0.34473  1.0000
  C   C41       1.0  0.79030  0.52546  0.34570  1.0000
  C   C42       1.0  0.85172  0.51836  0.26462  1.0000
  N   N8        1.0  0.81165  0.52335  0.26768  1.0000
  H   H22       1.0  0.86328  0.51350  0.20323  1.0000
  C   C43       1.0  0.65821  0.51316  0.16687  1.0000
  H   H23       1.0  0.62245  0.51019  0.16554  1.0000
  H   H24       1.0  0.65534  0.48089  0.13464  1.0000
  H   H25       1.0  0.68305  0.54519  0.12767  1.0000
  C   C44       1.0  0.49961  0.14037  0.33975  1.0000
  C   C45       1.0  0.49524  0.16238  0.25947  1.0000
  N   N9        1.0  0.48976  0.20219  0.26596  1.0000
  C   C46       1.0  0.48752  0.22281  0.34471  1.0000
  C   C47       1.0  0.48740  0.26738  0.34560  1.0000
  C   C48       1.0  0.49455  0.33590  0.26437  1.0000
  N   N10       1.0  0.48953  0.29082  0.26753  1.0000
  H   H26       1.0  0.49946  0.35232  0.20298  1.0000
  C   C49       1.0  0.49984  0.14762  0.16700  1.0000
  H   H27       1.0  0.50286  0.11485  0.16570  1.0000
  H   H28       1.0  0.53208  0.17703  0.13476  1.0000
  H   H29       1.0  0.46778  0.14037  0.12781  1.0000
  C   C50       1.0  0.87278  0.36183  0.33923  1.0000
  C   C51       1.0  0.85065  0.33541  0.25907  1.0000
  N   N11       1.0  0.81081  0.29016  0.26566  1.0000
  C   C52       1.0  0.79022  0.26735  0.34448  1.0000
  C   C53       1.0  0.74563  0.22267  0.34550  1.0000
  C   C54       1.0  0.67709  0.16123  0.26441  1.0000
  N   N12       1.0  0.72217  0.20129  0.26748  1.0000
  H   H30       1.0  0.66066  0.14964  0.20304  1.0000
  C   C55       1.0  0.86538  0.35477  0.16661  1.0000
  H   H31       1.0  0.89816  0.39054  0.16529  1.0000
  H   H32       1.0  0.83597  0.35762  0.13442  1.0000
  H   H33       1.0  0.87259  0.32995  0.12737  1.0000
  C   C56       1.0  0.98100  0.49182  0.34221  1.0000
  C   C57       1.0  0.95295  0.51588  0.34434  1.0000
  C   C58       1.0  0.90147  0.49067  0.34268  1.0000
  C   C59       1.0  0.87626  0.43955  0.34015  1.0000
  H   H34       1.0  0.96929  0.55279  0.34751  1.0000
  H   H35       1.0  0.83886  0.42087  0.33982  1.0000
  H   H36       1.0  0.17681  0.58949  0.34002  1.0000
  C   C60       1.0  0.52120  0.49175  0.34220  1.0000
  C   C61       1.0  0.49712  0.43962  0.34414  1.0000
  C   C62       1.0  0.52230  0.41334  0.34249  1.0000
  C   C63       1.0  0.57342  0.43922  0.34010  1.0000
  H   H37       1.0  0.46020  0.41907  0.34717  1.0000
  H   H38       1.0  0.59208  0.42048  0.33979  1.0000
  C   C64       1.0  0.49444  0.51866  0.34220  1.0000
  C   C65       1.0  0.44222  0.57118  0.34014  1.0000
  C   C66       1.0  0.49333  0.59706  0.34260  1.0000
  C   C67       1.0  0.51852  0.57078  0.34428  1.0000
  H   H39       1.0  0.42355  0.58991  0.33983  1.0000
  H   H40       1.0  0.55544  0.59133  0.34742  1.0000
  C   C68       1.0  0.52130  0.03210  0.34219  1.0000
  C   C69       1.0  0.57343  0.06014  0.34407  1.0000
  C   C70       1.0  0.59970  0.11161  0.34257  1.0000
  C   C71       1.0  0.57381  0.13684  0.34027  1.0000
  H   H41       1.0  0.59399  0.04379  0.34698  1.0000
  H   H42       1.0  0.59254  0.17424  0.34000  1.0000
  C   C72       1.0  0.49439  0.97842  0.34217  1.0000
  C   C73       1.0  0.44187  0.87367  0.34015  1.0000
  C   C74       1.0  0.41598  0.89890  0.34246  1.0000
  C   C75       1.0  0.44226  0.95038  0.34404  1.0000
  H   H43       1.0  0.42314  0.83627  0.33983  1.0000
  H   H44       1.0  0.42170  0.96673  0.34695  1.0000
  C   C76       1.0  0.29428  0.48778  0.42664  1.0000
  C   C77       1.0  0.34137  0.49346  0.42283  1.0000
  H   H45       1.0  0.36068  0.49943  0.48141  1.0000
  C   C78       1.0  0.20477  0.48777  0.42903  1.0000
  C   C79       1.0  0.22829  0.48871  0.51037  1.0000
  C   C80       1.0  0.27261  0.48864  0.50920  1.0000
  H   H46       1.0  0.21446  0.49153  0.57090  1.0000
  H   H47       1.0  0.28994  0.49142  0.56891  1.0000
  C   C81       1.0  0.52529  0.80907  0.42678  1.0000
  C   C82       1.0  0.51961  0.85047  0.42302  1.0000
  H   H48       1.0  0.51363  0.86379  0.48162  1.0000
  C   C83       1.0  0.51648  0.64867  0.34507  1.0000
  C   C84       1.0  0.51945  0.67234  0.42751  1.0000
  C   C85       1.0  0.52531  0.71957  0.42901  1.0000
  C   C86       1.0  0.52436  0.74213  0.51040  1.0000
  C   C87       1.0  0.52444  0.78651  0.50930  1.0000
  H   H49       1.0  0.52154  0.72544  0.57089  1.0000
  H   H50       1.0  0.52166  0.80105  0.56904  1.0000
  H   H51       1.0  0.51301  0.65336  0.48659  1.0000
  C   C88       1.0  0.20398  0.71885  0.42664  1.0000
  C   C89       1.0  0.36438  0.87043  0.34471  1.0000
  C   C90       1.0  0.34072  0.84973  0.42719  1.0000
  C   C91       1.0  0.29349  0.80835  0.42873  1.0000
  C   C92       1.0  0.27097  0.78488  0.51016  1.0000
  C   C93       1.0  0.22657  0.74057  0.50914  1.0000
  H   H52       1.0  0.28768  0.79876  0.57064  1.0000
  H   H53       1.0  0.21207  0.72328  0.56890  1.0000
  H   H54       1.0  0.35970  0.86230  0.48627  1.0000
  C   C94       1.0  0.72140  0.52263  0.42679  1.0000
  C   C95       1.0  0.67431  0.51694  0.42305  1.0000
  H   H55       1.0  0.65499  0.51092  0.48164  1.0000
  C   C96       1.0  0.87299  0.51380  0.34497  1.0000
  C   C97       1.0  0.85222  0.51665  0.42743  1.0000
  C   C98       1.0  0.81087  0.52255  0.42897  1.0000
  C   C99       1.0  0.78738  0.52160  0.51037  1.0000
  C   C100      1.0  0.74309  0.52171  0.50930  1.0000
  H   H56       1.0  0.80123  0.51874  0.57085  1.0000
  H   H57       1.0  0.72577  0.51892  0.56903  1.0000
  H   H58       1.0  0.86481  0.51029  0.48653  1.0000
  C   C101      1.0  0.49031  0.20138  0.42681  1.0000
  C   C102      1.0  0.49601  0.15998  0.42314  1.0000
  H   H59       1.0  0.50214  0.14681  0.48177  1.0000
  C   C103      1.0  0.49914  0.36172  0.34471  1.0000
  C   C104      1.0  0.49617  0.33813  0.42727  1.0000
  C   C105      1.0  0.49033  0.29090  0.42883  1.0000
  C   C106      1.0  0.49132  0.26841  0.51027  1.0000
  C   C107      1.0  0.49123  0.22402  0.50927  1.0000
  H   H60       1.0  0.49423  0.28517  0.57072  1.0000
  H   H61       1.0  0.49410  0.20956  0.56903  1.0000
  H   H62       1.0  0.50272  0.35716  0.48632  1.0000
  C   C108      1.0  0.81169  0.29163  0.42650  1.0000
  C   C109      1.0  0.85311  0.33870  0.42271  1.0000
  H   H63       1.0  0.86634  0.35802  0.48131  1.0000
  C   C110      1.0  0.65133  0.14009  0.34484  1.0000
  C   C111      1.0  0.67490  0.16079  0.42735  1.0000
  C   C112      1.0  0.72213  0.20216  0.42879  1.0000
  C   C113      1.0  0.74467  0.22570  0.51016  1.0000
  C   C114      1.0  0.78910  0.26997  0.50904  1.0000
  H   H64       1.0  0.72793  0.21191  0.57064  1.0000
  H   H65       1.0  0.80356  0.28737  0.56874  1.0000
  H   H66       1.0  0.65591  0.14830  0.48644  1.0000
