data_image0
_chemical_formula_structural       C3H2NHC3H2NHC3H2NHCNCNCNC18H12C3O3CNCNCNC18H12C3O3C3HNH2NHC3HNH2NHC3HNH2NH
_chemical_formula_sum              "C66 H45 N15 O6"
_cell_length_a       36.7522
_cell_length_b       36.7518
_cell_length_c       15.0922
_cell_angle_alpha    90
_cell_angle_beta     90
_cell_angle_gamma    120

_space_group_name_H-M_alt    "P 1"
_space_group_IT_number       1

loop_
  _space_group_symop_operation_xyz
  'x, y, z'

loop_
  _atom_site_type_symbol
  _atom_site_label
  _atom_site_symmetry_multiplicity
  _atom_site_fract_x
  _atom_site_fract_y
  _atom_site_fract_z
  _atom_site_occupancy
  C   C1        1.0  0.47929  0.50887  0.26146  1.0000
  C   C2        1.0  0.50356  0.48987  0.24556  1.0000
  C   C3        1.0  0.52115  0.47911  0.31673  1.0000
  H   H1        1.0  0.46842  0.51798  0.20839  1.0000
  H   H2        1.0  0.50921  0.48487  0.18158  1.0000
  N   N1        1.0  0.54290  0.45876  0.30014  1.0000
  H   H3        1.0  0.53178  0.43746  0.25359  1.0000
  C   C4        1.0  0.48349  0.96890  0.26145  1.0000
  C   C5        1.0  0.50249  0.01216  0.24556  1.0000
  C   C6        1.0  0.51325  0.04051  0.31674  1.0000
  H   H4        1.0  0.47438  0.94891  0.20838  1.0000
  H   H5        1.0  0.50750  0.02282  0.18158  1.0000
  N   N2        1.0  0.53361  0.08262  0.30016  1.0000
  H   H6        1.0  0.55491  0.09279  0.25362  1.0000
  C   C7        1.0  0.02346  0.51308  0.26143  1.0000
  C   C8        1.0  0.98020  0.48881  0.24553  1.0000
  C   C9        1.0  0.95185  0.47120  0.31671  1.0000
  H   H7        1.0  0.04345  0.52396  0.20837  1.0000
  H   H8        1.0  0.96955  0.48315  0.18155  1.0000
  N   N3        1.0  0.90975  0.44944  0.30012  1.0000
  H   H9        1.0  0.89956  0.46057  0.25362  1.0000
  C   C10       1.0  0.28599  0.64772  0.32737  1.0000
  N   N4        1.0  0.30263  0.62202  0.32736  1.0000
  C   C11       1.0  0.34464  0.63673  0.32736  1.0000
  N   N5        1.0  0.37034  0.67908  0.32732  1.0000
  C   C12       1.0  0.35563  0.70638  0.32734  1.0000
  N   N6        1.0  0.31328  0.68974  0.32733  1.0000
  C   C13       1.0  0.36108  0.60902  0.32687  1.0000
  C   C14       1.0  0.33444  0.56489  0.33254  1.0000
  C   C15       1.0  0.35098  0.53769  0.33166  1.0000
  C   C16       1.0  0.39477  0.55380  0.32621  1.0000
  C   C17       1.0  0.42140  0.59776  0.31931  1.0000
  C   C18       1.0  0.40487  0.62486  0.31985  1.0000
  C   C19       1.0  0.24183  0.63128  0.32689  1.0000
  C   C20       1.0  0.21388  0.58749  0.31989  1.0000
  C   C21       1.0  0.17025  0.57096  0.31936  1.0000
  C   C22       1.0  0.15291  0.59759  0.32622  1.0000
  C   C23       1.0  0.18061  0.64139  0.33163  1.0000
  C   C24       1.0  0.22434  0.65792  0.33254  1.0000
  C   C25       1.0  0.38334  0.75053  0.32681  1.0000
  C   C26       1.0  0.36750  0.77848  0.31977  1.0000
  C   C27       1.0  0.39460  0.82212  0.31925  1.0000
  C   C28       1.0  0.43857  0.83945  0.32616  1.0000
  C   C29       1.0  0.45467  0.81176  0.33158  1.0000
  C   C30       1.0  0.42747  0.76802  0.33249  1.0000
  H   H10       1.0  0.15136  0.53920  0.31179  1.0000
  H   H11       1.0  0.22483  0.56690  0.31419  1.0000
  H   H12       1.0  0.16921  0.66167  0.33645  1.0000
  H   H13       1.0  0.24321  0.68980  0.33755  1.0000
  H   H14       1.0  0.33595  0.76753  0.31409  1.0000
  H   H15       1.0  0.38172  0.84100  0.31171  1.0000
  H   H16       1.0  0.44048  0.74916  0.33754  1.0000
  H   H17       1.0  0.48634  0.82316  0.33646  1.0000
  H   H18       1.0  0.42546  0.65641  0.31415  1.0000
  H   H19       1.0  0.45317  0.61064  0.31177  1.0000
  H   H20       1.0  0.33071  0.50602  0.33650  1.0000
  H   H21       1.0  0.30257  0.55188  0.33757  1.0000
  C   C31       1.0  0.10879  0.58068  0.32406  1.0000
  C   C32       1.0  0.46578  0.88358  0.32406  1.0000
  C   C33       1.0  0.41169  0.52659  0.32410  1.0000
  O   O1        1.0  0.38899  0.48869  0.28415  1.0000
  O   O2        1.0  0.50367  0.89877  0.28412  1.0000
  O   O3        1.0  0.09360  0.60338  0.28411  1.0000
  C   C34       1.0  0.70485  0.34609  0.31516  1.0000
  N   N7        1.0  0.68828  0.37185  0.31539  1.0000
  C   C35       1.0  0.64628  0.35723  0.31508  1.0000
  N   N8        1.0  0.62052  0.31489  0.31536  1.0000
  C   C36       1.0  0.63514  0.28752  0.31512  1.0000
  N   N9        1.0  0.67749  0.30410  0.31542  1.0000
  C   C37       1.0  0.62992  0.38499  0.31834  1.0000
  C   C38       1.0  0.65674  0.42913  0.32283  1.0000
  C   C39       1.0  0.64028  0.45630  0.32961  1.0000
  C   C40       1.0  0.59642  0.44020  0.33056  1.0000
  C   C41       1.0  0.56956  0.39621  0.32595  1.0000
  C   C42       1.0  0.58601  0.36912  0.31992  1.0000
  C   C43       1.0  0.74898  0.36245  0.31846  1.0000
  C   C44       1.0  0.77701  0.40636  0.32009  1.0000
  C   C45       1.0  0.82055  0.42280  0.32619  1.0000
  C   C46       1.0  0.83768  0.39593  0.33068  1.0000
  C   C47       1.0  0.80992  0.35208  0.32968  1.0000
  C   C48       1.0  0.76630  0.33563  0.32290  1.0000
  C   C49       1.0  0.60738  0.24340  0.31840  1.0000
  C   C50       1.0  0.62325  0.21536  0.31998  1.0000
  C   C51       1.0  0.59616  0.17183  0.32606  1.0000
  C   C52       1.0  0.55216  0.15469  0.33062  1.0000
  C   C53       1.0  0.53607  0.18245  0.32965  1.0000
  C   C54       1.0  0.56324  0.22608  0.32288  1.0000
  H   H22       1.0  0.83946  0.45473  0.32992  1.0000
  H   H23       1.0  0.76618  0.42714  0.31815  1.0000
  H   H24       1.0  0.82120  0.33167  0.33311  1.0000
  H   H25       1.0  0.74736  0.30367  0.32246  1.0000
  H   H26       1.0  0.65487  0.22619  0.31809  1.0000
  H   H27       1.0  0.60919  0.15293  0.32987  1.0000
  H   H28       1.0  0.55021  0.24501  0.32245  1.0000
  H   H29       1.0  0.50439  0.17118  0.33312  1.0000
  H   H30       1.0  0.56524  0.33750  0.31800  1.0000
  H   H31       1.0  0.53764  0.38317  0.32980  1.0000
  H   H32       1.0  0.66068  0.48798  0.33312  1.0000
  H   H33       1.0  0.68870  0.44216  0.32243  1.0000
  C   C55       1.0  0.88159  0.41291  0.34036  1.0000
  C   C56       1.0  0.52524  0.11078  0.34038  1.0000
  C   C57       1.0  0.57943  0.46712  0.34034  1.0000
  O   O4        1.0  0.60074  0.50202  0.39093  1.0000
  O   O5        1.0  0.49034  0.09718  0.39096  1.0000
  O   O6        1.0  0.89520  0.39161  0.39090  1.0000
  C   C58       1.0  0.51243  0.48619  0.40424  1.0000
  C   C59       1.0  0.48753  0.50477  0.42185  1.0000
  C   C60       1.0  0.47072  0.51614  0.34898  1.0000
  H   H34       1.0  0.52349  0.47655  0.45610  1.0000
  N   N10       1.0  0.47954  0.51004  0.50751  1.0000
  H   H35       1.0  0.49067  0.50134  0.55652  1.0000
  H   H36       1.0  0.46107  0.52091  0.52266  1.0000
  N   N11       1.0  0.44961  0.53749  0.36089  1.0000
  H   H37       1.0  0.46331  0.56247  0.39815  1.0000
  C   C61       1.0  0.50617  0.02471  0.40424  1.0000
  C   C62       1.0  0.48759  0.98122  0.42185  1.0000
  C   C63       1.0  0.47622  0.95305  0.34897  1.0000
  H   H38       1.0  0.51581  0.04540  0.45612  1.0000
  N   N12       1.0  0.48232  0.96797  0.50750  1.0000
  H   H39       1.0  0.49102  0.98779  0.55652  1.0000
  H   H40       1.0  0.47145  0.93862  0.52264  1.0000
  N   N13       1.0  0.45487  0.91059  0.36086  1.0000
  H   H41       1.0  0.42989  0.89930  0.39812  1.0000
  C   C64       1.0  0.96765  0.47993  0.40421  1.0000
  C   C65       1.0  0.01114  0.50484  0.42183  1.0000
  C   C66       1.0  0.03931  0.52165  0.34896  1.0000
  H   H42       1.0  0.94696  0.46887  0.45608  1.0000
  N   N14       1.0  0.02438  0.51283  0.50748  1.0000
  H   H43       1.0  0.00456  0.50170  0.55649  1.0000
  H   H44       1.0  0.05372  0.53131  0.52263  1.0000
  N   N15       1.0  0.08176  0.54276  0.36086  1.0000
  H   H45       1.0  0.09305  0.52907  0.39814  1.0000
