data_image0
_chemical_formula_structural       C2H2CHOC6H3NC2HCHC2H2C3HCOC8H2N2C2NHCHC4H4C5HOCHC8HOCHC3NC2NC4NC4NC9H13NCNHNCNH
_chemical_formula_sum              "C72 H38 O4 N12"
_cell_length_a       29.7429
_cell_length_b       29.7408
_cell_length_c       14.947
_cell_angle_alpha    90
_cell_angle_beta     90
_cell_angle_gamma    90.0263

_space_group_name_H-M_alt    "P 1"
_space_group_IT_number       1

loop_
  _space_group_symop_operation_xyz
  'x, y, z'

loop_
  _atom_site_type_symbol
  _atom_site_label
  _atom_site_symmetry_multiplicity
  _atom_site_fract_x
  _atom_site_fract_y
  _atom_site_fract_z
  _atom_site_occupancy
  C   C1        1.0  0.76780  0.00540  0.26543  1.0000
  C   C2        1.0  0.81506  0.00552  0.26942  1.0000
  H   H1        1.0  0.83306  0.00891  0.21141  1.0000
  H   H2        1.0  0.75282  0.00906  0.20438  1.0000
  C   C3        1.0  0.40243  0.00243  0.29977  1.0000
  H   H3        1.0  0.37943  0.00281  0.24885  1.0000
  O   O1        1.0  0.43604  0.00197  0.11946  1.0000
  C   C4        1.0  0.88533  0.00203  0.35603  1.0000
  C   C5        1.0  0.12133  0.00213  0.35831  1.0000
  C   C6        1.0  0.16928  0.00273  0.35871  1.0000
  C   C7        1.0  0.26510  0.00299  0.35993  1.0000
  C   C8        1.0  0.24044  0.00663  0.44066  1.0000
  C   C9        1.0  0.19311  0.00644  0.44009  1.0000
  H   H4        1.0  0.03097  0.02998  0.35821  1.0000
  H   H5        1.0  0.17615  0.00896  0.49948  1.0000
  H   H6        1.0  0.25654  0.00943  0.50074  1.0000
  N   N1        1.0  0.30986  0.00271  0.35463  1.0000
  C   C10       1.0  0.38714  0.00260  0.38961  1.0000
  C   C11       1.0  0.42043  0.00209  0.45723  1.0000
  H   H7        1.0  0.41190  0.00217  0.52352  1.0000
  C   C12       1.0  0.34172  0.00325  0.41295  1.0000
  H   H8        1.0  0.33366  0.00388  0.47745  1.0000
  C   C13       1.0  0.00668  0.19028  0.26960  1.0000
  C   C14       1.0  0.00677  0.23755  0.26551  1.0000
  H   H9        1.0  0.01043  0.25249  0.20442  1.0000
  H   H10       1.0  0.00987  0.17224  0.21162  1.0000
  C   C15       1.0  0.00193  0.52517  0.34985  1.0000
  C   C16       1.0  0.00230  0.55652  0.27810  1.0000
  C   C17       1.0  0.00286  0.60295  0.29910  1.0000
  H   H11       1.0  0.00315  0.62594  0.24814  1.0000
  C   C18       1.0  0.00208  0.54043  0.18902  1.0000
  O   O2        1.0  0.00241  0.56926  0.11882  1.0000
  C   C19       1.0  0.00227  0.12007  0.35621  1.0000
  C   C20       1.0  0.00439  0.88409  0.35799  1.0000
  C   C21       1.0  0.00421  0.83614  0.35831  1.0000
  C   C22       1.0  0.00377  0.74030  0.35930  1.0000
  C   C23       1.0  0.00780  0.76490  0.44005  1.0000
  C   C24       1.0  0.00795  0.81223  0.43959  1.0000
  C   C25       1.0  0.00243  0.16799  0.35259  1.0000
  C   C26       1.0  0.00235  0.26374  0.34418  1.0000
  H   H12       1.0  0.01086  0.82913  0.49898  1.0000
  H   H13       1.0  0.01076  0.74874  0.50005  1.0000
  N   N2        1.0  0.00339  0.69554  0.35390  1.0000
  N   N3        1.0  0.00242  0.30861  0.34578  1.0000
  C   C27       1.0  0.00304  0.61826  0.38892  1.0000
  C   C28       1.0  0.00265  0.58499  0.45658  1.0000
  N   N4        1.0  0.00212  0.54070  0.43531  1.0000
  H   H14       1.0  0.00275  0.59354  0.52286  1.0000
  C   C29       1.0  0.00360  0.66369  0.41222  1.0000
  H   H15       1.0  0.00397  0.67175  0.47674  1.0000
  C   C30       1.0  0.19370  0.99931  0.27796  1.0000
  C   C31       1.0  0.24104  0.99946  0.27879  1.0000
  C   C32       1.0  0.00037  0.81178  0.27753  1.0000
  C   C33       1.0  0.00017  0.76444  0.27826  1.0000
  H   H16       1.0  0.99767  0.82835  0.21774  1.0000
  H   H17       1.0  0.99730  0.74762  0.21874  1.0000
  H   H18       1.0  0.25790  0.99681  0.21929  1.0000
  H   H19       1.0  0.17719  0.99655  0.21811  1.0000
  C   C34       1.0  0.00132  0.47848  0.33242  1.0000
  C   C35       1.0  0.99981  0.38468  0.30089  1.0000
  C   C36       1.0  0.00028  0.41553  0.22864  1.0000
  C   C37       1.0  0.00105  0.46255  0.24284  1.0000
  C   C38       1.0  0.00145  0.49385  0.17154  1.0000
  H   H20       1.0  0.00003  0.40351  0.16441  1.0000
  O   O3        1.0  0.00121  0.47984  0.08528  1.0000
  C   C39       1.0  0.99860  0.33857  0.28406  1.0000
  H   H21       1.0  0.99431  0.32843  0.22128  1.0000
  C   C40       1.0  0.48022  0.00124  0.35042  1.0000
  C   C41       1.0  0.44884  0.00174  0.27872  1.0000
  C   C42       1.0  0.52690  0.00050  0.33290  1.0000
  C   C43       1.0  0.62067  0.99872  0.30119  1.0000
  C   C44       1.0  0.58979  0.99932  0.22901  1.0000
  C   C45       1.0  0.54278  0.00022  0.24330  1.0000
  C   C46       1.0  0.51145  0.00076  0.17206  1.0000
  C   C47       1.0  0.46490  0.00152  0.18961  1.0000
  H   H22       1.0  0.60177  0.99907  0.16475  1.0000
  O   O4        1.0  0.52543  0.00052  0.08576  1.0000
  C   C48       1.0  0.66677  0.99743  0.28423  1.0000
  H   H23       1.0  0.67685  0.99336  0.22136  1.0000
  C   C49       1.0  0.08639  0.11890  0.35696  1.0000
  C   C50       1.0  0.11936  0.08624  0.35744  1.0000
  C   C51       1.0  0.09843  0.04415  0.35808  1.0000
  N   N5        1.0  0.05368  0.05291  0.35799  1.0000
  C   C52       1.0  0.04450  0.09757  0.35704  1.0000
  C   C53       1.0  0.95976  0.09830  0.35632  1.0000
  N   N6        1.0  0.95129  0.05364  0.35719  1.0000
  C   C54       1.0  0.90672  0.04475  0.35613  1.0000
  C   C55       1.0  0.88518  0.08647  0.35490  1.0000
  C   C56       1.0  0.91785  0.11945  0.35475  1.0000
  C   C57       1.0  0.90822  0.96001  0.35685  1.0000
  N   N7        1.0  0.95297  0.95125  0.35787  1.0000
  C   C58       1.0  0.96215  0.90659  0.35758  1.0000
  C   C59       1.0  0.92026  0.88526  0.35690  1.0000
  C   C60       1.0  0.88730  0.91792  0.35608  1.0000
  C   C61       1.0  0.04690  0.90587  0.35842  1.0000
  N   N8        1.0  0.05537  0.95053  0.35819  1.0000
  C   C62       1.0  0.09994  0.95942  0.35843  1.0000
  C   C63       1.0  0.12149  0.91770  0.35895  1.0000
  C   C64       1.0  0.08882  0.88472  0.35870  1.0000
  C   C65       1.0  0.83741  0.00142  0.35236  1.0000
  C   C66       1.0  0.81155  0.99721  0.43118  1.0000
  C   C67       1.0  0.76424  0.99704  0.42691  1.0000
  C   C68       1.0  0.74166  0.00088  0.34415  1.0000
  C   C69       1.0  0.99838  0.19391  0.43136  1.0000
  C   C70       1.0  0.99845  0.24122  0.42700  1.0000
  H   H24       1.0  0.99543  0.25920  0.48510  1.0000
  H   H25       1.0  0.99536  0.17852  0.49232  1.0000
  H   H26       1.0  0.09261  0.15270  0.35648  1.0000
  H   H27       1.0  0.15310  0.09278  0.35713  1.0000
  H   H28       1.0  0.97568  0.97419  0.35841  1.0000
  H   H29       1.0  0.91151  0.15321  0.35354  1.0000
  H   H30       1.0  0.85135  0.09249  0.35392  1.0000
  H   H31       1.0  0.82698  0.99439  0.49213  1.0000
  H   H32       1.0  0.74630  0.99402  0.48507  1.0000
  H   H33       1.0  0.85357  0.91138  0.35501  1.0000
  H   H34       1.0  0.91404  0.85146  0.35648  1.0000
  H   H35       1.0  0.15532  0.91168  0.35924  1.0000
  H   H36       1.0  0.09515  0.85094  0.35868  1.0000
  N   N9        1.0  0.69679  0.00100  0.34589  1.0000
  C   C71       1.0  0.00022  0.40305  0.38822  1.0000
  N   N10       1.0  0.00091  0.44823  0.40062  1.0000
  H   H37       1.0  0.99977  0.38287  0.44354  1.0000
  N   N11       1.0  0.46471  0.00144  0.43590  1.0000
  C   C72       1.0  0.60235  0.99914  0.38855  1.0000
  N   N12       1.0  0.55718  0.99996  0.40105  1.0000
  H   H38       1.0  0.62256  0.99862  0.44383  1.0000
