data_image0
_chemical_formula_structural       C13H9C13H9C13H9C13H9C5H3CH3C5H3CH3C5H3CH3C2H2C2H2C2H2C17H12C17H12C17H12C17H12C2H2C2H2C2H2C5H3CH3C5H3CH3C5H3CH3
_chemical_formula_sum              "C168 H132"
_cell_length_a       57.153
_cell_length_b       57.1363
_cell_length_c       14.9891
_cell_angle_alpha    90
_cell_angle_beta     90
_cell_angle_gamma    120.005

_space_group_name_H-M_alt    "P 1"
_space_group_IT_number       1

loop_
  _space_group_symop_operation_xyz
  'x, y, z'

loop_
  _atom_site_type_symbol
  _atom_site_label
  _atom_site_symmetry_multiplicity
  _atom_site_fract_x
  _atom_site_fract_y
  _atom_site_fract_z
  _atom_site_occupancy
  C   C1        1.0  0.91082  0.83784  0.32748  1.0000
  C   C2        1.0  0.93624  0.89515  0.33650  1.0000
  C   C3        1.0  0.90781  0.87906  0.33008  1.0000
  C   C4        1.0  0.89521  0.85071  0.32608  1.0000
  C   C5        1.0  0.94828  0.92313  0.33592  1.0000
  C   C6        1.0  0.06492  0.02549  0.33644  1.0000
  C   C7        1.0  0.10897  0.02906  0.33098  1.0000
  C   C8        1.0  0.15020  0.07330  0.32808  1.0000
  C   C9        1.0  0.13732  0.04480  0.32703  1.0000
  C   C10       1.0  0.96267  0.03994  0.33633  1.0000
  C   C11       1.0  0.91815  0.03635  0.33710  1.0000
  C   C12       1.0  0.91479  0.07733  0.32768  1.0000
  C   C13       1.0  0.90235  0.04890  0.33291  1.0000
  H   H1        1.0  0.87462  0.83957  0.32042  1.0000
  H   H2        1.0  0.89600  0.88786  0.32766  1.0000
  H   H3        1.0  0.90858  0.01568  0.33864  1.0000
  H   H4        1.0  0.10017  0.00844  0.32876  1.0000
  H   H5        1.0  0.14845  0.03534  0.32148  1.0000
  H   H6        1.0  0.88174  0.03714  0.33200  1.0000
  H   H7        1.0  0.05678  0.01120  0.28980  1.0000
  H   H8        1.0  0.94218  0.93130  0.28923  1.0000
  H   H9        1.0  0.97705  0.04617  0.29000  1.0000
  C   C14       1.0  0.52304  0.36636  0.34077  1.0000
  C   C15       1.0  0.48482  0.31033  0.32627  1.0000
  C   C16       1.0  0.50887  0.31923  0.37559  1.0000
  C   C17       1.0  0.52776  0.34693  0.38268  1.0000
  C   C18       1.0  0.46745  0.28294  0.31550  1.0000
  C   C19       1.0  0.34986  0.18314  0.32477  1.0000
  C   C20       1.0  0.30604  0.18017  0.32634  1.0000
  C   C21       1.0  0.26452  0.13615  0.32271  1.0000
  C   C22       1.0  0.27765  0.16467  0.32472  1.0000
  C   C23       1.0  0.46235  0.17700  0.32770  1.0000
  C   C24       1.0  0.50669  0.18628  0.37715  1.0000
  C   C25       1.0  0.52226  0.15433  0.34479  1.0000
  C   C26       1.0  0.52678  0.17901  0.38160  1.0000
  H   H10       1.0  0.54527  0.35278  0.41732  1.0000
  H   H11       1.0  0.51308  0.30562  0.40545  1.0000
  H   H12       1.0  0.51084  0.20458  0.40276  1.0000
  H   H13       1.0  0.31502  0.20081  0.32658  1.0000
  H   H14       1.0  0.26664  0.17433  0.32345  1.0000
  H   H15       1.0  0.54493  0.19213  0.41057  1.0000
  H   H16       1.0  0.35793  0.19731  0.27777  1.0000
  H   H17       1.0  0.47045  0.27419  0.26275  1.0000
  H   H18       1.0  0.45628  0.17801  0.26628  1.0000
  C   C27       1.0  0.62155  0.15687  0.34107  1.0000
  C   C28       1.0  0.67756  0.17461  0.32679  1.0000
  C   C29       1.0  0.66866  0.18966  0.37671  1.0000
  C   C30       1.0  0.64097  0.18090  0.38364  1.0000
  C   C31       1.0  0.70494  0.18462  0.31606  1.0000
  C   C32       1.0  0.80472  0.16691  0.32478  1.0000
  C   C33       1.0  0.80776  0.12608  0.32626  1.0000
  C   C34       1.0  0.85179  0.12865  0.32249  1.0000
  C   C35       1.0  0.82329  0.11322  0.32455  1.0000
  C   C36       1.0  0.81091  0.28559  0.32741  1.0000
  C   C37       1.0  0.80172  0.32070  0.37707  1.0000
  C   C38       1.0  0.83370  0.36823  0.34471  1.0000
  C   C39       1.0  0.80903  0.34808  0.38158  1.0000
  H   H19       1.0  0.63513  0.19251  0.41866  1.0000
  H   H20       1.0  0.68226  0.20740  0.40701  1.0000
  H   H21       1.0  0.78341  0.30657  0.40267  1.0000
  H   H22       1.0  0.78713  0.11440  0.32658  1.0000
  H   H23       1.0  0.81366  0.09255  0.32337  1.0000
  H   H24       1.0  0.79594  0.35314  0.41059  1.0000
  H   H25       1.0  0.79054  0.16080  0.27785  1.0000
  H   H26       1.0  0.71365  0.19612  0.26275  1.0000
  H   H27       1.0  0.80972  0.27847  0.26594  1.0000
  C   C40       1.0  0.83103  0.46491  0.34123  1.0000
  C   C41       1.0  0.81313  0.50306  0.32698  1.0000
  C   C42       1.0  0.79814  0.47910  0.37688  1.0000
  C   C43       1.0  0.80699  0.46023  0.38380  1.0000
  C   C44       1.0  0.80302  0.52035  0.31623  1.0000
  C   C45       1.0  0.82103  0.63812  0.32483  1.0000
  C   C46       1.0  0.86187  0.68196  0.32632  1.0000
  C   C47       1.0  0.85937  0.72348  0.32247  1.0000
  C   C48       1.0  0.87476  0.71036  0.32460  1.0000
  C   C49       1.0  0.70230  0.52555  0.32745  1.0000
  C   C50       1.0  0.66717  0.48133  0.37765  1.0000
  C   C51       1.0  0.61967  0.46574  0.34492  1.0000
  C   C52       1.0  0.63981  0.46126  0.38218  1.0000
  H   H28       1.0  0.79541  0.44276  0.41878  1.0000
  H   H29       1.0  0.78038  0.47490  0.40716  1.0000
  H   H30       1.0  0.68130  0.47718  0.40354  1.0000
  H   H31       1.0  0.87353  0.67298  0.32662  1.0000
  H   H32       1.0  0.89542  0.72138  0.32332  1.0000
  H   H33       1.0  0.63474  0.44314  0.41146  1.0000
  H   H34       1.0  0.82710  0.63003  0.27783  1.0000
  H   H35       1.0  0.79132  0.51735  0.26332  1.0000
  H   H36       1.0  0.70940  0.53143  0.26594  1.0000
  C   C53       1.0  0.23593  0.12052  0.31706  1.0000
  C   C54       1.0  0.17871  0.08915  0.31983  1.0000
  C   C55       1.0  0.19219  0.10115  0.23797  1.0000
  C   C56       1.0  0.22114  0.11699  0.23654  1.0000
  C   C57       1.0  0.17644  0.09702  0.15368  1.0000
  H   H37       1.0  0.15465  0.08447  0.16131  1.0000
  H   H38       1.0  0.18245  0.08716  0.10372  1.0000
  H   H39       1.0  0.18032  0.11649  0.12784  1.0000
  C   C58       1.0  0.23556  0.12923  0.15065  1.0000
  H   H40       1.0  0.25749  0.14035  0.15590  1.0000
  H   H41       1.0  0.22950  0.14331  0.12540  1.0000
  H   H42       1.0  0.23053  0.11340  0.10123  1.0000
  C   C59       1.0  0.86746  0.11572  0.31681  1.0000
  C   C60       1.0  0.89893  0.08997  0.31945  1.0000
  C   C61       1.0  0.88705  0.09158  0.23750  1.0000
  C   C62       1.0  0.87114  0.10463  0.23615  1.0000
  C   C63       1.0  0.89138  0.08019  0.15304  1.0000
  H   H43       1.0  0.90400  0.07103  0.16060  1.0000
  H   H44       1.0  0.90125  0.09617  0.10343  1.0000
  H   H45       1.0  0.87199  0.06458  0.12678  1.0000
  C   C64       1.0  0.85899  0.10692  0.15021  1.0000
  H   H46       1.0  0.84777  0.11762  0.15558  1.0000
  H   H47       1.0  0.84503  0.08680  0.12448  1.0000
  H   H48       1.0  0.87488  0.11788  0.10111  1.0000
  C   C65       1.0  0.87233  0.75208  0.31672  1.0000
  C   C66       1.0  0.89818  0.80932  0.31931  1.0000
  C   C67       1.0  0.89674  0.79582  0.23754  1.0000
  C   C68       1.0  0.88362  0.76685  0.23620  1.0000
  C   C69       1.0  0.90840  0.81155  0.15325  1.0000
  H   H49       1.0  0.91764  0.83334  0.16082  1.0000
  H   H50       1.0  0.89255  0.80553  0.10319  1.0000
  H   H51       1.0  0.92399  0.80767  0.12758  1.0000
  C   C70       1.0  0.88147  0.75241  0.15038  1.0000
  H   H52       1.0  0.87066  0.73047  0.15568  1.0000
  H   H53       1.0  0.90163  0.75847  0.12526  1.0000
  H   H54       1.0  0.87070  0.75743  0.10084  1.0000
  C   C71       1.0  0.58261  0.15290  0.26514  1.0000
  C   C72       1.0  0.55782  0.15226  0.26607  1.0000
  H   H55       1.0  0.55147  0.15698  0.20836  1.0000
  H   H56       1.0  0.59342  0.15814  0.20683  1.0000
  C   C73       1.0  0.83508  0.43000  0.26520  1.0000
  C   C74       1.0  0.83576  0.40586  0.26605  1.0000
  H   H57       1.0  0.83105  0.39479  0.20834  1.0000
  H   H58       1.0  0.82981  0.43555  0.20692  1.0000
  C   C75       1.0  0.55794  0.40539  0.26504  1.0000
  C   C76       1.0  0.58206  0.43020  0.26607  1.0000
  H   H59       1.0  0.59314  0.43660  0.20837  1.0000
  H   H60       1.0  0.55238  0.39460  0.20666  1.0000
  C   C77       1.0  0.93922  0.85378  0.33399  1.0000
  C   C78       1.0  0.95179  0.88214  0.33812  1.0000
  C   C79       1.0  0.96699  0.93947  0.39536  1.0000
  C   C80       1.0  0.97910  0.96746  0.39361  1.0000
  C   C81       1.0  0.96356  0.98046  0.39419  1.0000
  C   C82       1.0  0.97603  0.00895  0.39362  1.0000
  C   C83       1.0  0.00457  0.02450  0.39440  1.0000
  C   C84       1.0  0.02059  0.01203  0.39382  1.0000
  C   C85       1.0  0.00759  0.98348  0.39440  1.0000
  C   C86       1.0  0.04857  0.02790  0.39567  1.0000
  C   C87       1.0  0.09290  0.04142  0.33711  1.0000
  C   C88       1.0  0.10591  0.06999  0.33843  1.0000
  C   C89       1.0  0.13426  0.08577  0.33435  1.0000
  C   C90       1.0  0.96015  0.02107  0.39533  1.0000
  C   C91       1.0  0.94671  0.05194  0.33688  1.0000
  C   C92       1.0  0.95905  0.08040  0.33173  1.0000
  C   C93       1.0  0.94328  0.09298  0.32769  1.0000
  H   H61       1.0  0.95095  0.84489  0.33411  1.0000
  H   H62       1.0  0.97244  0.89321  0.34061  1.0000
  H   H63       1.0  0.01903  0.97424  0.39549  1.0000
  H   H64       1.0  0.94288  0.96901  0.39513  1.0000
  H   H65       1.0  0.01381  0.04519  0.39551  1.0000
  H   H66       1.0  0.14316  0.10639  0.33415  1.0000
  H   H67       1.0  0.09485  0.07958  0.34068  1.0000
  H   H68       1.0  0.95273  0.11360  0.32295  1.0000
  H   H69       1.0  0.97966  0.09225  0.33033  1.0000
  H   H70       1.0  0.05663  0.04222  0.44222  1.0000
  H   H71       1.0  0.97320  0.93139  0.44197  1.0000
  H   H72       1.0  0.94573  0.01471  0.44151  1.0000
  C   C94       1.0  0.49910  0.35740  0.29054  1.0000
  C   C95       1.0  0.48012  0.32961  0.28340  1.0000
  C   C96       1.0  0.44984  0.26764  0.37914  1.0000
  C   C97       1.0  0.43643  0.23965  0.37701  1.0000
  C   C98       1.0  0.45132  0.22606  0.38288  1.0000
  C   C99       1.0  0.43812  0.19759  0.38652  1.0000
  C   C100      1.0  0.40963  0.18257  0.38563  1.0000
  C   C101      1.0  0.39425  0.19572  0.38015  1.0000
  C   C102      1.0  0.40792  0.22434  0.37714  1.0000
  C   C103      1.0  0.36623  0.18042  0.38305  1.0000
  C   C104      1.0  0.32189  0.16751  0.32709  1.0000
  C   C105      1.0  0.30865  0.13894  0.32543  1.0000
  C   C106      1.0  0.28026  0.12342  0.32365  1.0000
  C   C107      1.0  0.45337  0.18518  0.39721  1.0000
  C   C108      1.0  0.48148  0.16896  0.33638  1.0000
  C   C109      1.0  0.47715  0.14446  0.29826  1.0000
  C   C110      1.0  0.49734  0.13721  0.30238  1.0000
  H   H73       1.0  0.49548  0.37104  0.25817  1.0000
  H   H74       1.0  0.46311  0.32358  0.24573  1.0000
  H   H75       1.0  0.39702  0.23415  0.37601  1.0000
  H   H76       1.0  0.47203  0.23705  0.38604  1.0000
  H   H77       1.0  0.40003  0.16190  0.38993  1.0000
  H   H78       1.0  0.27120  0.10279  0.32110  1.0000
  H   H79       1.0  0.31956  0.12918  0.32397  1.0000
  H   H80       1.0  0.49380  0.11944  0.27394  1.0000
  H   H81       1.0  0.45933  0.13180  0.26661  1.0000
  H   H82       1.0  0.35807  0.16615  0.42976  1.0000
  H   H83       1.0  0.44776  0.27633  0.43378  1.0000
  H   H84       1.0  0.46009  0.18511  0.45840  1.0000
  C   C111      1.0  0.63051  0.14200  0.29024  1.0000
  C   C112      1.0  0.65828  0.15078  0.28317  1.0000
  C   C113      1.0  0.72029  0.18246  0.37982  1.0000
  C   C114      1.0  0.74826  0.19701  0.37738  1.0000
  C   C115      1.0  0.76186  0.22551  0.38298  1.0000
  C   C116      1.0  0.79032  0.24077  0.38642  1.0000
  C   C117      1.0  0.80533  0.22728  0.38551  1.0000
  C   C118      1.0  0.79217  0.19875  0.38023  1.0000
  C   C119      1.0  0.76356  0.18379  0.37741  1.0000
  C   C120      1.0  0.80747  0.18602  0.38306  1.0000
  C   C121      1.0  0.82039  0.15460  0.32696  1.0000
  C   C122      1.0  0.84895  0.16997  0.32522  1.0000
  C   C123      1.0  0.86450  0.15713  0.32334  1.0000
  C   C124      1.0  0.80274  0.26844  0.39695  1.0000
  C   C125      1.0  0.81898  0.31278  0.33612  1.0000
  C   C126      1.0  0.84348  0.33292  0.29796  1.0000
  C   C127      1.0  0.85078  0.36039  0.30218  1.0000
  H   H85       1.0  0.61688  0.12483  0.25737  1.0000
  H   H86       1.0  0.66431  0.13987  0.24509  1.0000
  H   H87       1.0  0.75374  0.16309  0.37647  1.0000
  H   H88       1.0  0.75088  0.23523  0.38621  1.0000
  H   H89       1.0  0.82600  0.23836  0.38965  1.0000
  H   H90       1.0  0.88511  0.16871  0.32078  1.0000
  H   H91       1.0  0.85868  0.19064  0.32372  1.0000
  H   H92       1.0  0.86853  0.37460  0.27368  1.0000
  H   H93       1.0  0.85610  0.32773  0.26623  1.0000
  H   H94       1.0  0.82175  0.19214  0.42968  1.0000
  H   H95       1.0  0.71165  0.17189  0.43485  1.0000
  H   H96       1.0  0.80302  0.27530  0.45820  1.0000
  C   C128      1.0  0.84584  0.48876  0.29041  1.0000
  C   C129      1.0  0.83698  0.50770  0.28338  1.0000
  C   C130      1.0  0.80534  0.53804  0.37959  1.0000
  C   C131      1.0  0.79082  0.55150  0.37717  1.0000
  C   C132      1.0  0.76234  0.53664  0.38284  1.0000
  C   C133      1.0  0.74711  0.54988  0.38635  1.0000
  C   C134      1.0  0.76063  0.57839  0.38551  1.0000
  C   C135      1.0  0.78916  0.59373  0.38020  1.0000
  C   C136      1.0  0.80407  0.58002  0.37731  1.0000
  C   C137      1.0  0.80192  0.62175  0.38312  1.0000
  C   C138      1.0  0.83336  0.66610  0.32704  1.0000
  C   C139      1.0  0.81803  0.67933  0.32527  1.0000
  C   C140      1.0  0.83089  0.70773  0.32340  1.0000
  C   C141      1.0  0.71945  0.53466  0.39697  1.0000
  C   C142      1.0  0.67512  0.50647  0.33629  1.0000
  C   C143      1.0  0.65500  0.51077  0.29771  1.0000
  C   C144      1.0  0.62753  0.49061  0.30196  1.0000
  H   H97       1.0  0.86301  0.49234  0.25749  1.0000
  H   H98       1.0  0.84784  0.52465  0.24524  1.0000
  H   H99       1.0  0.82477  0.59089  0.37635  1.0000
  H   H100      1.0  0.75258  0.51593  0.38602  1.0000
  H   H101      1.0  0.74958  0.58801  0.38974  1.0000
  H   H102      1.0  0.81933  0.71678  0.32073  1.0000
  H   H103      1.0  0.79736  0.66841  0.32378  1.0000
  H   H104      1.0  0.61334  0.49412  0.27315  1.0000
  H   H105      1.0  0.66019  0.52854  0.26565  1.0000
  H   H106      1.0  0.79581  0.62993  0.42977  1.0000
  H   H107      1.0  0.81620  0.54025  0.43411  1.0000
  H   H108      1.0  0.71262  0.52816  0.45830  1.0000
  C   C145      1.0  0.22207  0.10818  0.39655  1.0000
  C   C146      1.0  0.19386  0.09271  0.39791  1.0000
  H   H109      1.0  0.18448  0.08422  0.45713  1.0000
  H   H110      1.0  0.23239  0.11054  0.45486  1.0000
  C   C147      1.0  0.87969  0.11408  0.39639  1.0000
  C   C148      1.0  0.89521  0.10140  0.39769  1.0000
  H   H111      1.0  0.90360  0.10040  0.45698  1.0000
  H   H112      1.0  0.87722  0.12193  0.45480  1.0000
  C   C149      1.0  0.87381  0.76596  0.39613  1.0000
  C   C150      1.0  0.88654  0.79417  0.39740  1.0000
  H   H113      1.0  0.88741  0.80358  0.45656  1.0000
  H   H114      1.0  0.86581  0.75564  0.45444  1.0000
  C   C151      1.0  0.59381  0.14953  0.34462  1.0000
  C   C152      1.0  0.54352  0.14825  0.34651  1.0000
  C   C153      1.0  0.55347  0.14296  0.42692  1.0000
  C   C154      1.0  0.57882  0.14349  0.42587  1.0000
  C   C155      1.0  0.53777  0.13720  0.51206  1.0000
  H   H115      1.0  0.51843  0.13643  0.50483  1.0000
  H   H116      1.0  0.54954  0.15279  0.56126  1.0000
  H   H117      1.0  0.53323  0.11758  0.53838  1.0000
  C   C156      1.0  0.58948  0.13789  0.50966  1.0000
  H   H118      1.0  0.60818  0.13747  0.50050  1.0000
  H   H119      1.0  0.57481  0.11812  0.53616  1.0000
  H   H120      1.0  0.59331  0.15332  0.55949  1.0000
  C   C157      1.0  0.83843  0.44456  0.34470  1.0000
  C   C158      1.0  0.83981  0.39558  0.34646  1.0000
  C   C159      1.0  0.84507  0.41080  0.42690  1.0000
  C   C160      1.0  0.84450  0.43561  0.42590  1.0000
  C   C161      1.0  0.85085  0.40085  0.51200  1.0000
  H   H121      1.0  0.85167  0.38230  0.50469  1.0000
  H   H122      1.0  0.83526  0.39699  0.56120  1.0000
  H   H123      1.0  0.87045  0.41595  0.53834  1.0000
  C   C162      1.0  0.85008  0.45186  0.50973  1.0000
  H   H124      1.0  0.85045  0.47095  0.50062  1.0000
  H   H125      1.0  0.86985  0.45698  0.53621  1.0000
  H   H126      1.0  0.83466  0.44022  0.55955  1.0000
  C   C163      1.0  0.54337  0.39412  0.34448  1.0000
  C   C164      1.0  0.59233  0.44448  0.34657  1.0000
  C   C165      1.0  0.57711  0.43446  0.42697  1.0000
  C   C166      1.0  0.55232  0.40906  0.42583  1.0000
  C   C167      1.0  0.58702  0.45014  0.51217  1.0000
  H   H127      1.0  0.60554  0.46953  0.50496  1.0000
  H   H128      1.0  0.59091  0.43839  0.56125  1.0000
  H   H129      1.0  0.57189  0.45458  0.53862  1.0000
  C   C168      1.0  0.53609  0.39829  0.50964  1.0000
  H   H130      1.0  0.51702  0.37955  0.50044  1.0000
  H   H131      1.0  0.53092  0.41289  0.53633  1.0000
  H   H132      1.0  0.54775  0.39450  0.55933  1.0000
