data_image0
_chemical_formula_structural       C16H16C4HC2NHCHO2HNC4HC2NHCHO2HNC3NC3NC5NC5NC36H26C4H4CNC3H2CO2NCNC3H2CO2N
_chemical_formula_sum              "C96 H58 N12 O8"
_cell_length_a       38.3124
_cell_length_b       38.3122
_cell_length_c       14.9539
_cell_angle_alpha    90
_cell_angle_beta     90
_cell_angle_gamma    89.8458

_space_group_name_H-M_alt    "P 1"
_space_group_IT_number       1

loop_
  _space_group_symop_operation_xyz
  'x, y, z'

loop_
  _atom_site_type_symbol
  _atom_site_label
  _atom_site_symmetry_multiplicity
  _atom_site_fract_x
  _atom_site_fract_y
  _atom_site_fract_z
  _atom_site_occupancy
  C   C1        1.0  0.00501  0.81625  0.27963  1.0000
  C   C2        1.0  0.00676  0.85297  0.27793  1.0000
  C   C3        1.0  0.01855  0.73850  0.31428  1.0000
  C   C4        1.0  0.01470  0.70193  0.31769  1.0000
  C   C5        1.0  0.81993  0.99904  0.28344  1.0000
  C   C6        1.0  0.85665  0.99791  0.28276  1.0000
  C   C7        1.0  0.70642  0.98703  0.31307  1.0000
  C   C8        1.0  0.74301  0.98340  0.31584  1.0000
  C   C9        1.0  0.00281  0.14911  0.28245  1.0000
  C   C10       1.0  0.00311  0.18585  0.28323  1.0000
  C   C11       1.0  0.98807  0.29918  0.30904  1.0000
  C   C12       1.0  0.98520  0.26253  0.31136  1.0000
  C   C13       1.0  0.15295  0.00370  0.27882  1.0000
  C   C14       1.0  0.18968  0.00215  0.28097  1.0000
  C   C15       1.0  0.26695  0.01693  0.31705  1.0000
  C   C16       1.0  0.30360  0.01383  0.32114  1.0000
  H   H1        1.0  0.31842  0.03163  0.28719  1.0000
  H   H2        1.0  0.25641  0.03703  0.28081  1.0000
  H   H3        1.0  0.20301  0.00373  0.22181  1.0000
  H   H4        1.0  0.14056  0.00681  0.21866  1.0000
  H   H5        1.0  0.00112  0.13630  0.22252  1.0000
  H   H6        1.0  0.00217  0.19872  0.22331  1.0000
  H   H7        1.0  0.86941  0.99433  0.22329  1.0000
  H   H8        1.0  0.80700  0.99670  0.22386  1.0000
  H   H9        1.0  0.75423  0.96291  0.28253  1.0000
  H   H10       1.0  0.69230  0.96941  0.27657  1.0000
  H   H11       1.0  0.00961  0.86544  0.21784  1.0000
  H   H12       1.0  0.00621  0.80303  0.22024  1.0000
  H   H13       1.0  0.03214  0.68676  0.28324  1.0000
  H   H14       1.0  0.03878  0.74865  0.27801  1.0000
  H   H15       1.0  0.96620  0.25094  0.27359  1.0000
  H   H16       1.0  0.97150  0.31295  0.26844  1.0000
  C   C17       1.0  0.99791  0.59312  0.32581  1.0000
  C   C18       1.0  0.99450  0.51937  0.31873  1.0000
  C   C19       1.0  0.00363  0.53828  0.24022  1.0000
  C   C20       1.0  0.00507  0.57523  0.24538  1.0000
  H   H17       1.0  0.01064  0.58949  0.18915  1.0000
  C   C21       1.0  0.99184  0.48236  0.32402  1.0000
  C   C22       1.0  0.02103  0.42796  0.29604  1.0000
  N   N1        1.0  0.01916  0.46326  0.29236  1.0000
  H   H18       1.0  0.04246  0.41578  0.26990  1.0000
  C   C23       1.0  0.00870  0.52163  0.15892  1.0000
  H   H19       1.0  0.91592  0.50093  0.28876  1.0000
  O   O1        1.0  0.03459  0.52915  0.11486  1.0000
  O   O2        1.0  0.98212  0.51127  0.12050  1.0000
  H   H20       1.0  0.98194  0.50243  0.06576  1.0000
  N   N2        1.0  0.99933  0.62795  0.32622  1.0000
  C   C24       1.0  0.41270  0.99873  0.32977  1.0000
  C   C25       1.0  0.48648  0.99591  0.32261  1.0000
  C   C26       1.0  0.46743  0.00469  0.24397  1.0000
  C   C27       1.0  0.43046  0.00585  0.24919  1.0000
  H   H21       1.0  0.41611  0.01111  0.19289  1.0000
  C   C28       1.0  0.52351  0.99342  0.32782  1.0000
  C   C29       1.0  0.57764  0.02258  0.29845  1.0000
  N   N3        1.0  0.54235  0.02065  0.29528  1.0000
  H   H22       1.0  0.58960  0.04392  0.27156  1.0000
  C   C30       1.0  0.48386  0.00973  0.16247  1.0000
  H   H23       1.0  0.50550  0.91717  0.29445  1.0000
  O   O3        1.0  0.47615  0.03534  0.11736  1.0000
  O   O4        1.0  0.49666  0.98376  0.12583  1.0000
  H   H24       1.0  0.50594  0.98384  0.07156  1.0000
  N   N4        1.0  0.37786  0.99961  0.33004  1.0000
  C   C31       1.0  0.09458  0.93573  0.35540  1.0000
  C   C32       1.0  0.06899  0.91043  0.35557  1.0000
  C   C33       1.0  0.03649  0.92707  0.35536  1.0000
  N   N5        1.0  0.04362  0.96174  0.35510  1.0000
  C   C34       1.0  0.07836  0.96846  0.35569  1.0000
  C   C35       1.0  0.09615  0.00105  0.35656  1.0000
  C   C36       1.0  0.07957  0.03425  0.35812  1.0000
  N   N6        1.0  0.04497  0.04124  0.35897  1.0000
  C   C37       1.0  0.03840  0.07591  0.36112  1.0000
  C   C38       1.0  0.07096  0.09225  0.36146  1.0000
  C   C39       1.0  0.09631  0.06658  0.35989  1.0000
  C   C40       1.0  0.00540  0.09290  0.36235  1.0000
  C   C41       1.0  0.97262  0.07550  0.36225  1.0000
  N   N7        1.0  0.96549  0.04084  0.36255  1.0000
  C   C42       1.0  0.93075  0.03413  0.36227  1.0000
  C   C43       1.0  0.91452  0.06685  0.36177  1.0000
  C   C44       1.0  0.94012  0.09214  0.36207  1.0000
  C   C45       1.0  0.91294  0.00155  0.36204  1.0000
  C   C46       1.0  0.92955  0.96837  0.36049  1.0000
  N   N8        1.0  0.96415  0.96138  0.35867  1.0000
  C   C47       1.0  0.97072  0.92670  0.35770  1.0000
  C   C48       1.0  0.93816  0.91037  0.35872  1.0000
  C   C49       1.0  0.91281  0.93603  0.36079  1.0000
  C   C50       1.0  0.00371  0.90967  0.35617  1.0000
  C   C51       1.0  0.00373  0.87243  0.35777  1.0000
  C   C52       1.0  0.99934  0.85444  0.43935  1.0000
  C   C53       1.0  0.99732  0.81779  0.44071  1.0000
  C   C54       1.0  0.99976  0.79799  0.36088  1.0000
  C   C55       1.0  0.99583  0.76087  0.36237  1.0000
  C   C56       1.0  0.98775  0.68637  0.36875  1.0000
  C   C57       1.0  0.96478  0.70884  0.41571  1.0000
  C   C58       1.0  0.96873  0.74529  0.41259  1.0000
  C   C59       1.0  0.87571  0.00214  0.36284  1.0000
  C   C60       1.0  0.85730  0.00735  0.44356  1.0000
  C   C61       1.0  0.82058  0.00875  0.44386  1.0000
  C   C62       1.0  0.80120  0.00468  0.36386  1.0000
  C   C63       1.0  0.76398  0.00739  0.36364  1.0000
  C   C64       1.0  0.74696  0.03503  0.40901  1.0000
  C   C65       1.0  0.71045  0.03886  0.40566  1.0000
  C   C66       1.0  0.68953  0.01497  0.35758  1.0000
  C   C67       1.0  0.00526  0.13012  0.36314  1.0000
  C   C68       1.0  0.00609  0.20469  0.36441  1.0000
  C   C69       1.0  0.00838  0.18535  0.44498  1.0000
  C   C70       1.0  0.00786  0.14861  0.44452  1.0000
  C   C71       1.0  0.00791  0.24199  0.36458  1.0000
  C   C72       1.0  0.03342  0.25956  0.41601  1.0000
  C   C73       1.0  0.03652  0.29613  0.41320  1.0000
  C   C74       1.0  0.01396  0.31659  0.35956  1.0000
  C   C75       1.0  0.13337  0.00042  0.35838  1.0000
  C   C76       1.0  0.15124  0.99588  0.44011  1.0000
  C   C77       1.0  0.18791  0.99410  0.44192  1.0000
  C   C78       1.0  0.20784  0.99694  0.36242  1.0000
  C   C79       1.0  0.24503  0.99370  0.36449  1.0000
  C   C80       1.0  0.31969  0.98715  0.37232  1.0000
  C   C81       1.0  0.29769  0.96366  0.41867  1.0000
  C   C82       1.0  0.26116  0.96686  0.41484  1.0000
  H   H25       1.0  0.30806  0.94384  0.45632  1.0000
  H   H26       1.0  0.24639  0.94902  0.44881  1.0000
  H   H27       1.0  0.19997  0.99084  0.50242  1.0000
  H   H28       1.0  0.13766  0.99349  0.49876  1.0000
  H   H29       1.0  0.12077  0.93057  0.35579  1.0000
  H   H30       1.0  0.07381  0.88418  0.35617  1.0000
  H   H31       1.0  0.02600  0.97957  0.35471  1.0000
  H   H32       1.0  0.98310  0.02301  0.36380  1.0000
  H   H33       1.0  0.12258  0.07118  0.36009  1.0000
  H   H34       1.0  0.07588  0.11845  0.36286  1.0000
  H   H35       1.0  0.00962  0.13543  0.50393  1.0000
  H   H36       1.0  0.01017  0.19789  0.50522  1.0000
  H   H37       1.0  0.93529  0.11839  0.36178  1.0000
  H   H38       1.0  0.88833  0.07202  0.36105  1.0000
  H   H39       1.0  0.93320  0.88417  0.35829  1.0000
  H   H40       1.0  0.88656  0.93140  0.36227  1.0000
  H   H41       1.0  0.87051  0.01047  0.50251  1.0000
  H   H42       1.0  0.80807  0.01254  0.50357  1.0000
  H   H43       1.0  0.69932  0.05962  0.43817  1.0000
  H   H44       1.0  0.76112  0.05343  0.44275  1.0000
  H   H45       1.0  0.95122  0.76041  0.44695  1.0000
  H   H46       1.0  0.94479  0.69888  0.45330  1.0000
  H   H47       1.0  0.99399  0.80565  0.50107  1.0000
  H   H48       1.0  0.99698  0.86793  0.49816  1.0000
  H   H49       1.0  0.05093  0.24577  0.45388  1.0000
  H   H50       1.0  0.05582  0.30766  0.45017  1.0000
  C   C83       1.0  0.98353  0.65034  0.37628  1.0000
  C   C84       1.0  0.65370  0.02038  0.35202  1.0000
  C   C85       1.0  0.01885  0.35248  0.35450  1.0000
  C   C86       1.0  0.35579  0.98365  0.38042  1.0000
  H   H51       1.0  0.96687  0.64147  0.42198  1.0000
  H   H52       1.0  0.36497  0.96728  0.42652  1.0000
  H   H53       1.0  0.04277  0.36184  0.36432  1.0000
  H   H54       1.0  0.64463  0.04465  0.35791  1.0000
  C   C87       1.0  0.99013  0.57274  0.40187  1.0000
  N   N9        1.0  0.98866  0.53753  0.39540  1.0000
  C   C88       1.0  0.96323  0.46431  0.36336  1.0000
  C   C89       1.0  0.96454  0.42741  0.36739  1.0000
  C   C90       1.0  0.99370  0.40868  0.33540  1.0000
  H   H55       1.0  0.94413  0.41385  0.39488  1.0000
  H   H56       1.0  0.98554  0.58396  0.46267  1.0000
  C   C91       1.0  0.93330  0.48081  0.39477  1.0000
  O   O5        1.0  0.93196  0.48656  0.47508  1.0000
  O   O6        1.0  0.91616  0.50121  0.34800  1.0000
  N   N10       1.0  0.99350  0.37398  0.34128  1.0000
  C   C92       1.0  0.43321  0.99140  0.40598  1.0000
  N   N11       1.0  0.46842  0.99018  0.39944  1.0000
  C   C93       1.0  0.54182  0.96496  0.36755  1.0000
  C   C94       1.0  0.57871  0.96634  0.37105  1.0000
  C   C95       1.0  0.59719  0.99539  0.33809  1.0000
  H   H57       1.0  0.59247  0.94602  0.39872  1.0000
  H   H58       1.0  0.42207  0.98685  0.46687  1.0000
  C   C96       1.0  0.52564  0.93503  0.39964  1.0000
  O   O7        1.0  0.51964  0.93465  0.47991  1.0000
  O   O8        1.0  0.50512  0.91787  0.35366  1.0000
  N   N12       1.0  0.63189  0.99510  0.34351  1.0000
