data_image0
_chemical_formula_structural       C2HC6H3NC2HC6H3NC2HC6H3NC2NC2HNHNC2NC2HNHNC2NC2HNHNC2NC2HNHNC2NC2HNHNC2NC2HNHNC6H3C3H3C6H3C3H3C6H3C3H3C6H3C3H3C6H3C3H3C6H3C3H3C2NC2HNHNC2NC2HNHNC2NC2HNHNC2HC6H3NC2HC6H3NC2HC6H3NC2HC6H3NC2HC6H3NC2HC6H3N
_chemical_formula_sum              "C162 H90 N36"
_cell_length_a       61.1849
_cell_length_b       61.1848
_cell_length_c       15.0034
_cell_angle_alpha    90
_cell_angle_beta     90
_cell_angle_gamma    120

_space_group_name_H-M_alt    "P 1"
_space_group_IT_number       1

loop_
  _space_group_symop_operation_xyz
  'x, y, z'

loop_
  _atom_site_type_symbol
  _atom_site_label
  _atom_site_symmetry_multiplicity
  _atom_site_fract_x
  _atom_site_fract_y
  _atom_site_fract_z
  _atom_site_occupancy
  C   C1        1.0  0.97335  0.48981  0.22790  1.0000
  C   C2        1.0  0.94673  0.47570  0.23116  1.0000
  H   H1        1.0  0.93647  0.47378  0.17484  1.0000
  C   C3        1.0  0.01372  0.50613  0.30639  1.0000
  C   C4        1.0  0.06679  0.53410  0.30807  1.0000
  C   C5        1.0  0.05348  0.53232  0.22910  1.0000
  C   C6        1.0  0.02683  0.51821  0.22688  1.0000
  C   C7        1.0  0.01303  0.51584  0.14855  1.0000
  C   C8        1.0  0.98650  0.50175  0.14905  1.0000
  H   H2        1.0  0.02216  0.52439  0.09068  1.0000
  H   H3        1.0  0.97689  0.50037  0.09155  1.0000
  H   H4        1.0  0.06330  0.54120  0.17254  1.0000
  N   N1        1.0  0.09183  0.54788  0.30675  1.0000
  C   C9        1.0  0.50998  0.48362  0.22770  1.0000
  C   C10       1.0  0.52408  0.47110  0.23096  1.0000
  H   H5        1.0  0.52601  0.46277  0.17464  1.0000
  C   C11       1.0  0.49362  0.50763  0.30623  1.0000
  C   C12       1.0  0.46563  0.53269  0.30797  1.0000
  C   C13       1.0  0.46742  0.52119  0.22897  1.0000
  C   C14       1.0  0.48155  0.50867  0.22673  1.0000
  C   C15       1.0  0.48393  0.49726  0.14838  1.0000
  C   C16       1.0  0.49803  0.48483  0.14886  1.0000
  H   H6        1.0  0.47538  0.49783  0.09051  1.0000
  H   H7        1.0  0.49942  0.47661  0.09135  1.0000
  H   H8        1.0  0.45855  0.52214  0.17242  1.0000
  N   N2        1.0  0.45184  0.54395  0.30668  1.0000
  C   C17       1.0  0.51610  0.02629  0.22762  1.0000
  C   C18       1.0  0.52861  0.05291  0.23082  1.0000
  H   H9        1.0  0.53695  0.06316  0.17450  1.0000
  C   C19       1.0  0.49207  0.98594  0.30621  1.0000
  C   C20       1.0  0.46701  0.93287  0.30804  1.0000
  C   C21       1.0  0.47852  0.94617  0.22903  1.0000
  C   C22       1.0  0.49104  0.97281  0.22674  1.0000
  C   C23       1.0  0.50246  0.98660  0.14837  1.0000
  C   C24       1.0  0.51489  0.01312  0.14881  1.0000
  H   H10       1.0  0.50189  0.97745  0.09053  1.0000
  H   H11       1.0  0.52312  0.02273  0.09129  1.0000
  H   H12       1.0  0.47758  0.93633  0.17250  1.0000
  N   N3        1.0  0.45576  0.90783  0.30677  1.0000
  C   C25       1.0  0.21274  0.53775  0.33870  1.0000
  C   C26       1.0  0.22402  0.53519  0.26048  1.0000
  N   N4        1.0  0.24495  0.53297  0.26581  1.0000
  C   C27       1.0  0.25558  0.53206  0.34433  1.0000
  C   C28       1.0  0.31482  0.53709  0.26605  1.0000
  H   H13       1.0  0.21793  0.53707  0.19900  1.0000
  N   N5        1.0  0.29125  0.53395  0.26868  1.0000
  H   H14       1.0  0.32343  0.53967  0.20557  1.0000
  N   N6        1.0  0.19554  0.54488  0.33061  1.0000
  C   C29       1.0  0.46202  0.67497  0.33870  1.0000
  C   C30       1.0  0.46455  0.68880  0.26049  1.0000
  N   N7        1.0  0.46682  0.71198  0.26581  1.0000
  C   C31       1.0  0.46772  0.72351  0.34433  1.0000
  C   C32       1.0  0.46266  0.77769  0.26600  1.0000
  H   H15       1.0  0.46277  0.68087  0.19900  1.0000
  N   N8        1.0  0.46583  0.75728  0.26865  1.0000
  H   H16       1.0  0.46016  0.78376  0.20546  1.0000
  N   N9        1.0  0.45489  0.65064  0.33063  1.0000
  C   C33       1.0  0.32477  0.78688  0.33853  1.0000
  C   C34       1.0  0.31092  0.77561  0.26034  1.0000
  N   N10       1.0  0.28772  0.75472  0.26568  1.0000
  C   C35       1.0  0.27619  0.74410  0.34420  1.0000
  C   C36       1.0  0.22198  0.68487  0.26594  1.0000
  H   H17       1.0  0.31884  0.78176  0.19885  1.0000
  N   N11       1.0  0.24239  0.70845  0.26857  1.0000
  H   H18       1.0  0.21591  0.67629  0.20542  1.0000
  N   N12       1.0  0.34909  0.80410  0.33050  1.0000
  C   C37       1.0  0.78595  0.45773  0.34644  1.0000
  C   C38       1.0  0.77431  0.45964  0.26805  1.0000
  N   N13       1.0  0.75357  0.46218  0.27292  1.0000
  C   C39       1.0  0.74333  0.46387  0.35119  1.0000
  C   C40       1.0  0.68433  0.45916  0.27235  1.0000
  H   H19       1.0  0.78019  0.45736  0.20671  1.0000
  N   N14       1.0  0.70774  0.46194  0.27515  1.0000
  H   H20       1.0  0.67569  0.45639  0.21183  1.0000
  N   N15       1.0  0.80308  0.45058  0.33699  1.0000
  C   C41       1.0  0.54211  0.32827  0.34712  1.0000
  C   C42       1.0  0.54030  0.31480  0.26862  1.0000
  N   N16       1.0  0.53784  0.29155  0.27332  1.0000
  C   C43       1.0  0.53615  0.27957  0.35150  1.0000
  C   C44       1.0  0.54075  0.22526  0.27222  1.0000
  H   H21       1.0  0.54262  0.32299  0.20733  1.0000
  N   N17       1.0  0.53806  0.24594  0.27519  1.0000
  H   H22       1.0  0.54356  0.21942  0.21171  1.0000
  N   N18       1.0  0.54916  0.35253  0.33779  1.0000
  C   C45       1.0  0.67150  0.21371  0.34713  1.0000
  C   C46       1.0  0.68500  0.22536  0.26868  1.0000
  N   N19       1.0  0.70828  0.24611  0.27341  1.0000
  C   C47       1.0  0.72024  0.25640  0.35161  1.0000
  C   C48       1.0  0.77461  0.31526  0.27237  1.0000
  H   H23       1.0  0.67685  0.21943  0.20735  1.0000
  N   N20       1.0  0.75393  0.29189  0.27533  1.0000
  H   H24       1.0  0.78050  0.32386  0.21180  1.0000
  N   N21       1.0  0.64723  0.19652  0.33772  1.0000
  C   C49       1.0  0.13414  0.56232  0.34191  1.0000
  C   C50       1.0  0.15132  0.55366  0.35876  1.0000
  C   C51       1.0  0.17762  0.57019  0.35359  1.0000
  C   C52       1.0  0.18674  0.59575  0.33203  1.0000
  C   C53       1.0  0.17009  0.60501  0.31555  1.0000
  C   C54       1.0  0.14382  0.58808  0.31968  1.0000
  H   H25       1.0  0.20587  0.60789  0.32885  1.0000
  H   H26       1.0  0.13169  0.59482  0.30946  1.0000
  H   H27       1.0  0.14468  0.53521  0.37653  1.0000
  C   C55       1.0  0.19471  0.56252  0.37452  1.0000
  C   C56       1.0  0.17974  0.63031  0.29647  1.0000
  C   C57       1.0  0.10848  0.54585  0.35267  1.0000
  H   H28       1.0  0.10292  0.53171  0.39594  1.0000
  H   H29       1.0  0.17528  0.63537  0.23942  1.0000
  H   H30       1.0  0.20837  0.57299  0.41771  1.0000
  C   C58       1.0  0.43738  0.57181  0.34189  1.0000
  C   C59       1.0  0.44605  0.59766  0.35864  1.0000
  C   C60       1.0  0.42951  0.60742  0.35352  1.0000
  C   C61       1.0  0.40394  0.59097  0.33204  1.0000
  C   C62       1.0  0.39469  0.56505  0.31564  1.0000
  C   C63       1.0  0.41162  0.55571  0.31982  1.0000
  H   H31       1.0  0.39180  0.59795  0.32885  1.0000
  H   H32       1.0  0.40489  0.53685  0.30955  1.0000
  H   H33       1.0  0.46451  0.60947  0.37636  1.0000
  C   C64       1.0  0.43718  0.63218  0.37434  1.0000
  C   C65       1.0  0.36939  0.54940  0.29663  1.0000
  C   C66       1.0  0.45386  0.56262  0.35260  1.0000
  H   H34       1.0  0.46801  0.57121  0.39584  1.0000
  H   H35       1.0  0.36433  0.53979  0.23977  1.0000
  H   H36       1.0  0.42667  0.63539  0.41731  1.0000
  C   C67       1.0  0.42793  0.86551  0.34195  1.0000
  C   C68       1.0  0.40208  0.84832  0.35871  1.0000
  C   C69       1.0  0.39231  0.82203  0.35345  1.0000
  C   C70       1.0  0.40877  0.81292  0.33189  1.0000
  C   C71       1.0  0.43468  0.82959  0.31551  1.0000
  C   C72       1.0  0.44402  0.85585  0.31976  1.0000
  H   H37       1.0  0.40179  0.79380  0.32866  1.0000
  H   H38       1.0  0.46289  0.86799  0.30955  1.0000
  H   H39       1.0  0.39026  0.85496  0.37651  1.0000
  C   C73       1.0  0.36756  0.80492  0.37438  1.0000
  C   C74       1.0  0.45034  0.81994  0.29647  1.0000
  C   C75       1.0  0.43712  0.89118  0.35279  1.0000
  H   H40       1.0  0.42853  0.89672  0.39607  1.0000
  H   H41       1.0  0.45986  0.82440  0.23942  1.0000
  H   H42       1.0  0.36436  0.79123  0.41745  1.0000
  C   C76       1.0  0.86686  0.43717  0.30369  1.0000
  C   C77       1.0  0.85232  0.44752  0.33653  1.0000
  C   C78       1.0  0.82685  0.43165  0.36053  1.0000
  C   C79       1.0  0.81590  0.40529  0.35059  1.0000
  C   C80       1.0  0.82997  0.39447  0.31688  1.0000
  C   C81       1.0  0.85548  0.41070  0.29326  1.0000
  H   H43       1.0  0.79718  0.39387  0.36593  1.0000
  H   H44       1.0  0.86584  0.40320  0.26761  1.0000
  H   H45       1.0  0.86036  0.46668  0.34384  1.0000
  C   C82       1.0  0.81228  0.44127  0.39233  1.0000
  C   C83       1.0  0.81838  0.36873  0.30083  1.0000
  C   C84       1.0  0.89176  0.45299  0.28094  1.0000
  H   H46       1.0  0.89606  0.46737  0.23997  1.0000
  H   H47       1.0  0.82190  0.36268  0.24403  1.0000
  H   H48       1.0  0.80585  0.43712  0.45442  1.0000
  C   C85       1.0  0.56251  0.42968  0.30372  1.0000
  C   C86       1.0  0.55210  0.40482  0.33693  1.0000
  C   C87       1.0  0.56789  0.39516  0.36117  1.0000
  C   C88       1.0  0.59426  0.41049  0.35115  1.0000
  C   C89       1.0  0.60514  0.43534  0.31702  1.0000
  C   C90       1.0  0.58898  0.44468  0.29320  1.0000
  H   H49       1.0  0.60564  0.40314  0.36665  1.0000
  H   H50       1.0  0.59653  0.46252  0.26729  1.0000
  H   H51       1.0  0.53292  0.39375  0.34430  1.0000
  C   C91       1.0  0.55816  0.37099  0.39331  1.0000
  C   C92       1.0  0.63088  0.44942  0.30090  1.0000
  C   C93       1.0  0.54675  0.43881  0.28074  1.0000
  H   H52       1.0  0.53237  0.42875  0.23975  1.0000
  H   H53       1.0  0.63694  0.45898  0.24409  1.0000
  H   H54       1.0  0.56232  0.36879  0.45547  1.0000
  C   C94       1.0  0.57006  0.13277  0.30348  1.0000
  C   C95       1.0  0.59491  0.14719  0.33673  1.0000
  C   C96       1.0  0.60460  0.17265  0.36099  1.0000
  C   C97       1.0  0.58929  0.18372  0.35093  1.0000
  C   C98       1.0  0.56444  0.16977  0.31678  1.0000
  C   C99       1.0  0.55508  0.14426  0.29293  1.0000
  H   H55       1.0  0.59665  0.20244  0.36645  1.0000
  H   H56       1.0  0.53724  0.13398  0.26700  1.0000
  H   H57       1.0  0.60596  0.13907  0.34414  1.0000
  C   C100      1.0  0.62876  0.18707  0.39319  1.0000
  C   C101      1.0  0.55038  0.18145  0.30065  1.0000
  C   C102      1.0  0.56090  0.10787  0.28048  1.0000
  H   H58       1.0  0.57099  0.10355  0.23961  1.0000
  H   H59       1.0  0.54083  0.17797  0.24382  1.0000
  H   H60       1.0  0.63095  0.19341  0.45537  1.0000
  C   C103      1.0  0.93409  0.46408  0.31134  1.0000
  C   C104      1.0  0.94882  0.46649  0.38684  1.0000
  N   N22       1.0  0.97434  0.48024  0.38240  1.0000
  C   C105      1.0  0.98711  0.49197  0.30689  1.0000
  C   C106      1.0  0.05263  0.52191  0.38517  1.0000
  H   H61       1.0  0.94054  0.45829  0.44613  1.0000
  N   N23       1.0  0.02709  0.50858  0.38171  1.0000
  H   H62       1.0  0.06127  0.52313  0.44466  1.0000
  N   N24       1.0  0.90918  0.45056  0.31943  1.0000
  C   C107      1.0  0.53570  0.47008  0.31114  1.0000
  C   C108      1.0  0.53327  0.48238  0.38667  1.0000
  N   N25       1.0  0.51952  0.49415  0.38224  1.0000
  C   C109      1.0  0.50780  0.49520  0.30671  1.0000
  C   C110      1.0  0.47781  0.53072  0.38506  1.0000
  H   H63       1.0  0.54146  0.48228  0.44597  1.0000
  N   N26       1.0  0.49117  0.51854  0.38158  1.0000
  H   H64       1.0  0.47658  0.53814  0.44457  1.0000
  N   N27       1.0  0.54919  0.45866  0.31928  1.0000
  C   C111      1.0  0.52963  0.06557  0.31096  1.0000
  C   C112      1.0  0.51732  0.05085  0.38650  1.0000
  N   N28       1.0  0.50555  0.02533  0.38212  1.0000
  C   C113      1.0  0.50451  0.01255  0.30664  1.0000
  C   C114      1.0  0.46897  0.94704  0.38508  1.0000
  H   H65       1.0  0.51742  0.05914  0.44579  1.0000
  N   N29       1.0  0.48116  0.97258  0.38156  1.0000
  H   H66       1.0  0.46155  0.93841  0.44460  1.0000
  N   N30       1.0  0.54106  0.09047  0.31904  1.0000
  C   C115      1.0  0.24416  0.53305  0.42558  1.0000
  C   C116      1.0  0.22247  0.53558  0.42167  1.0000
  H   H67       1.0  0.21474  0.53762  0.47938  1.0000
  C   C117      1.0  0.27891  0.53255  0.34576  1.0000
  C   C118      1.0  0.32816  0.53998  0.34606  1.0000
  C   C119      1.0  0.31577  0.53815  0.42732  1.0000
  C   C120      1.0  0.29101  0.53428  0.42845  1.0000
  C   C121      1.0  0.27894  0.53404  0.50892  1.0000
  C   C122      1.0  0.25563  0.53334  0.50751  1.0000
  H   H68       1.0  0.28754  0.53555  0.56895  1.0000
  H   H69       1.0  0.24780  0.53437  0.56653  1.0000
  H   H70       1.0  0.32547  0.54128  0.48603  1.0000
  N   N31       1.0  0.35295  0.54981  0.34875  1.0000
  C   C123      1.0  0.46671  0.71108  0.42559  1.0000
  C   C124      1.0  0.46420  0.68688  0.42167  1.0000
  H   H71       1.0  0.46211  0.67709  0.47939  1.0000
  C   C125      1.0  0.46720  0.74634  0.34576  1.0000
  C   C126      1.0  0.45971  0.78809  0.34601  1.0000
  C   C127      1.0  0.46155  0.77757  0.42732  1.0000
  C   C128      1.0  0.46544  0.75669  0.42846  1.0000
  C   C129      1.0  0.46566  0.74485  0.50892  1.0000
  C   C130      1.0  0.46640  0.72226  0.50751  1.0000
  H   H72       1.0  0.46412  0.75192  0.56894  1.0000
  H   H73       1.0  0.46532  0.71337  0.56651  1.0000
  H   H74       1.0  0.45841  0.78414  0.48600  1.0000
  N   N32       1.0  0.44994  0.80311  0.34866  1.0000
  C   C131      1.0  0.28863  0.75551  0.42545  1.0000
  C   C132      1.0  0.31287  0.77716  0.42151  1.0000
  H   H75       1.0  0.32263  0.78491  0.47923  1.0000
  C   C133      1.0  0.25334  0.72078  0.34566  1.0000
  C   C134      1.0  0.21158  0.67153  0.34597  1.0000
  C   C135      1.0  0.22209  0.68391  0.42727  1.0000
  C   C136      1.0  0.24299  0.70867  0.42836  1.0000
  C   C137      1.0  0.25483  0.72074  0.50882  1.0000
  C   C138      1.0  0.27743  0.74406  0.50739  1.0000
  H   H76       1.0  0.24777  0.71212  0.56883  1.0000
  H   H77       1.0  0.28635  0.75183  0.56639  1.0000
  H   H78       1.0  0.21555  0.67420  0.48597  1.0000
  N   N33       1.0  0.19656  0.64674  0.34866  1.0000
  C   C139      1.0  0.75495  0.46340  0.43259  1.0000
  C   C140      1.0  0.77649  0.46058  0.42910  1.0000
  H   H79       1.0  0.78436  0.45910  0.48727  1.0000
  C   C141      1.0  0.72018  0.46374  0.35233  1.0000
  C   C142      1.0  0.67125  0.45711  0.35232  1.0000
  C   C143      1.0  0.68378  0.45941  0.43367  1.0000
  C   C144      1.0  0.70839  0.46286  0.43493  1.0000
  C   C145      1.0  0.72067  0.46361  0.51548  1.0000
  C   C146      1.0  0.74385  0.46401  0.51433  1.0000
  H   H80       1.0  0.71232  0.46274  0.57552  1.0000
  H   H81       1.0  0.75179  0.46332  0.57356  1.0000
  H   H82       1.0  0.67430  0.45699  0.49246  1.0000
  N   N34       1.0  0.64657  0.44826  0.35489  1.0000
  C   C147      1.0  0.53658  0.29162  0.43298  1.0000
  C   C148      1.0  0.53933  0.31594  0.42968  1.0000
  H   H83       1.0  0.54078  0.32526  0.48792  1.0000
  C   C149      1.0  0.53627  0.25655  0.35244  1.0000
  C   C150      1.0  0.54268  0.21411  0.35209  1.0000
  C   C151      1.0  0.54046  0.22436  0.43352  1.0000
  C   C152      1.0  0.53708  0.24557  0.43495  1.0000
  C   C153      1.0  0.53632  0.25705  0.51560  1.0000
  C   C154      1.0  0.53597  0.27985  0.51463  1.0000
  H   H84       1.0  0.53713  0.24951  0.57558  1.0000
  H   H85       1.0  0.53656  0.28840  0.57393  1.0000
  H   H86       1.0  0.54281  0.21723  0.49225  1.0000
  N   N35       1.0  0.55154  0.19829  0.35470  1.0000
  C   C155      1.0  0.70814  0.24482  0.43308  1.0000
  C   C156      1.0  0.68381  0.22326  0.42972  1.0000
  H   H87       1.0  0.67446  0.21545  0.48796  1.0000
  C   C157      1.0  0.74327  0.27953  0.35261  1.0000
  C   C158      1.0  0.78569  0.32837  0.35225  1.0000
  C   C159      1.0  0.77542  0.31593  0.43370  1.0000
  C   C160      1.0  0.75421  0.29134  0.43513  1.0000
  C   C161      1.0  0.74268  0.27913  0.51576  1.0000
  C   C162      1.0  0.71987  0.25599  0.51475  1.0000
  H   H88       1.0  0.75019  0.28750  0.57575  1.0000
  H   H89       1.0  0.71127  0.24806  0.57403  1.0000
  H   H90       1.0  0.78253  0.32543  0.49242  1.0000
  N   N36       1.0  0.80152  0.35305  0.35478  1.0000
