data_image0
_chemical_formula_structural       C2H2C2NO2CHC4HCHNCHC4H4N2HC8H2CNCNC3HC4H4NC2N2O4C3N2O3CHC6H6N2C6H6N2C4H4N2C6H6N2C6H6N2C3N2O4CHC3N2O4CH2C3H2CHCHC3H2CHC3H2CHC3H2CHC12H5CNC2NHN2C12H5CNC2NHN2C8H4CNCN2C12H5CNC2NHN2C12H5CNC2NHN2C3H2CHC3H2CHC2HC3N2O4CHOC3N2O4CHC3N2O4CHC3N2O4CHC2H2CNO2C4HCHNC2HCH
_chemical_formula_sum              "C198 H108 N54 O36"
_cell_length_a       76.8831
_cell_length_b       76.8832
_cell_length_c       14.8909
_cell_angle_alpha    90
_cell_angle_beta     90
_cell_angle_gamma    120

_space_group_name_H-M_alt    "P 1"
_space_group_IT_number       1

loop_
  _space_group_symop_operation_xyz
  'x, y, z'

loop_
  _atom_site_type_symbol
  _atom_site_label
  _atom_site_symmetry_multiplicity
  _atom_site_fract_x
  _atom_site_fract_y
  _atom_site_fract_z
  _atom_site_occupancy
  C   C1        1.0  0.09167  0.56089  0.33110  1.0000
  C   C2        1.0  0.11284  0.57177  0.33005  1.0000
  H   H1        1.0  0.08410  0.56865  0.32678  1.0000
  H   H2        1.0  0.11978  0.58706  0.32407  1.0000
  C   C3        1.0  0.02669  0.51731  0.32046  1.0000
  C   C4        1.0  0.01434  0.50967  0.24289  1.0000
  N   N1        1.0  0.02384  0.51592  0.15781  1.0000
  O   O1        1.0  0.02246  0.50150  0.11244  1.0000
  O   O2        1.0  0.01719  0.52518  0.11298  1.0000
  C   C5        1.0  0.04695  0.53171  0.31387  1.0000
  H   H3        1.0  0.05051  0.54446  0.28233  1.0000
  C   C6        1.0  0.12434  0.56203  0.33702  1.0000
  C   C7        1.0  0.11349  0.54081  0.34573  1.0000
  C   C8        1.0  0.09230  0.52992  0.34727  1.0000
  C   C9        1.0  0.08100  0.53972  0.33913  1.0000
  H   H4        1.0  0.08512  0.51462  0.35376  1.0000
  C   C10       1.0  0.14590  0.57316  0.33595  1.0000
  H   H5        1.0  0.12091  0.53293  0.35155  1.0000
  N   N2        1.0  0.06093  0.52842  0.34132  1.0000
  C   C11       1.0  0.01777  0.51115  0.40602  1.0000
  H   H6        1.0  0.02628  0.51660  0.46301  1.0000
  C   C12       1.0  0.18850  0.62621  0.32913  1.0000
  C   C13       1.0  0.17993  0.63880  0.33242  1.0000
  C   C14       1.0  0.19213  0.65997  0.33197  1.0000
  C   C15       1.0  0.21328  0.66919  0.32972  1.0000
  H   H7        1.0  0.16468  0.63267  0.33584  1.0000
  H   H8        1.0  0.18550  0.66864  0.33504  1.0000
  H   H9        1.0  0.18976  0.52111  0.32488  1.0000
  H   H10       1.0  0.16756  0.53466  0.32302  1.0000
  N   N3        1.0  0.15623  0.59373  0.33272  1.0000
  N   N4        1.0  0.22503  0.68914  0.32872  1.0000
  H   H11       1.0  0.21857  0.51393  0.32394  1.0000
  C   C16       1.0  0.19010  0.56516  0.34136  1.0000
  C   C17       1.0  0.22188  0.65677  0.32345  1.0000
  C   C18       1.0  0.20977  0.63580  0.32371  1.0000
  C   C19       1.0  0.21117  0.57759  0.35299  1.0000
  C   C20       1.0  0.22412  0.56969  0.35388  1.0000
  C   C21       1.0  0.21660  0.54897  0.34295  1.0000
  C   C22       1.0  0.19565  0.53626  0.33229  1.0000
  C   C23       1.0  0.18261  0.54426  0.33167  1.0000
  H   H12       1.0  0.21696  0.62766  0.31980  1.0000
  H   H13       1.0  0.21758  0.59278  0.36137  1.0000
  C   C24       1.0  0.17745  0.57389  0.33841  1.0000
  N   N5        1.0  0.18634  0.59413  0.33484  1.0000
  C   C25       1.0  0.17667  0.60474  0.33177  1.0000
  N   N6        1.0  0.15697  0.56367  0.33860  1.0000
  C   C26       1.0  0.24917  0.52798  0.34806  1.0000
  C   C27       1.0  0.26206  0.53279  0.27333  1.0000
  C   C28       1.0  0.28175  0.53640  0.28378  1.0000
  H   H14       1.0  0.25755  0.53462  0.21099  1.0000
  C   C29       1.0  0.23085  0.52699  0.33633  1.0000
  C   C30       1.0  0.28615  0.75998  0.34806  1.0000
  C   C31       1.0  0.27807  0.74710  0.27329  1.0000
  C   C32       1.0  0.26200  0.72741  0.28372  1.0000
  H   H15       1.0  0.25736  0.71815  0.22874  1.0000
  H   H16       1.0  0.28445  0.75160  0.21101  1.0000
  H   H17       1.0  0.23713  0.66295  0.31893  1.0000
  H   H18       1.0  0.23921  0.57931  0.36246  1.0000
  N   N7        1.0  0.23028  0.54327  0.34564  1.0000
  C   C33       1.0  0.27615  0.52993  0.44480  1.0000
  C   C34       1.0  0.25614  0.52626  0.43447  1.0000
  N   N8        1.0  0.28401  0.52894  0.52978  1.0000
  N   N9        1.0  0.24420  0.52162  0.51311  1.0000
  O   O3        1.0  0.27453  0.51169  0.56370  1.0000
  O   O4        1.0  0.23994  0.53496  0.53254  1.0000
  O   O5        1.0  0.28445  0.54162  0.58434  1.0000
  O   O6        1.0  0.22836  0.50488  0.50771  1.0000
  C   C35       1.0  0.25344  0.72003  0.36907  1.0000
  C   C36       1.0  0.26113  0.73300  0.44476  1.0000
  C   C37       1.0  0.27746  0.75301  0.43445  1.0000
  N   N10       1.0  0.25227  0.72512  0.52972  1.0000
  N   N11       1.0  0.28474  0.76494  0.51310  1.0000
  O   O7        1.0  0.24449  0.73459  0.56366  1.0000
  O   O8        1.0  0.26452  0.72468  0.58428  1.0000
  O   O9        1.0  0.28385  0.78078  0.50769  1.0000
  C   C38       1.0  0.24038  0.69955  0.37965  1.0000
  H   H19       1.0  0.24403  0.69254  0.42586  1.0000
  C   C39       1.0  0.38293  0.56409  0.32919  1.0000
  C   C40       1.0  0.44826  0.53258  0.33110  1.0000
  C   C41       1.0  0.43737  0.54288  0.33009  1.0000
  C   C42       1.0  0.37034  0.54293  0.33236  1.0000
  C   C43       1.0  0.34918  0.53396  0.33193  1.0000
  C   C44       1.0  0.33996  0.54589  0.32974  1.0000
  H   H20       1.0  0.44050  0.51726  0.32682  1.0000
  H   H21       1.0  0.42209  0.53453  0.32413  1.0000
  H   H22       1.0  0.37648  0.53382  0.33567  1.0000
  H   H23       1.0  0.34051  0.51865  0.33483  1.0000
  H   H24       1.0  0.48803  0.67045  0.32487  1.0000
  H   H25       1.0  0.47449  0.63470  0.32300  1.0000
  N   N12       1.0  0.41542  0.56430  0.33274  1.0000
  N   N13       1.0  0.32000  0.53769  0.32872  1.0000
  C   C45       1.0  0.44506  0.82065  0.32915  1.0000
  C   C46       1.0  0.47657  0.91747  0.33109  1.0000
  C   C47       1.0  0.46627  0.89630  0.33005  1.0000
  C   C48       1.0  0.46621  0.82922  0.33236  1.0000
  C   C49       1.0  0.47519  0.81702  0.33193  1.0000
  C   C50       1.0  0.46326  0.79587  0.32972  1.0000
  H   H26       1.0  0.49190  0.92504  0.32680  1.0000
  H   H27       1.0  0.47462  0.88936  0.32406  1.0000
  H   H28       1.0  0.47533  0.84447  0.33573  1.0000
  H   H29       1.0  0.49049  0.82366  0.33491  1.0000
  H   H30       1.0  0.33870  0.81938  0.32488  1.0000
  H   H31       1.0  0.37445  0.84159  0.32295  1.0000
  N   N14       1.0  0.44485  0.85292  0.33271  1.0000
  N   N15       1.0  0.47146  0.78412  0.32875  1.0000
  C   C51       1.0  0.82256  0.38127  0.33114  1.0000
  C   C52       1.0  0.83114  0.36870  0.33330  1.0000
  C   C53       1.0  0.81895  0.34753  0.33275  1.0000
  C   C54       1.0  0.79780  0.33829  0.33150  1.0000
  H   H32       1.0  0.84640  0.37484  0.33571  1.0000
  H   H33       1.0  0.82561  0.33887  0.33476  1.0000
  H   H34       1.0  0.82117  0.48633  0.32386  1.0000
  H   H35       1.0  0.84341  0.47283  0.32192  1.0000
  N   N16       1.0  0.85483  0.41378  0.33348  1.0000
  N   N17       1.0  0.78606  0.31833  0.33005  1.0000
  C   C55       1.0  0.62787  0.44309  0.33118  1.0000
  C   C56       1.0  0.56251  0.47454  0.34168  1.0000
  C   C57       1.0  0.57340  0.46425  0.34204  1.0000
  C   C58       1.0  0.64045  0.46425  0.33325  1.0000
  C   C59       1.0  0.66161  0.47323  0.33267  1.0000
  C   C60       1.0  0.67085  0.46131  0.33150  1.0000
  H   H36       1.0  0.57028  0.48987  0.34501  1.0000
  H   H37       1.0  0.58870  0.47261  0.34693  1.0000
  H   H38       1.0  0.63430  0.47336  0.33561  1.0000
  H   H39       1.0  0.67028  0.48855  0.33465  1.0000
  H   H40       1.0  0.52282  0.33664  0.32371  1.0000
  H   H41       1.0  0.53632  0.37239  0.32188  1.0000
  N   N18       1.0  0.59537  0.44285  0.33349  1.0000
  N   N19       1.0  0.69081  0.46953  0.33005  1.0000
  C   C61       1.0  0.56605  0.18658  0.33121  1.0000
  C   C62       1.0  0.53459  0.08977  0.34162  1.0000
  C   C63       1.0  0.54489  0.11095  0.34199  1.0000
  C   C64       1.0  0.54489  0.17799  0.33323  1.0000
  C   C65       1.0  0.53591  0.19018  0.33267  1.0000
  C   C66       1.0  0.54782  0.21133  0.33162  1.0000
  H   H42       1.0  0.51926  0.08220  0.34495  1.0000
  H   H43       1.0  0.53652  0.11789  0.34687  1.0000
  H   H44       1.0  0.53577  0.16273  0.33551  1.0000
  H   H45       1.0  0.52059  0.18352  0.33459  1.0000
  H   H46       1.0  0.67250  0.18797  0.32383  1.0000
  H   H47       1.0  0.63675  0.16573  0.32188  1.0000
  N   N20       1.0  0.56628  0.15431  0.33349  1.0000
  N   N21       1.0  0.53961  0.22307  0.33011  1.0000
  C   C67       1.0  0.49183  0.51118  0.32044  1.0000
  C   C68       1.0  0.49948  0.50648  0.24285  1.0000
  C   C69       1.0  0.51318  0.49913  0.25171  1.0000
  N   N22       1.0  0.49322  0.50973  0.15779  1.0000
  N   N23       1.0  0.52053  0.49532  0.17109  1.0000
  O   O10       1.0  0.50763  0.52276  0.11240  1.0000
  O   O11       1.0  0.51478  0.47703  0.16052  1.0000
  O   O12       1.0  0.48395  0.49381  0.11297  1.0000
  O   O13       1.0  0.53932  0.50555  0.16447  1.0000
  C   C70       1.0  0.47744  0.51704  0.31386  1.0000
  H   H48       1.0  0.46466  0.50783  0.28256  1.0000
  C   C71       1.0  0.49798  0.98246  0.32049  1.0000
  C   C72       1.0  0.50267  0.99479  0.24289  1.0000
  C   C73       1.0  0.51000  0.01584  0.25173  1.0000
  N   N24       1.0  0.49943  0.98529  0.15783  1.0000
  N   N25       1.0  0.51381  0.02700  0.17110  1.0000
  O   O14       1.0  0.48639  0.98665  0.11243  1.0000
  O   O15       1.0  0.53210  0.03955  0.16053  1.0000
  O   O16       1.0  0.51535  0.99194  0.11302  1.0000
  O   O17       1.0  0.50357  0.03555  0.16445  1.0000
  C   C74       1.0  0.49212  0.96220  0.31392  1.0000
  H   H49       1.0  0.50132  0.95864  0.28245  1.0000
  H   H50       1.0  0.29100  0.54097  0.22878  1.0000
  C   C75       1.0  0.48118  0.72300  0.34802  1.0000
  C   C76       1.0  0.47639  0.73110  0.27328  1.0000
  C   C77       1.0  0.47278  0.74717  0.28373  1.0000
  H   H51       1.0  0.46816  0.75182  0.22879  1.0000
  H   H52       1.0  0.47451  0.72472  0.21098  1.0000
  C   C78       1.0  0.48216  0.70566  0.33629  1.0000
  H   H53       1.0  0.49521  0.70644  0.32378  1.0000
  C   C79       1.0  0.30349  0.77830  0.33635  1.0000
  H   H54       1.0  0.30271  0.79057  0.32365  1.0000
  C   C80       1.0  0.76170  0.47936  0.34787  1.0000
  C   C81       1.0  0.74875  0.47454  0.27338  1.0000
  C   C82       1.0  0.72906  0.47090  0.28427  1.0000
  H   H55       1.0  0.71975  0.46632  0.22946  1.0000
  H   H56       1.0  0.75321  0.47270  0.21093  1.0000
  C   C83       1.0  0.78004  0.48039  0.33573  1.0000
  H   H57       1.0  0.79229  0.49347  0.32332  1.0000
  C   C84       1.0  0.52977  0.28415  0.34787  1.0000
  C   C85       1.0  0.53462  0.27603  0.27341  1.0000
  C   C86       1.0  0.53825  0.25997  0.28431  1.0000
  H   H58       1.0  0.54283  0.25525  0.22952  1.0000
  H   H59       1.0  0.53646  0.28232  0.21095  1.0000
  C   C87       1.0  0.52875  0.30145  0.33571  1.0000
  H   H60       1.0  0.51565  0.30064  0.32390  1.0000
  C   C88       1.0  0.72499  0.24742  0.34784  1.0000
  C   C89       1.0  0.73314  0.26037  0.27333  1.0000
  C   C90       1.0  0.74919  0.28006  0.28419  1.0000
  H   H61       1.0  0.75388  0.28937  0.22941  1.0000
  H   H62       1.0  0.72682  0.25592  0.21091  1.0000
  C   C91       1.0  0.70768  0.22909  0.33571  1.0000
  H   H63       1.0  0.70850  0.21684  0.32320  1.0000
  C   C92       1.0  0.44711  0.56411  0.33702  1.0000
  C   C93       1.0  0.44398  0.62674  0.34137  1.0000
  C   C94       1.0  0.46834  0.57449  0.34568  1.0000
  C   C95       1.0  0.47923  0.56419  0.34722  1.0000
  C   C96       1.0  0.46943  0.54309  0.33912  1.0000
  C   C97       1.0  0.35237  0.56691  0.32359  1.0000
  C   C98       1.0  0.37334  0.57577  0.32388  1.0000
  C   C99       1.0  0.43155  0.63539  0.35303  1.0000
  C   C100      1.0  0.43946  0.65624  0.35393  1.0000
  C   C101      1.0  0.46017  0.66944  0.34297  1.0000
  C   C102      1.0  0.47289  0.66120  0.33229  1.0000
  C   C103      1.0  0.46488  0.64015  0.33167  1.0000
  H   H64       1.0  0.49453  0.57232  0.35367  1.0000
  H   H65       1.0  0.38147  0.59110  0.32005  1.0000
  H   H66       1.0  0.34619  0.57598  0.31915  1.0000
  H   H67       1.0  0.41637  0.62661  0.36142  1.0000
  H   H68       1.0  0.42984  0.66171  0.36252  1.0000
  C   C104      1.0  0.43525  0.60536  0.33842  1.0000
  N   N26       1.0  0.41501  0.59401  0.33487  1.0000
  C   C105      1.0  0.40440  0.57373  0.33180  1.0000
  C   C106      1.0  0.43599  0.57455  0.33596  1.0000
  N   N27       1.0  0.44548  0.59511  0.33860  1.0000
  H   H69       1.0  0.47622  0.58979  0.35148  1.0000
  N   N28       1.0  0.46587  0.68881  0.34567  1.0000
  N   N29       1.0  0.48074  0.53433  0.34123  1.0000
  C   C107      1.0  0.44504  0.88481  0.33700  1.0000
  C   C108      1.0  0.38240  0.81904  0.34141  1.0000
  C   C109      1.0  0.43467  0.89566  0.34570  1.0000
  C   C110      1.0  0.44497  0.91684  0.34726  1.0000
  C   C111      1.0  0.46607  0.92814  0.33915  1.0000
  C   C112      1.0  0.44224  0.78727  0.32354  1.0000
  C   C113      1.0  0.43338  0.79937  0.32381  1.0000
  C   C114      1.0  0.37376  0.79797  0.35311  1.0000
  C   C115      1.0  0.35291  0.78502  0.35406  1.0000
  C   C116      1.0  0.33971  0.79254  0.34311  1.0000
  C   C117      1.0  0.34795  0.81349  0.33234  1.0000
  C   C118      1.0  0.36900  0.82654  0.33169  1.0000
  H   H70       1.0  0.43685  0.92402  0.35375  1.0000
  H   H71       1.0  0.41805  0.79218  0.31995  1.0000
  H   H72       1.0  0.43317  0.77201  0.31907  1.0000
  H   H73       1.0  0.38254  0.79156  0.36152  1.0000
  H   H74       1.0  0.34744  0.76994  0.36269  1.0000
  C   C119      1.0  0.40379  0.83169  0.33842  1.0000
  N   N30       1.0  0.41513  0.82280  0.33486  1.0000
  C   C120      1.0  0.43542  0.83247  0.33178  1.0000
  C   C121      1.0  0.43460  0.86324  0.33594  1.0000
  N   N31       1.0  0.41404  0.85217  0.33860  1.0000
  H   H75       1.0  0.41936  0.88823  0.35151  1.0000
  N   N32       1.0  0.32034  0.77887  0.34582  1.0000
  N   N33       1.0  0.47484  0.94821  0.34132  1.0000
  C   C122      1.0  0.82089  0.44231  0.34008  1.0000
  C   C123      1.0  0.78917  0.35070  0.32655  1.0000
  C   C124      1.0  0.80127  0.37167  0.32697  1.0000
  C   C125      1.0  0.79982  0.42986  0.35158  1.0000
  C   C126      1.0  0.78684  0.43773  0.35253  1.0000
  C   C127      1.0  0.79434  0.45845  0.34180  1.0000
  C   C128      1.0  0.81529  0.47119  0.33111  1.0000
  C   C129      1.0  0.82835  0.46320  0.33044  1.0000
  H   H76       1.0  0.79405  0.37979  0.32392  1.0000
  H   H77       1.0  0.77391  0.34452  0.32273  1.0000
  H   H78       1.0  0.79341  0.41467  0.35990  1.0000
  H   H79       1.0  0.77176  0.42810  0.36111  1.0000
  C   C130      1.0  0.83358  0.43360  0.33759  1.0000
  N   N34       1.0  0.82470  0.41336  0.33533  1.0000
  C   C131      1.0  0.83438  0.40275  0.33308  1.0000
  N   N35       1.0  0.85405  0.44385  0.33714  1.0000
  N   N36       1.0  0.78065  0.46412  0.34479  1.0000
  C   C132      1.0  0.56365  0.44301  0.33549  1.0000
  C   C133      1.0  0.56684  0.38039  0.34013  1.0000
  C   C134      1.0  0.54240  0.43260  0.32840  1.0000
  C   C135      1.0  0.53150  0.44289  0.32741  1.0000
  C   C136      1.0  0.54132  0.46400  0.33482  1.0000
  C   C137      1.0  0.65844  0.44027  0.32664  1.0000
  C   C138      1.0  0.63747  0.43140  0.32706  1.0000
  C   C139      1.0  0.57929  0.37176  0.35164  1.0000
  C   C140      1.0  0.57141  0.35091  0.35252  1.0000
  C   C141      1.0  0.55070  0.33770  0.34172  1.0000
  C   C142      1.0  0.53796  0.34591  0.33105  1.0000
  C   C143      1.0  0.54594  0.36695  0.33043  1.0000
  H   H80       1.0  0.51620  0.43477  0.32112  1.0000
  H   H81       1.0  0.62935  0.41606  0.32408  1.0000
  H   H82       1.0  0.66462  0.43119  0.32287  1.0000
  H   H83       1.0  0.59447  0.38055  0.35999  1.0000
  H   H84       1.0  0.58105  0.34546  0.36109  1.0000
  C   C144      1.0  0.57554  0.40178  0.33764  1.0000
  N   N37       1.0  0.59579  0.41315  0.33539  1.0000
  C   C145      1.0  0.60639  0.43344  0.33312  1.0000
  C   C146      1.0  0.57479  0.43258  0.33533  1.0000
  N   N38       1.0  0.56530  0.41201  0.33716  1.0000
  H   H85       1.0  0.53452  0.41729  0.32265  1.0000
  N   N39       1.0  0.54503  0.31833  0.34457  1.0000
  N   N40       1.0  0.53008  0.47279  0.33017  1.0000
  C   C147      1.0  0.56612  0.12244  0.33545  1.0000
  C   C148      1.0  0.62875  0.18824  0.34011  1.0000
  C   C149      1.0  0.57653  0.11159  0.32837  1.0000
  C   C150      1.0  0.56624  0.09041  0.32740  1.0000
  C   C151      1.0  0.54513  0.07912  0.33480  1.0000
  C   C152      1.0  0.56886  0.21996  0.32678  1.0000
  C   C153      1.0  0.57773  0.20787  0.32718  1.0000
  C   C154      1.0  0.63737  0.20932  0.35167  1.0000
  C   C155      1.0  0.65822  0.22229  0.35262  1.0000
  C   C156      1.0  0.67144  0.21479  0.34185  1.0000
  C   C157      1.0  0.66323  0.19384  0.33111  1.0000
  C   C158      1.0  0.64218  0.18078  0.33042  1.0000
  H   H86       1.0  0.57436  0.08322  0.32114  1.0000
  H   H87       1.0  0.59307  0.21508  0.32422  1.0000
  H   H88       1.0  0.57795  0.23523  0.32306  1.0000
  H   H89       1.0  0.62859  0.21572  0.36002  1.0000
  H   H90       1.0  0.66367  0.23737  0.36125  1.0000
  C   C159      1.0  0.60736  0.17556  0.33762  1.0000
  N   N41       1.0  0.59599  0.18443  0.33538  1.0000
  C   C160      1.0  0.57570  0.17475  0.33312  1.0000
  C   C161      1.0  0.57656  0.14400  0.33531  1.0000
  N   N42       1.0  0.59713  0.15508  0.33712  1.0000
  H   H91       1.0  0.59184  0.11902  0.32268  1.0000
  N   N43       1.0  0.69080  0.22848  0.34484  1.0000
  N   N44       1.0  0.53634  0.05908  0.33016  1.0000
  C   C162      1.0  0.51906  0.49621  0.33874  1.0000
  C   C163      1.0  0.51149  0.50122  0.41489  1.0000
  C   C164      1.0  0.49799  0.50842  0.40599  1.0000
  H   H92       1.0  0.49255  0.51148  0.46299  1.0000
  H   H93       1.0  0.51567  0.49955  0.47824  1.0000
  C   C165      1.0  0.53333  0.49038  0.35205  1.0000
  H   H94       1.0  0.54627  0.50020  0.38041  1.0000
  C   C166      1.0  0.51291  0.02465  0.33876  1.0000
  C   C167      1.0  0.50792  0.01208  0.41492  1.0000
  C   C168      1.0  0.50073  0.99137  0.40603  1.0000
  H   H95       1.0  0.49767  0.98287  0.46304  1.0000
  H   H96       1.0  0.50958  0.01792  0.47826  1.0000
  C   C169      1.0  0.51875  0.04475  0.35203  1.0000
  H   H97       1.0  0.50892  0.04787  0.38036  1.0000
  C   C170      1.0  0.28912  0.53521  0.36912  1.0000
  C   C171      1.0  0.30959  0.54259  0.37982  1.0000
  H   H98       1.0  0.31660  0.55323  0.42611  1.0000
  C   C172      1.0  0.47394  0.75572  0.36910  1.0000
  C   C173      1.0  0.47922  0.74802  0.44477  1.0000
  C   C174      1.0  0.48289  0.73169  0.43443  1.0000
  N   N45       1.0  0.48020  0.75687  0.52977  1.0000
  N   N46       1.0  0.48753  0.72438  0.51308  1.0000
  O   O18       1.0  0.49745  0.76463  0.56373  1.0000
  O   O19       1.0  0.47418  0.70679  0.53250  1.0000
  O   O20       1.0  0.46751  0.74462  0.58429  1.0000
  O   O21       1.0  0.50426  0.72527  0.50770  1.0000
  C   C175      1.0  0.46655  0.76880  0.37982  1.0000
  H   H99       1.0  0.45589  0.76514  0.42600  1.0000
  O   O22       1.0  0.30234  0.76920  0.53258  1.0000
  C   C176      1.0  0.72177  0.47209  0.36982  1.0000
  C   C177      1.0  0.73481  0.47739  0.44524  1.0000
  C   C178      1.0  0.75481  0.48108  0.43446  1.0000
  N   N47       1.0  0.72703  0.47840  0.53041  1.0000
  N   N48       1.0  0.76683  0.48575  0.51286  1.0000
  O   O23       1.0  0.73653  0.49566  0.56424  1.0000
  O   O24       1.0  0.77112  0.47242  0.53207  1.0000
  O   O25       1.0  0.72665  0.46574  0.58489  1.0000
  O   O26       1.0  0.78265  0.50249  0.50725  1.0000
  C   C179      1.0  0.70130  0.46470  0.38099  1.0000
  H   H100      1.0  0.69437  0.45410  0.42750  1.0000
  C   C180      1.0  0.53703  0.25147  0.36984  1.0000
  C   C181      1.0  0.53173  0.25921  0.44524  1.0000
  C   C182      1.0  0.52804  0.27553  0.43445  1.0000
  N   N49       1.0  0.53072  0.25042  0.53041  1.0000
  N   N50       1.0  0.52338  0.28288  0.51286  1.0000
  O   O27       1.0  0.51346  0.24267  0.56423  1.0000
  O   O28       1.0  0.53671  0.30050  0.53204  1.0000
  O   O29       1.0  0.54339  0.26271  0.58489  1.0000
  O   O30       1.0  0.50664  0.28197  0.50726  1.0000
  C   C183      1.0  0.54443  0.23840  0.38102  1.0000
  H   H101      1.0  0.55502  0.24206  0.42757  1.0000
  C   C184      1.0  0.75766  0.28737  0.36974  1.0000
  C   C185      1.0  0.74991  0.27433  0.44518  1.0000
  C   C186      1.0  0.73360  0.25432  0.43443  1.0000
  N   N51       1.0  0.75869  0.28213  0.53035  1.0000
  N   N52       1.0  0.72624  0.24232  0.51287  1.0000
  O   O31       1.0  0.76644  0.27264  0.56430  1.0000
  O   O32       1.0  0.70862  0.23805  0.53202  1.0000
  O   O33       1.0  0.74638  0.28251  0.58475  1.0000
  O   O34       1.0  0.72715  0.22649  0.50736  1.0000
  C   C187      1.0  0.77072  0.30784  0.38086  1.0000
  H   H102      1.0  0.76703  0.31477  0.42729  1.0000
  C   C188      1.0  0.91937  0.44664  0.34175  1.0000
  C   C189      1.0  0.89819  0.43575  0.34204  1.0000
  H   H103      1.0  0.92694  0.43887  0.34498  1.0000
  H   H104      1.0  0.89125  0.42044  0.34686  1.0000
  C   C190      1.0  0.99330  0.49597  0.25176  1.0000
  N   N53       1.0  0.98212  0.48861  0.17115  1.0000
  O   O35       1.0  0.96959  0.49436  0.16057  1.0000
  O   O36       1.0  0.97356  0.46982  0.16455  1.0000
  C   C191      1.0  0.88670  0.44549  0.33551  1.0000
  C   C192      1.0  0.89754  0.46674  0.32847  1.0000
  C   C193      1.0  0.91872  0.47764  0.32749  1.0000
  C   C194      1.0  0.93002  0.46783  0.33495  1.0000
  H   H105      1.0  0.92591  0.49295  0.32122  1.0000
  C   C195      1.0  0.86513  0.43436  0.33533  1.0000
  H   H106      1.0  0.89011  0.47463  0.32271  1.0000
  N   N54       1.0  0.95005  0.47907  0.33024  1.0000
  C   C196      1.0  0.98449  0.49009  0.33880  1.0000
  C   C197      1.0  0.99707  0.49766  0.41494  1.0000
  H   H107      1.0  0.99123  0.49348  0.47829  1.0000
  C   C198      1.0  0.96439  0.47582  0.35213  1.0000
  H   H108      1.0  0.96127  0.46288  0.38054  1.0000
