data_image0
_chemical_formula_structural       C4H3OC3H2NC4H3OC3H2NHOHOC2HNC2HNC3H2C5H2C7HC2H3OC4HC2H3ON6C3HCHC6H3C6H3N4C4HC2H3OC4HC2H3OC4HC2H3OC4HC2H3OC4HC2H3ON6C3HCHC6H3C6H3N4C4HC2H3OC4HC2H3OC4HC2H3OC4HC2H3OC4HCH3OC4HC2H2N6C6H3C6H3C6H3C6H3N6C4HC2H3OC4HC2H3OC4HC2H3OC4HC2H3OC4HC2H3OC4HC2H2N6C6H3C6H3C6H3C6H3N6C4HC2H3OC4HC2H3OC4HC2H3O
_chemical_formula_sum              "C240 H144 O24 N48"
_cell_length_a       45.263
_cell_length_b       45.2839
_cell_length_c       14.8446
_cell_angle_alpha    90
_cell_angle_beta     90
_cell_angle_gamma    119.989

_space_group_name_H-M_alt    "P 1"
_space_group_IT_number       1

loop_
  _space_group_symop_operation_xyz
  'x, y, z'

loop_
  _atom_site_type_symbol
  _atom_site_label
  _atom_site_symmetry_multiplicity
  _atom_site_fract_x
  _atom_site_fract_y
  _atom_site_fract_z
  _atom_site_occupancy
  C   C1        1.0  0.09803  0.07122  0.27593  1.0000
  C   C2        1.0  0.08004  0.04407  0.33828  1.0000
  C   C3        1.0  0.08107  0.07864  0.20924  1.0000
  C   C4        1.0  0.07403  0.06015  0.12491  1.0000
  H   H1        1.0  0.09758  0.06865  0.08676  1.0000
  H   H2        1.0  0.05646  0.06450  0.08407  1.0000
  H   H3        1.0  0.06216  0.03279  0.13681  1.0000
  O   O1        1.0  0.08812  0.10844  0.20401  1.0000
  C   C5        1.0  0.04349  0.02412  0.34512  1.0000
  C   C6        1.0  0.02293  0.03961  0.34553  1.0000
  C   C7        1.0  0.02550  0.48794  0.33880  1.0000
  H   H4        1.0  0.04039  0.47681  0.33865  1.0000
  H   H5        1.0  0.03437  0.06565  0.34493  1.0000
  N   N1        1.0  0.09938  0.03619  0.39274  1.0000
  C   C8        1.0  0.09630  0.57211  0.27169  1.0000
  C   C9        1.0  0.07819  0.54450  0.33269  1.0000
  C   C10       1.0  0.07947  0.57952  0.20465  1.0000
  C   C11       1.0  0.07311  0.56148  0.11976  1.0000
  H   H6        1.0  0.09684  0.57070  0.08204  1.0000
  H   H7        1.0  0.05526  0.56542  0.07905  1.0000
  H   H8        1.0  0.06182  0.53408  0.13080  1.0000
  O   O2        1.0  0.08616  0.60923  0.20011  1.0000
  C   C12       1.0  0.04165  0.52399  0.33788  1.0000
  C   C13       1.0  0.02052  0.53885  0.33925  1.0000
  C   C14       1.0  0.02672  0.98802  0.34753  1.0000
  H   H9        1.0  0.04119  0.97644  0.34778  1.0000
  H   H10       1.0  0.03168  0.56487  0.33944  1.0000
  N   N2        1.0  0.09745  0.53671  0.38774  1.0000
  H   H11       1.0  0.01749  0.45364  0.07878  1.0000
  O   O3        1.0  0.03026  0.42235  0.19798  1.0000
  H   H12       1.0  0.01750  0.95429  0.08611  1.0000
  O   O4        1.0  0.03021  0.92270  0.20472  1.0000
  C   C15       1.0  0.15216  0.07957  0.33797  1.0000
  C   C16       1.0  0.13422  0.08899  0.27739  1.0000
  H   H13       1.0  0.14758  0.10803  0.23161  1.0000
  N   N3        1.0  0.13286  0.05255  0.39263  1.0000
  C   C17       1.0  0.15032  0.58090  0.33582  1.0000
  C   C18       1.0  0.13249  0.59033  0.27487  1.0000
  H   H14       1.0  0.14596  0.60966  0.22992  1.0000
  N   N4        1.0  0.13091  0.55348  0.38919  1.0000
  C   C19       1.0  0.20806  0.13311  0.33899  1.0000
  C   C20       1.0  0.18866  0.09685  0.34090  1.0000
  C   C21       1.0  0.20644  0.07837  0.34398  1.0000
  H   H15       1.0  0.19592  0.14706  0.33897  1.0000
  H   H16       1.0  0.19309  0.05227  0.34477  1.0000
  C   C22       1.0  0.24063  0.59677  0.34396  1.0000
  C   C23       1.0  0.24230  0.65205  0.33987  1.0000
  C   C24       1.0  0.20627  0.63457  0.33866  1.0000
  C   C25       1.0  0.18682  0.59830  0.34025  1.0000
  C   C26       1.0  0.20455  0.57980  0.34479  1.0000
  H   H17       1.0  0.19416  0.64854  0.33743  1.0000
  H   H18       1.0  0.19120  0.55370  0.34512  1.0000
  C   C27       1.0  0.24251  0.09538  0.34100  1.0000
  C   C28       1.0  0.24407  0.15061  0.33790  1.0000
  C   C29       1.0  0.94898  0.01967  0.17928  1.0000
  C   C30       1.0  0.43095  0.07219  0.33680  1.0000
  C   C31       1.0  0.42911  0.05248  0.26110  1.0000
  C   C32       1.0  0.44779  0.03502  0.25908  1.0000
  C   C33       1.0  0.46712  0.03666  0.33647  1.0000
  H   H19       1.0  0.41518  0.05199  0.20608  1.0000
  C   C34       1.0  0.44898  0.01967  0.17928  1.0000
  C   C35       1.0  0.46816  0.03990  0.10233  1.0000
  H   H20       1.0  0.45715  0.05504  0.07766  1.0000
  H   H21       1.0  0.46791  0.02384  0.04728  1.0000
  H   H22       1.0  0.49468  0.05713  0.12158  1.0000
  O   O5        1.0  0.43489  0.98856  0.17546  1.0000
  C   C36       1.0  0.43816  0.35816  0.33561  1.0000
  C   C37       1.0  0.46534  0.37605  0.27450  1.0000
  C   C38       1.0  0.48312  0.41221  0.27111  1.0000
  C   C39       1.0  0.47353  0.43027  0.33207  1.0000
  H   H23       1.0  0.47130  0.36261  0.22966  1.0000
  C   C40       1.0  0.50726  0.42905  0.20403  1.0000
  C   C41       1.0  0.49569  0.43563  0.11917  1.0000
  H   H24       1.0  0.48127  0.41201  0.08099  1.0000
  H   H25       1.0  0.51749  0.45364  0.07878  1.0000
  H   H26       1.0  0.47948  0.44681  0.13046  1.0000
  O   O6        1.0  0.53026  0.42235  0.19798  1.0000
  N   N5        1.0  0.28035  0.08283  0.26478  1.0000
  N   N6        1.0  0.30872  0.08188  0.26181  1.0000
  N   N7        1.0  0.42637  0.19649  0.26800  1.0000
  N   N8        1.0  0.42729  0.22580  0.26647  1.0000
  N   N9        1.0  0.31405  0.22971  0.26790  1.0000
  N   N10       1.0  0.28497  0.20111  0.26497  1.0000
  C   C42       1.0  0.48691  0.02015  0.34398  1.0000
  C   C43       1.0  0.46957  0.48297  0.33872  1.0000
  C   C44       1.0  0.48949  0.46681  0.33740  1.0000
  H   H27       1.0  0.44355  0.46810  0.33854  1.0000
  C   C45       1.0  0.26073  0.13134  0.33819  1.0000
  H   H28       1.0  0.28693  0.14390  0.33786  1.0000
  C   C46       1.0  0.41425  0.14581  0.34111  1.0000
  C   C47       1.0  0.37828  0.12774  0.33703  1.0000
  C   C48       1.0  0.35929  0.09179  0.33500  1.0000
  C   C49       1.0  0.37711  0.07356  0.33560  1.0000
  C   C50       1.0  0.41331  0.09087  0.34001  1.0000
  C   C51       1.0  0.43156  0.12706  0.34450  1.0000
  H   H29       1.0  0.36354  0.04747  0.33366  1.0000
  H   H30       1.0  0.45766  0.13994  0.34687  1.0000
  H   H31       1.0  0.36550  0.14116  0.33719  1.0000
  C   C52       1.0  0.36397  0.26781  0.34402  1.0000
  C   C53       1.0  0.38177  0.24962  0.34269  1.0000
  C   C54       1.0  0.41768  0.26628  0.34063  1.0000
  C   C55       1.0  0.43613  0.30231  0.33890  1.0000
  C   C56       1.0  0.41921  0.32167  0.34019  1.0000
  C   C57       1.0  0.38296  0.30386  0.34443  1.0000
  H   H32       1.0  0.46222  0.31448  0.33757  1.0000
  H   H33       1.0  0.37012  0.31714  0.34429  1.0000
  H   H34       1.0  0.36815  0.22343  0.34390  1.0000
  N   N11       1.0  0.46792  0.05671  0.40589  1.0000
  N   N12       1.0  0.45118  0.07344  0.40611  1.0000
  N   N13       1.0  0.44656  0.41096  0.38727  1.0000
  N   N14       1.0  0.43003  0.37752  0.38887  1.0000
  C   C58       1.0  0.32321  0.07646  0.33535  1.0000
  C   C59       1.0  0.30612  0.07177  0.41833  1.0000
  C   C60       1.0  0.27567  0.07347  0.42269  1.0000
  C   C61       1.0  0.26235  0.07893  0.34156  1.0000
  H   H35       1.0  0.31800  0.07136  0.47676  1.0000
  C   C62       1.0  0.26127  0.07328  0.50561  1.0000
  C   C63       1.0  0.27870  0.10322  0.56259  1.0000
  H   H36       1.0  0.30143  0.10475  0.59285  1.0000
  H   H37       1.0  0.26173  0.10201  0.61652  1.0000
  H   H38       1.0  0.28630  0.12649  0.52414  1.0000
  O   O7        1.0  0.24787  0.04576  0.54437  1.0000
  C   C64       1.0  0.43276  0.24529  0.34095  1.0000
  C   C65       1.0  0.43723  0.23235  0.42322  1.0000
  C   C66       1.0  0.43587  0.20035  0.42580  1.0000
  C   C67       1.0  0.43047  0.18205  0.34391  1.0000
  H   H39       1.0  0.43773  0.24437  0.48221  1.0000
  C   C68       1.0  0.43616  0.18568  0.50772  1.0000
  C   C69       1.0  0.40645  0.17234  0.56570  1.0000
  H   H40       1.0  0.40468  0.19309  0.59789  1.0000
  H   H41       1.0  0.40812  0.15630  0.61809  1.0000
  H   H42       1.0  0.38311  0.15672  0.52738  1.0000
  O   O8        1.0  0.46381  0.19975  0.54608  1.0000
  C   C70       1.0  0.26498  0.18664  0.33839  1.0000
  C   C71       1.0  0.27698  0.20397  0.42121  1.0000
  C   C72       1.0  0.30880  0.23476  0.42547  1.0000
  C   C73       1.0  0.32769  0.24801  0.34455  1.0000
  H   H43       1.0  0.26451  0.19221  0.47953  1.0000
  C   C74       1.0  0.32254  0.24975  0.50804  1.0000
  C   C75       1.0  0.33540  0.23328  0.56755  1.0000
  H   H44       1.0  0.31438  0.21062  0.59851  1.0000
  H   H45       1.0  0.35086  0.25085  0.62089  1.0000
  H   H46       1.0  0.35150  0.22577  0.53077  1.0000
  O   O9        1.0  0.30795  0.26289  0.54584  1.0000
  C   C76       1.0  0.42808  0.57133  0.33585  1.0000
  C   C77       1.0  0.41853  0.54409  0.27478  1.0000
  C   C78       1.0  0.43649  0.52586  0.27178  1.0000
  C   C79       1.0  0.46401  0.53510  0.33297  1.0000
  H   H47       1.0  0.39928  0.53841  0.22966  1.0000
  C   C80       1.0  0.42907  0.50175  0.20451  1.0000
  C   C81       1.0  0.44698  0.51293  0.11938  1.0000
  H   H48       1.0  0.43774  0.52728  0.08102  1.0000
  H   H49       1.0  0.44297  0.49095  0.07952  1.0000
  H   H50       1.0  0.47440  0.52908  0.13017  1.0000
  O   O10       1.0  0.39932  0.47874  0.20034  1.0000
  C   C82       1.0  0.43775  0.85874  0.34171  1.0000
  C   C83       1.0  0.46495  0.87655  0.28059  1.0000
  C   C84       1.0  0.48320  0.91271  0.27820  1.0000
  C   C85       1.0  0.47410  0.93086  0.34014  1.0000
  H   H51       1.0  0.47057  0.86308  0.23497  1.0000
  C   C86       1.0  0.50731  0.92953  0.21105  1.0000
  C   C87       1.0  0.49572  0.93626  0.12642  1.0000
  H   H52       1.0  0.48125  0.91271  0.08807  1.0000
  H   H53       1.0  0.51750  0.95429  0.08611  1.0000
  H   H54       1.0  0.47954  0.94748  0.13810  1.0000
  O   O11       1.0  0.53021  0.92270  0.20472  1.0000
  N   N15       1.0  0.27860  0.58415  0.26897  1.0000
  N   N16       1.0  0.30690  0.58307  0.26677  1.0000
  N   N17       1.0  0.42471  0.69638  0.27017  1.0000
  N   N18       1.0  0.42555  0.72564  0.26794  1.0000
  N   N19       1.0  0.31259  0.73082  0.26951  1.0000
  N   N20       1.0  0.28328  0.70245  0.26676  1.0000
  C   C88       1.0  0.48444  0.51897  0.33795  1.0000
  C   C89       1.0  0.47122  0.98414  0.34541  1.0000
  C   C90       1.0  0.49062  0.96742  0.34590  1.0000
  H   H55       1.0  0.44515  0.96982  0.34336  1.0000
  C   C91       1.0  0.25890  0.63273  0.34179  1.0000
  H   H56       1.0  0.28510  0.64524  0.34276  1.0000
  C   C92       1.0  0.41253  0.64600  0.34463  1.0000
  C   C93       1.0  0.37655  0.62837  0.34287  1.0000
  C   C94       1.0  0.35715  0.59248  0.34061  1.0000
  C   C95       1.0  0.37455  0.57386  0.33888  1.0000
  C   C96       1.0  0.41082  0.59057  0.34041  1.0000
  C   C97       1.0  0.42942  0.62681  0.34516  1.0000
  H   H57       1.0  0.36050  0.54778  0.33740  1.0000
  H   H58       1.0  0.45553  0.63948  0.34543  1.0000
  H   H59       1.0  0.36407  0.64209  0.34419  1.0000
  C   C98       1.0  0.36290  0.76860  0.34516  1.0000
  C   C99       1.0  0.38046  0.75020  0.34221  1.0000
  C   C100      1.0  0.41638  0.76661  0.34147  1.0000
  C   C101      1.0  0.43507  0.80262  0.34252  1.0000
  C   C102      1.0  0.41842  0.82223  0.34485  1.0000
  C   C103      1.0  0.38215  0.80465  0.34818  1.0000
  H   H60       1.0  0.46116  0.81461  0.34222  1.0000
  H   H61       1.0  0.36953  0.81813  0.34925  1.0000
  H   H62       1.0  0.36668  0.72401  0.34207  1.0000
  N   N21       1.0  0.47192  0.56215  0.38811  1.0000
  N   N22       1.0  0.45537  0.57906  0.38950  1.0000
  N   N23       1.0  0.44707  0.91167  0.39529  1.0000
  N   N24       1.0  0.43007  0.87819  0.39599  1.0000
  C   C104      1.0  0.32112  0.57758  0.34077  1.0000
  C   C105      1.0  0.30383  0.57295  0.42338  1.0000
  C   C106      1.0  0.27336  0.57465  0.42684  1.0000
  C   C107      1.0  0.26037  0.58024  0.34530  1.0000
  H   H63       1.0  0.31547  0.57240  0.48209  1.0000
  C   C108      1.0  0.25849  0.57412  0.50924  1.0000
  C   C109      1.0  0.27551  0.60382  0.56714  1.0000
  H   H64       1.0  0.29810  0.60531  0.59816  1.0000
  H   H65       1.0  0.25821  0.60234  0.62048  1.0000
  H   H66       1.0  0.28325  0.62724  0.52920  1.0000
  O   O12       1.0  0.24489  0.54644  0.54723  1.0000
  C   C110      1.0  0.43126  0.74544  0.34190  1.0000
  C   C111      1.0  0.43618  0.73294  0.42434  1.0000
  C   C112      1.0  0.43483  0.70095  0.42768  1.0000
  C   C113      1.0  0.42914  0.68228  0.34632  1.0000
  H   H67       1.0  0.43696  0.74525  0.48302  1.0000
  C   C114      1.0  0.43550  0.68669  0.50994  1.0000
  C   C115      1.0  0.40624  0.67403  0.56935  1.0000
  H   H68       1.0  0.40495  0.69513  0.60102  1.0000
  H   H69       1.0  0.40807  0.65822  0.62213  1.0000
  H   H70       1.0  0.38258  0.65836  0.53231  1.0000
  O   O13       1.0  0.46341  0.70081  0.54696  1.0000
  C   C116      1.0  0.26335  0.68808  0.34036  1.0000
  C   C117      1.0  0.27576  0.70528  0.42320  1.0000
  C   C118      1.0  0.30781  0.73584  0.42727  1.0000
  C   C119      1.0  0.32658  0.74900  0.34613  1.0000
  H   H71       1.0  0.26338  0.69355  0.48164  1.0000
  C   C120      1.0  0.32189  0.75055  0.50984  1.0000
  C   C121      1.0  0.33481  0.73376  0.56797  1.0000
  H   H72       1.0  0.31382  0.71107  0.59889  1.0000
  H   H73       1.0  0.35052  0.75112  0.62137  1.0000
  H   H74       1.0  0.35068  0.72624  0.53011  1.0000
  O   O14       1.0  0.30758  0.76372  0.54892  1.0000
  C   C122      1.0  0.65216  0.07957  0.33797  1.0000
  C   C123      1.0  0.63422  0.08899  0.27739  1.0000
  C   C124      1.0  0.59803  0.07122  0.27593  1.0000
  C   C125      1.0  0.58004  0.04407  0.33828  1.0000
  H   H75       1.0  0.64758  0.10803  0.23161  1.0000
  C   C126      1.0  0.58108  0.07864  0.20924  1.0000
  C   C127      1.0  0.57403  0.06015  0.12491  1.0000
  H   H76       1.0  0.59758  0.06865  0.08676  1.0000
  H   H77       1.0  0.55646  0.06450  0.08407  1.0000
  H   H78       1.0  0.56216  0.03279  0.13681  1.0000
  O   O15       1.0  0.58812  0.10844  0.20401  1.0000
  C   C128      1.0  0.93095  0.07219  0.33680  1.0000
  C   C129      1.0  0.92911  0.05248  0.26110  1.0000
  C   C130      1.0  0.94779  0.03502  0.25908  1.0000
  C   C131      1.0  0.96713  0.03666  0.33647  1.0000
  H   H79       1.0  0.91518  0.05199  0.20608  1.0000
  C   C132      1.0  0.96816  0.03990  0.10233  1.0000
  H   H80       1.0  0.95715  0.05504  0.07766  1.0000
  H   H81       1.0  0.96791  0.02384  0.04728  1.0000
  H   H82       1.0  0.99468  0.05713  0.12158  1.0000
  O   O16       1.0  0.93489  0.98856  0.17546  1.0000
  C   C133      1.0  0.93816  0.35816  0.33561  1.0000
  C   C134      1.0  0.96534  0.37605  0.27450  1.0000
  C   C135      1.0  0.98312  0.41221  0.27111  1.0000
  C   C136      1.0  0.97353  0.43027  0.33207  1.0000
  H   H83       1.0  0.97130  0.36261  0.22966  1.0000
  C   C137      1.0  0.00726  0.42905  0.20403  1.0000
  C   C138      1.0  0.99569  0.43563  0.11917  1.0000
  H   H84       1.0  0.98127  0.41201  0.08099  1.0000
  H   H85       1.0  0.97948  0.44681  0.13046  1.0000
  N   N25       1.0  0.78035  0.08283  0.26478  1.0000
  N   N26       1.0  0.80872  0.08188  0.26181  1.0000
  N   N27       1.0  0.92637  0.19649  0.26800  1.0000
  N   N28       1.0  0.92729  0.22580  0.26647  1.0000
  N   N29       1.0  0.81405  0.22971  0.26790  1.0000
  N   N30       1.0  0.78497  0.20111  0.26497  1.0000
  C   C139      1.0  0.54349  0.02412  0.34512  1.0000
  C   C140      1.0  0.52293  0.03961  0.34553  1.0000
  C   C141      1.0  0.98691  0.02015  0.34398  1.0000
  C   C142      1.0  0.96957  0.48297  0.33872  1.0000
  C   C143      1.0  0.98949  0.46681  0.33740  1.0000
  C   C144      1.0  0.52550  0.48794  0.33880  1.0000
  H   H86       1.0  0.94355  0.46810  0.33854  1.0000
  H   H87       1.0  0.54039  0.47681  0.33865  1.0000
  H   H88       1.0  0.53436  0.06565  0.34493  1.0000
  C   C145      1.0  0.74251  0.09538  0.34100  1.0000
  C   C146      1.0  0.76073  0.13134  0.33819  1.0000
  C   C147      1.0  0.74407  0.15061  0.33790  1.0000
  C   C148      1.0  0.70806  0.13311  0.33899  1.0000
  C   C149      1.0  0.68866  0.09685  0.34090  1.0000
  C   C150      1.0  0.70644  0.07837  0.34398  1.0000
  H   H89       1.0  0.69592  0.14706  0.33897  1.0000
  H   H90       1.0  0.69309  0.05227  0.34477  1.0000
  H   H91       1.0  0.78693  0.14390  0.33786  1.0000
  C   C151      1.0  0.91425  0.14581  0.34111  1.0000
  C   C152      1.0  0.87828  0.12774  0.33703  1.0000
  C   C153      1.0  0.85929  0.09179  0.33500  1.0000
  C   C154      1.0  0.87711  0.07356  0.33560  1.0000
  C   C155      1.0  0.91331  0.09087  0.34001  1.0000
  C   C156      1.0  0.93156  0.12706  0.34450  1.0000
  H   H92       1.0  0.86354  0.04747  0.33366  1.0000
  H   H93       1.0  0.95766  0.13994  0.34687  1.0000
  H   H94       1.0  0.86550  0.14116  0.33719  1.0000
  C   C157      1.0  0.86397  0.26781  0.34402  1.0000
  C   C158      1.0  0.88177  0.24962  0.34269  1.0000
  C   C159      1.0  0.91768  0.26628  0.34063  1.0000
  C   C160      1.0  0.93613  0.30231  0.33890  1.0000
  C   C161      1.0  0.91921  0.32167  0.34019  1.0000
  C   C162      1.0  0.88295  0.30386  0.34443  1.0000
  H   H95       1.0  0.96222  0.31448  0.33757  1.0000
  H   H96       1.0  0.87012  0.31714  0.34429  1.0000
  H   H97       1.0  0.86815  0.22343  0.34390  1.0000
  N   N31       1.0  0.59938  0.03619  0.39274  1.0000
  N   N32       1.0  0.63286  0.05255  0.39263  1.0000
  N   N33       1.0  0.96792  0.05671  0.40589  1.0000
  N   N34       1.0  0.95118  0.07344  0.40611  1.0000
  N   N35       1.0  0.94656  0.41096  0.38727  1.0000
  N   N36       1.0  0.93003  0.37752  0.38887  1.0000
  C   C163      1.0  0.82321  0.07646  0.33535  1.0000
  C   C164      1.0  0.80612  0.07177  0.41833  1.0000
  C   C165      1.0  0.77566  0.07347  0.42269  1.0000
  C   C166      1.0  0.76235  0.07893  0.34156  1.0000
  H   H98       1.0  0.81800  0.07136  0.47676  1.0000
  C   C167      1.0  0.76127  0.07328  0.50561  1.0000
  C   C168      1.0  0.77870  0.10322  0.56259  1.0000
  H   H99       1.0  0.80143  0.10475  0.59285  1.0000
  H   H100      1.0  0.76173  0.10201  0.61652  1.0000
  H   H101      1.0  0.78629  0.12649  0.52414  1.0000
  O   O17       1.0  0.74786  0.04576  0.54437  1.0000
  C   C169      1.0  0.93276  0.24529  0.34095  1.0000
  C   C170      1.0  0.93723  0.23235  0.42322  1.0000
  C   C171      1.0  0.93587  0.20035  0.42580  1.0000
  C   C172      1.0  0.93047  0.18205  0.34391  1.0000
  H   H102      1.0  0.93773  0.24437  0.48221  1.0000
  C   C173      1.0  0.93616  0.18568  0.50772  1.0000
  C   C174      1.0  0.90646  0.17234  0.56570  1.0000
  H   H103      1.0  0.90468  0.19309  0.59789  1.0000
  H   H104      1.0  0.90812  0.15630  0.61809  1.0000
  H   H105      1.0  0.88311  0.15672  0.52738  1.0000
  O   O18       1.0  0.96381  0.19975  0.54608  1.0000
  C   C175      1.0  0.76498  0.18664  0.33839  1.0000
  C   C176      1.0  0.77698  0.20397  0.42121  1.0000
  C   C177      1.0  0.80880  0.23476  0.42547  1.0000
  C   C178      1.0  0.82769  0.24801  0.34455  1.0000
  H   H106      1.0  0.76451  0.19221  0.47953  1.0000
  C   C179      1.0  0.82254  0.24975  0.50804  1.0000
  C   C180      1.0  0.83540  0.23328  0.56755  1.0000
  H   H107      1.0  0.81438  0.21062  0.59851  1.0000
  H   H108      1.0  0.85086  0.25085  0.62089  1.0000
  H   H109      1.0  0.85150  0.22577  0.53077  1.0000
  O   O19       1.0  0.80795  0.26289  0.54584  1.0000
  C   C181      1.0  0.65032  0.58090  0.33582  1.0000
  C   C182      1.0  0.63248  0.59033  0.27487  1.0000
  C   C183      1.0  0.59630  0.57211  0.27169  1.0000
  C   C184      1.0  0.57819  0.54450  0.33269  1.0000
  H   H110      1.0  0.64596  0.60966  0.22992  1.0000
  C   C185      1.0  0.57947  0.57952  0.20465  1.0000
  C   C186      1.0  0.57311  0.56148  0.11976  1.0000
  H   H111      1.0  0.59684  0.57070  0.08204  1.0000
  H   H112      1.0  0.55527  0.56542  0.07905  1.0000
  H   H113      1.0  0.56182  0.53408  0.13080  1.0000
  O   O20       1.0  0.58615  0.60923  0.20011  1.0000
  C   C187      1.0  0.92808  0.57133  0.33585  1.0000
  C   C188      1.0  0.91853  0.54409  0.27478  1.0000
  C   C189      1.0  0.93649  0.52586  0.27178  1.0000
  C   C190      1.0  0.96401  0.53510  0.33297  1.0000
  H   H114      1.0  0.89928  0.53841  0.22966  1.0000
  C   C191      1.0  0.92907  0.50175  0.20451  1.0000
  C   C192      1.0  0.94698  0.51293  0.11938  1.0000
  H   H115      1.0  0.93774  0.52728  0.08102  1.0000
  H   H116      1.0  0.94297  0.49095  0.07952  1.0000
  H   H117      1.0  0.97440  0.52908  0.13017  1.0000
  O   O21       1.0  0.89932  0.47874  0.20034  1.0000
  C   C193      1.0  0.93775  0.85874  0.34171  1.0000
  C   C194      1.0  0.96495  0.87655  0.28059  1.0000
  C   C195      1.0  0.98320  0.91271  0.27820  1.0000
  C   C196      1.0  0.97409  0.93086  0.34014  1.0000
  H   H118      1.0  0.97057  0.86308  0.23497  1.0000
  C   C197      1.0  0.00731  0.92953  0.21105  1.0000
  C   C198      1.0  0.99572  0.93626  0.12642  1.0000
  H   H119      1.0  0.98124  0.91271  0.08807  1.0000
  H   H120      1.0  0.97954  0.94748  0.13810  1.0000
  N   N37       1.0  0.77860  0.58415  0.26897  1.0000
  N   N38       1.0  0.80690  0.58307  0.26677  1.0000
  N   N39       1.0  0.92471  0.69638  0.27017  1.0000
  N   N40       1.0  0.92555  0.72564  0.26794  1.0000
  N   N41       1.0  0.81258  0.73082  0.26951  1.0000
  N   N42       1.0  0.78328  0.70245  0.26676  1.0000
  C   C199      1.0  0.54165  0.52399  0.33788  1.0000
  C   C200      1.0  0.52052  0.53885  0.33925  1.0000
  C   C201      1.0  0.98444  0.51897  0.33795  1.0000
  C   C202      1.0  0.97122  0.98414  0.34541  1.0000
  C   C203      1.0  0.99062  0.96742  0.34590  1.0000
  C   C204      1.0  0.52671  0.98802  0.34753  1.0000
  H   H121      1.0  0.94515  0.96982  0.34336  1.0000
  H   H122      1.0  0.54119  0.97644  0.34778  1.0000
  H   H123      1.0  0.53167  0.56487  0.33944  1.0000
  C   C205      1.0  0.74062  0.59677  0.34396  1.0000
  C   C206      1.0  0.75890  0.63273  0.34179  1.0000
  C   C207      1.0  0.74230  0.65205  0.33987  1.0000
  C   C208      1.0  0.70627  0.63457  0.33866  1.0000
  C   C209      1.0  0.68682  0.59830  0.34025  1.0000
  C   C210      1.0  0.70455  0.57980  0.34479  1.0000
  H   H124      1.0  0.69415  0.64854  0.33743  1.0000
  H   H125      1.0  0.69120  0.55370  0.34512  1.0000
  H   H126      1.0  0.78510  0.64524  0.34276  1.0000
  C   C211      1.0  0.91253  0.64600  0.34463  1.0000
  C   C212      1.0  0.87655  0.62837  0.34287  1.0000
  C   C213      1.0  0.85715  0.59248  0.34061  1.0000
  C   C214      1.0  0.87455  0.57386  0.33888  1.0000
  C   C215      1.0  0.91082  0.59057  0.34041  1.0000
  C   C216      1.0  0.92942  0.62681  0.34516  1.0000
  H   H127      1.0  0.86050  0.54778  0.33740  1.0000
  H   H128      1.0  0.95553  0.63948  0.34543  1.0000
  H   H129      1.0  0.86407  0.64209  0.34419  1.0000
  C   C217      1.0  0.86290  0.76860  0.34516  1.0000
  C   C218      1.0  0.88046  0.75020  0.34221  1.0000
  C   C219      1.0  0.91638  0.76661  0.34147  1.0000
  C   C220      1.0  0.93507  0.80262  0.34252  1.0000
  C   C221      1.0  0.91842  0.82223  0.34485  1.0000
  C   C222      1.0  0.88215  0.80465  0.34818  1.0000
  H   H130      1.0  0.96116  0.81461  0.34222  1.0000
  H   H131      1.0  0.86953  0.81813  0.34925  1.0000
  H   H132      1.0  0.86667  0.72401  0.34207  1.0000
  N   N43       1.0  0.59744  0.53671  0.38774  1.0000
  N   N44       1.0  0.63091  0.55348  0.38919  1.0000
  N   N45       1.0  0.97192  0.56215  0.38811  1.0000
  N   N46       1.0  0.95537  0.57906  0.38950  1.0000
  N   N47       1.0  0.94707  0.91167  0.39529  1.0000
  N   N48       1.0  0.93007  0.87819  0.39599  1.0000
  C   C223      1.0  0.82112  0.57758  0.34077  1.0000
  C   C224      1.0  0.80383  0.57295  0.42338  1.0000
  C   C225      1.0  0.77336  0.57465  0.42684  1.0000
  C   C226      1.0  0.76037  0.58024  0.34530  1.0000
  H   H133      1.0  0.81547  0.57240  0.48209  1.0000
  C   C227      1.0  0.75848  0.57412  0.50924  1.0000
  C   C228      1.0  0.77551  0.60382  0.56714  1.0000
  H   H134      1.0  0.79810  0.60531  0.59816  1.0000
  H   H135      1.0  0.75821  0.60234  0.62048  1.0000
  H   H136      1.0  0.78324  0.62724  0.52920  1.0000
  O   O22       1.0  0.74488  0.54644  0.54723  1.0000
  C   C229      1.0  0.93126  0.74544  0.34190  1.0000
  C   C230      1.0  0.93618  0.73294  0.42434  1.0000
  C   C231      1.0  0.93483  0.70095  0.42768  1.0000
  C   C232      1.0  0.92914  0.68228  0.34632  1.0000
  H   H137      1.0  0.93696  0.74525  0.48302  1.0000
  C   C233      1.0  0.93550  0.68669  0.50994  1.0000
  C   C234      1.0  0.90624  0.67403  0.56935  1.0000
  H   H138      1.0  0.90495  0.69513  0.60102  1.0000
  H   H139      1.0  0.90807  0.65822  0.62213  1.0000
  H   H140      1.0  0.88258  0.65836  0.53231  1.0000
  O   O23       1.0  0.96341  0.70081  0.54696  1.0000
  C   C235      1.0  0.76335  0.68808  0.34036  1.0000
  C   C236      1.0  0.77575  0.70528  0.42320  1.0000
  C   C237      1.0  0.80781  0.73584  0.42727  1.0000
  C   C238      1.0  0.82658  0.74900  0.34613  1.0000
  H   H141      1.0  0.76338  0.69355  0.48164  1.0000
  C   C239      1.0  0.82189  0.75055  0.50984  1.0000
  C   C240      1.0  0.83481  0.73376  0.56797  1.0000
  H   H142      1.0  0.81382  0.71107  0.59889  1.0000
  H   H143      1.0  0.85052  0.75112  0.62137  1.0000
  H   H144      1.0  0.85068  0.72624  0.53011  1.0000
  O   O24       1.0  0.80758  0.76372  0.54892  1.0000
