data_image0
_chemical_formula_structural       C7H4CNCH2CHC7H4CNCH2CHC2HC6H3NC2HC6H3NC2HC6H3NC11H6NCNC2H2C11H6NCNC2H2C2NC2NHCH3NC2NC2NHCH3NC2NC2NHCH3N
_chemical_formula_sum              "C87 H54 N18"
_cell_length_a       43.9381
_cell_length_b       43.9382
_cell_length_c       14.9993
_cell_angle_alpha    90
_cell_angle_beta     90
_cell_angle_gamma    120

_space_group_name_H-M_alt    "P 1"
_space_group_IT_number       1

loop_
  _space_group_symop_operation_xyz
  'x, y, z'

loop_
  _atom_site_type_symbol
  _atom_site_label
  _atom_site_symmetry_multiplicity
  _atom_site_fract_x
  _atom_site_fract_y
  _atom_site_fract_z
  _atom_site_occupancy
  C   C1        1.0  0.37677  0.63677  0.34478  1.0000
  C   C2        1.0  0.36329  0.74000  0.34471  1.0000
  C   C3        1.0  0.42067  0.60605  0.32692  1.0000
  C   C4        1.0  0.43516  0.64289  0.32414  1.0000
  C   C5        1.0  0.41362  0.65794  0.33347  1.0000
  C   C6        1.0  0.40020  0.76265  0.34838  1.0000
  C   C7        1.0  0.41532  0.79927  0.33962  1.0000
  H   H1        1.0  0.42528  0.68472  0.32974  1.0000
  H   H2        1.0  0.46157  0.65916  0.31438  1.0000
  H   H3        1.0  0.41672  0.75273  0.35611  1.0000
  H   H4        1.0  0.44215  0.81454  0.34048  1.0000
  C   C8        1.0  0.34807  0.70275  0.34905  1.0000
  N   N1        1.0  0.36834  0.68740  0.34870  1.0000
  C   C9        1.0  0.35473  0.65198  0.34910  1.0000
  H   H5        1.0  0.24733  0.66400  0.35608  1.0000
  H   H6        1.0  0.18551  0.62762  0.34049  1.0000
  C   C10       1.0  0.44197  0.59162  0.31256  1.0000
  H   H7        1.0  0.46192  0.60344  0.26983  1.0000
  C   C11       1.0  0.62365  0.36365  0.32818  1.0000
  C   C12       1.0  0.63641  0.26000  0.32848  1.0000
  C   C13       1.0  0.58019  0.39480  0.34626  1.0000
  C   C14       1.0  0.56555  0.35799  0.35106  1.0000
  C   C15       1.0  0.58688  0.34271  0.34150  1.0000
  C   C16       1.0  0.59952  0.23749  0.32274  1.0000
  C   C17       1.0  0.58417  0.20083  0.33156  1.0000
  H   H8        1.0  0.57515  0.31597  0.34673  1.0000
  H   H9        1.0  0.53921  0.34193  0.36243  1.0000
  H   H10       1.0  0.58317  0.24751  0.31323  1.0000
  H   H11       1.0  0.55736  0.18560  0.32901  1.0000
  C   C18       1.0  0.65181  0.29727  0.32401  1.0000
  N   N2        1.0  0.63170  0.31279  0.32430  1.0000
  C   C19       1.0  0.64550  0.34824  0.32386  1.0000
  H   H12       1.0  0.75253  0.33565  0.31349  1.0000
  H   H13       1.0  0.81445  0.37175  0.32920  1.0000
  C   C20       1.0  0.55925  0.40956  0.36091  1.0000
  H   H14       1.0  0.54126  0.39966  0.40907  1.0000
  C   C21       1.0  0.47716  0.51629  0.25366  1.0000
  C   C22       1.0  0.45925  0.53529  0.26209  1.0000
  H   H15       1.0  0.44927  0.54066  0.20642  1.0000
  C   C23       1.0  0.50831  0.48979  0.32639  1.0000
  C   C24       1.0  0.54421  0.45190  0.31777  1.0000
  C   C25       1.0  0.53208  0.45975  0.23883  1.0000
  C   C26       1.0  0.51363  0.47841  0.24206  1.0000
  C   C27       1.0  0.50050  0.48600  0.16441  1.0000
  C   C28       1.0  0.48233  0.50472  0.17018  1.0000
  H   H16       1.0  0.50403  0.47795  0.10317  1.0000
  H   H17       1.0  0.47305  0.50993  0.11301  1.0000
  H   H18       1.0  0.53632  0.45139  0.17878  1.0000
  N   N3        1.0  0.56196  0.43485  0.31210  1.0000
  C   C29       1.0  0.48377  0.96090  0.25363  1.0000
  C   C30       1.0  0.46476  0.92399  0.26200  1.0000
  H   H19       1.0  0.45937  0.90864  0.20628  1.0000
  C   C31       1.0  0.51030  0.01853  0.32648  1.0000
  C   C32       1.0  0.54817  0.09232  0.31799  1.0000
  C   C33       1.0  0.54032  0.07236  0.23901  1.0000
  C   C34       1.0  0.52166  0.03526  0.24217  1.0000
  C   C35       1.0  0.51405  0.01456  0.16447  1.0000
  C   C36       1.0  0.49533  0.97767  0.17018  1.0000
  H   H20       1.0  0.52208  0.02615  0.10325  1.0000
  H   H21       1.0  0.49009  0.96318  0.11297  1.0000
  H   H22       1.0  0.54867  0.08499  0.17898  1.0000
  N   N4        1.0  0.56524  0.12713  0.31238  1.0000
  C   C37       1.0  0.03916  0.52289  0.25366  1.0000
  C   C38       1.0  0.07607  0.54080  0.26205  1.0000
  H   H23       1.0  0.09142  0.55077  0.20635  1.0000
  C   C39       1.0  0.98152  0.49176  0.32646  1.0000
  C   C40       1.0  0.90773  0.45584  0.31792  1.0000
  C   C41       1.0  0.92770  0.46797  0.23897  1.0000
  C   C42       1.0  0.96481  0.48642  0.24215  1.0000
  C   C43       1.0  0.98551  0.49953  0.16447  1.0000
  C   C44       1.0  0.02240  0.51770  0.17020  1.0000
  H   H24       1.0  0.97392  0.49599  0.10324  1.0000
  H   H25       1.0  0.03689  0.52697  0.11301  1.0000
  H   H26       1.0  0.91508  0.46371  0.17892  1.0000
  N   N5        1.0  0.87292  0.43811  0.31230  1.0000
  C   C45       1.0  0.26005  0.62329  0.34475  1.0000
  C   C46       1.0  0.23741  0.63756  0.34838  1.0000
  C   C47       1.0  0.20078  0.61606  0.33964  1.0000
  C   C48       1.0  0.18543  0.57941  0.32682  1.0000
  C   C49       1.0  0.20777  0.56491  0.32396  1.0000
  C   C50       1.0  0.24436  0.58644  0.33337  1.0000
  C   C51       1.0  0.36250  0.59986  0.34836  1.0000
  C   C52       1.0  0.38401  0.58474  0.33964  1.0000
  C   C53       1.0  0.39402  0.81462  0.32670  1.0000
  C   C54       1.0  0.35719  0.79227  0.32381  1.0000
  C   C55       1.0  0.34212  0.75568  0.33327  1.0000
  H   H27       1.0  0.19763  0.53851  0.31413  1.0000
  H   H28       1.0  0.25947  0.57478  0.32954  1.0000
  H   H29       1.0  0.33606  0.58333  0.35605  1.0000
  H   H30       1.0  0.37246  0.55792  0.34050  1.0000
  H   H31       1.0  0.34092  0.80241  0.31394  1.0000
  H   H32       1.0  0.31535  0.74057  0.32940  1.0000
  N   N6        1.0  0.31911  0.63171  0.34872  1.0000
  C   C56       1.0  0.29730  0.64532  0.34908  1.0000
  N   N7        1.0  0.31265  0.68094  0.34868  1.0000
  C   C57       1.0  0.40846  0.85035  0.31230  1.0000
  C   C58       1.0  0.14969  0.55812  0.31240  1.0000
  H   H33       1.0  0.14157  0.53819  0.26963  1.0000
  H   H34       1.0  0.39668  0.85847  0.26945  1.0000
  C   C59       1.0  0.74005  0.37641  0.32843  1.0000
  C   C60       1.0  0.76257  0.36203  0.32284  1.0000
  C   C61       1.0  0.79922  0.38334  0.33164  1.0000
  C   C62       1.0  0.81465  0.41986  0.34658  1.0000
  C   C63       1.0  0.79248  0.43449  0.35159  1.0000
  C   C64       1.0  0.75586  0.41316  0.34198  1.0000
  C   C65       1.0  0.63804  0.40055  0.32276  1.0000
  C   C66       1.0  0.61673  0.41590  0.33148  1.0000
  C   C67       1.0  0.60526  0.18541  0.34670  1.0000
  C   C68       1.0  0.64206  0.20758  0.35182  1.0000
  C   C69       1.0  0.65734  0.24419  0.34220  1.0000
  H   H35       1.0  0.80275  0.46082  0.36305  1.0000
  H   H36       1.0  0.74084  0.42488  0.34732  1.0000
  H   H37       1.0  0.66443  0.41691  0.31364  1.0000
  H   H38       1.0  0.62833  0.44272  0.32932  1.0000
  H   H39       1.0  0.65811  0.19731  0.36343  1.0000
  H   H40       1.0  0.68407  0.25922  0.34764  1.0000
  N   N8        1.0  0.68114  0.36835  0.32428  1.0000
  C   C70       1.0  0.70279  0.35455  0.32399  1.0000
  N   N9        1.0  0.68726  0.31891  0.32442  1.0000
  C   C71       1.0  0.59050  0.14971  0.36129  1.0000
  C   C72       1.0  0.85035  0.44081  0.36117  1.0000
  H   H41       1.0  0.85846  0.45877  0.40942  1.0000
  H   H42       1.0  0.60034  0.14160  0.40958  1.0000
  C   C73       1.0  0.45470  0.54687  0.34644  1.0000
  C   C74       1.0  0.46775  0.53815  0.42291  1.0000
  N   N10       1.0  0.48489  0.51983  0.41202  1.0000
  C   C75       1.0  0.49021  0.50871  0.33206  1.0000
  C   C76       1.0  0.53839  0.46418  0.39945  1.0000
  N   N11       1.0  0.52094  0.48234  0.40095  1.0000
  H   H43       1.0  0.54744  0.45987  0.45812  1.0000
  C   C77       1.0  0.46474  0.54810  0.51537  1.0000
  H   H44       1.0  0.45094  0.56292  0.51941  1.0000
  H   H45       1.0  0.49095  0.56427  0.54349  1.0000
  H   H46       1.0  0.45047  0.52443  0.55584  1.0000
  N   N12       1.0  0.43691  0.56386  0.35405  1.0000
  C   C78       1.0  0.45320  0.90783  0.34633  1.0000
  C   C79       1.0  0.46194  0.92958  0.42284  1.0000
  N   N13       1.0  0.48027  0.96505  0.41201  1.0000
  C   C80       1.0  0.49137  0.98151  0.33208  1.0000
  C   C81       1.0  0.53594  0.07420  0.39965  1.0000
  N   N14       1.0  0.51777  0.03859  0.40109  1.0000
  H   H47       1.0  0.54025  0.08754  0.45836  1.0000
  C   C82       1.0  0.45202  0.91659  0.51530  1.0000
  H   H48       1.0  0.43720  0.88798  0.51930  1.0000
  H   H49       1.0  0.43588  0.92665  0.54353  1.0000
  H   H50       1.0  0.47571  0.92598  0.55569  1.0000
  N   N15       1.0  0.43619  0.87305  0.35390  1.0000
  C   C83       1.0  0.09222  0.54538  0.34639  1.0000
  C   C84       1.0  0.07046  0.53234  0.42289  1.0000
  N   N16       1.0  0.03499  0.51520  0.41203  1.0000
  C   C85       1.0  0.01854  0.50986  0.33210  1.0000
  C   C86       1.0  0.92584  0.46170  0.39959  1.0000
  N   N17       1.0  0.96145  0.47915  0.40105  1.0000
  H   H51       1.0  0.91250  0.45267  0.45828  1.0000
  C   C87       1.0  0.08344  0.53539  0.51535  1.0000
  H   H52       1.0  0.11205  0.54919  0.51935  1.0000
  H   H53       1.0  0.07339  0.50918  0.54351  1.0000
  H   H54       1.0  0.07404  0.54967  0.55577  1.0000
  N   N18       1.0  0.12699  0.56315  0.35397  1.0000
