data_image0
_chemical_formula_structural       CHC2OHC4H2C3H2OC2H2C2H3C3H2C3H2C3OHC3HOC3OHC3HOC3OHC2H2C5H3CH3C3H2CH2C5H3CH3C5H3CH3C5H3CH3C3OH2C6O2H4C6O2H4C4H2CH2C3HC4H2CH3C3H2C3HC4H2CH3C3HC4H2CH3C3HC4H2CH3
_chemical_formula_sum              "C120 H90 O12"
_cell_length_a       31.8214
_cell_length_b       31.8214
_cell_length_c       14.7923
_cell_angle_alpha    90
_cell_angle_beta     90
_cell_angle_gamma    120

_space_group_name_H-M_alt    "P 1"
_space_group_IT_number       1

loop_
  _space_group_symop_operation_xyz
  'x, y, z'

loop_
  _atom_site_type_symbol
  _atom_site_label
  _atom_site_symmetry_multiplicity
  _atom_site_fract_x
  _atom_site_fract_y
  _atom_site_fract_z
  _atom_site_occupancy
  C   C1        1.0  0.06501  0.57084  0.33726  1.0000
  H   H1        1.0  0.04767  0.58912  0.31877  1.0000
  C   C2        1.0  0.03745  0.52015  0.35789  1.0000
  C   C3        1.0  0.06591  0.49745  0.37686  1.0000
  O   O1        1.0  0.04504  0.45077  0.40659  1.0000
  H   H2        1.0  0.03778  0.45140  0.47105  1.0000
  C   C4        1.0  0.11645  0.59807  0.33747  1.0000
  C   C5        1.0  0.14219  0.57321  0.35374  1.0000
  C   C6        1.0  0.14644  0.49945  0.37913  1.0000
  C   C7        1.0  0.14667  0.46972  0.30825  1.0000
  H   H3        1.0  0.12055  0.45888  0.25922  1.0000
  H   H4        1.0  0.14704  0.41010  0.18736  1.0000
  C   C8        1.0  0.11759  0.52271  0.37144  1.0000
  C   C9        1.0  0.14364  0.65009  0.32911  1.0000
  C   C10       1.0  0.14666  0.67919  0.40389  1.0000
  H   H5        1.0  0.12244  0.66339  0.45590  1.0000
  H   H6        1.0  0.14922  0.75295  0.50141  1.0000
  O   O2        1.0  0.19186  0.59812  0.34901  1.0000
  C   C11       1.0  0.18451  0.45853  0.29827  1.0000
  C   C12       1.0  0.18185  0.42645  0.22258  1.0000
  H   H7        1.0  0.18651  0.39696  0.24872  1.0000
  H   H8        1.0  0.21014  0.44691  0.17295  1.0000
  C   C13       1.0  0.21800  0.72001  0.27041  1.0000
  C   C14       1.0  0.17915  0.67217  0.26082  1.0000
  H   H9        1.0  0.18019  0.65168  0.20842  1.0000
  H   H10       1.0  0.22447  0.83110  0.24862  1.0000
  H   H11       1.0  0.20375  0.61583  0.40641  1.0000
  C   C15       1.0  0.22432  0.47838  0.36021  1.0000
  C   C16       1.0  0.22239  0.50590  0.43377  1.0000
  C   C17       1.0  0.18385  0.51527  0.44422  1.0000
  H   H12       1.0  0.18609  0.53823  0.49488  1.0000
  H   H13       1.0  0.22475  0.42286  0.49521  1.0000
  C   C18       1.0  0.22234  0.74891  0.34667  1.0000
  C   C19       1.0  0.18480  0.72809  0.41324  1.0000
  C   C20       1.0  0.18423  0.75460  0.49570  1.0000
  H   H14       1.0  0.21208  0.79283  0.49501  1.0000
  H   H15       1.0  0.18965  0.73777  0.55554  1.0000
  C   C21       1.0  0.87890  0.44080  0.35389  1.0000
  C   C22       1.0  0.90465  0.41594  0.33772  1.0000
  C   C23       1.0  0.95608  0.44318  0.33746  1.0000
  O   O3        1.0  0.82923  0.41587  0.34919  1.0000
  H   H16       1.0  0.97342  0.42490  0.31896  1.0000
  C   C24       1.0  0.44671  0.49767  0.33724  1.0000
  C   C25       1.0  0.41947  0.52186  0.33751  1.0000
  C   C26       1.0  0.44432  0.57246  0.35376  1.0000
  H   H17       1.0  0.42844  0.46204  0.31873  1.0000
  O   O4        1.0  0.41939  0.59721  0.34905  1.0000
  C   C27       1.0  0.57671  0.44157  0.35383  1.0000
  C   C28       1.0  0.60157  0.49217  0.33758  1.0000
  C   C29       1.0  0.57434  0.51637  0.33726  1.0000
  O   O5        1.0  0.60161  0.41681  0.34911  1.0000
  H   H18       1.0  0.59262  0.55199  0.31871  1.0000
  C   C30       1.0  0.51990  0.95255  0.33743  1.0000
  C   C31       1.0  0.49570  0.90112  0.33768  1.0000
  C   C32       1.0  0.44509  0.87537  0.35381  1.0000
  H   H19       1.0  0.55553  0.96989  0.31893  1.0000
  O   O6        1.0  0.42034  0.82570  0.34906  1.0000
  C   C33       1.0  0.57596  0.13867  0.35382  1.0000
  C   C34       1.0  0.52536  0.11292  0.33761  1.0000
  C   C35       1.0  0.50117  0.06148  0.33729  1.0000
  O   O7        1.0  0.60070  0.18834  0.34913  1.0000
  H   H20       1.0  0.46555  0.04414  0.31878  1.0000
  C   C36       1.0  0.29750  0.50146  0.27041  1.0000
  C   C37       1.0  0.34533  0.51043  0.26084  1.0000
  H   H21       1.0  0.28541  0.51688  0.22402  1.0000
  H   H22       1.0  0.36587  0.53203  0.20855  1.0000
  C   C38       1.0  0.51807  0.65048  0.37911  1.0000
  C   C39       1.0  0.54777  0.68044  0.30817  1.0000
  C   C40       1.0  0.55898  0.72948  0.29815  1.0000
  C   C41       1.0  0.51613  0.79964  0.27045  1.0000
  C   C42       1.0  0.50715  0.83850  0.26095  1.0000
  H   H23       1.0  0.50070  0.77215  0.22402  1.0000
  H   H24       1.0  0.48554  0.83747  0.20870  1.0000
  H   H25       1.0  0.55862  0.66516  0.25917  1.0000
  C   C43       1.0  0.59105  0.75887  0.22242  1.0000
  H   H26       1.0  0.60735  0.74037  0.18717  1.0000
  H   H27       1.0  0.62056  0.79300  0.24854  1.0000
  H   H28       1.0  0.57059  0.76672  0.17283  1.0000
  C   C44       1.0  0.36705  0.87113  0.37889  1.0000
  C   C45       1.0  0.33705  0.87086  0.30804  1.0000
  C   C46       1.0  0.28801  0.83303  0.29809  1.0000
  H   H29       1.0  0.24546  0.73217  0.22390  1.0000
  H   H30       1.0  0.35233  0.89703  0.25909  1.0000
  C   C47       1.0  0.25859  0.83571  0.22242  1.0000
  H   H31       1.0  0.27708  0.87050  0.18715  1.0000
  H   H32       1.0  0.25069  0.80739  0.17283  1.0000
  C   C48       1.0  0.87465  0.51459  0.37894  1.0000
  C   C49       1.0  0.87433  0.54427  0.30805  1.0000
  C   C50       1.0  0.83652  0.55551  0.29813  1.0000
  C   C51       1.0  0.72352  0.51251  0.27040  1.0000
  C   C52       1.0  0.67567  0.50350  0.26089  1.0000
  H   H33       1.0  0.73567  0.49724  0.22383  1.0000
  H   H34       1.0  0.65518  0.48207  0.20838  1.0000
  H   H35       1.0  0.90053  0.55522  0.25913  1.0000
  C   C53       1.0  0.83920  0.58762  0.22247  1.0000
  H   H36       1.0  0.87400  0.60393  0.18721  1.0000
  H   H37       1.0  0.83459  0.61712  0.24868  1.0000
  H   H38       1.0  0.81088  0.56719  0.17288  1.0000
  C   C54       1.0  0.50295  0.36358  0.37926  1.0000
  C   C55       1.0  0.47326  0.33361  0.30832  1.0000
  C   C56       1.0  0.46208  0.28458  0.29829  1.0000
  C   C57       1.0  0.50499  0.21450  0.27046  1.0000
  C   C58       1.0  0.51394  0.17563  0.26090  1.0000
  H   H39       1.0  0.52042  0.24201  0.22408  1.0000
  H   H40       1.0  0.53555  0.17669  0.20862  1.0000
  H   H41       1.0  0.46244  0.34890  0.25927  1.0000
  C   C59       1.0  0.43003  0.25519  0.22254  1.0000
  H   H42       1.0  0.41370  0.27367  0.18732  1.0000
  H   H43       1.0  0.40054  0.22103  0.24864  1.0000
  H   H44       1.0  0.45051  0.24738  0.17293  1.0000
  C   C60       1.0  0.65399  0.14294  0.37906  1.0000
  C   C61       1.0  0.68395  0.14318  0.30816  1.0000
  C   C62       1.0  0.73299  0.18101  0.29816  1.0000
  C   C63       1.0  0.80314  0.29402  0.27055  1.0000
  C   C64       1.0  0.84201  0.34186  0.26109  1.0000
  H   H45       1.0  0.77566  0.28198  0.22411  1.0000
  H   H46       1.0  0.84098  0.36244  0.20884  1.0000
  H   H47       1.0  0.66866  0.11705  0.25914  1.0000
  C   C65       1.0  0.76238  0.17834  0.22244  1.0000
  H   H48       1.0  0.74389  0.14355  0.18716  1.0000
  H   H49       1.0  0.79651  0.18295  0.24858  1.0000
  H   H50       1.0  0.77025  0.20666  0.17287  1.0000
  C   C66       1.0  0.98364  0.49389  0.35792  1.0000
  C   C67       1.0  0.95518  0.51659  0.37678  1.0000
  C   C68       1.0  0.90349  0.49132  0.37146  1.0000
  O   O8        1.0  0.97605  0.56331  0.40633  1.0000
  H   H51       1.0  0.98334  0.56276  0.47079  1.0000
  H   H52       1.0  0.81736  0.39818  0.40663  1.0000
  C   C69       1.0  0.49740  0.52080  0.35785  1.0000
  C   C70       1.0  0.49483  0.59838  0.37138  1.0000
  C   C71       1.0  0.52009  0.57196  0.37684  1.0000
  C   C72       1.0  0.52365  0.49325  0.35788  1.0000
  C   C73       1.0  0.50096  0.44211  0.37695  1.0000
  C   C74       1.0  0.52621  0.41567  0.37151  1.0000
  O   O9        1.0  0.56681  0.59780  0.40639  1.0000
  O   O10       1.0  0.45425  0.41629  0.40654  1.0000
  H   H53       1.0  0.56624  0.58995  0.47086  1.0000
  H   H54       1.0  0.45483  0.42418  0.47099  1.0000
  H   H55       1.0  0.40169  0.59138  0.40647  1.0000
  H   H56       1.0  0.61933  0.42264  0.40652  1.0000
  C   C75       1.0  0.49676  0.98012  0.35790  1.0000
  C   C76       1.0  0.41916  0.89996  0.37138  1.0000
  C   C77       1.0  0.44559  0.95165  0.37680  1.0000
  C   C78       1.0  0.52430  0.03392  0.35789  1.0000
  C   C79       1.0  0.57546  0.06239  0.37683  1.0000
  C   C80       1.0  0.60188  0.11408  0.37142  1.0000
  O   O11       1.0  0.41974  0.97252  0.40634  1.0000
  O   O12       1.0  0.60130  0.04153  0.40649  1.0000
  H   H57       1.0  0.42758  0.97980  0.47081  1.0000
  H   H58       1.0  0.59342  0.03426  0.47095  1.0000
  H   H59       1.0  0.42615  0.81381  0.40647  1.0000
  H   H60       1.0  0.59488  0.20021  0.40656  1.0000
  C   C81       1.0  0.26868  0.47705  0.34681  1.0000
  C   C82       1.0  0.36747  0.49702  0.32908  1.0000
  C   C83       1.0  0.33831  0.47089  0.40380  1.0000
  C   C84       1.0  0.28944  0.46022  0.41328  1.0000
  H   H61       1.0  0.35411  0.46253  0.45589  1.0000
  H   H62       1.0  0.25077  0.52199  0.47827  1.0000
  C   C85       1.0  0.26296  0.43319  0.49579  1.0000
  H   H63       1.0  0.27985  0.45544  0.55559  1.0000
  H   H64       1.0  0.26455  0.39979  0.50150  1.0000
  C   C86       1.0  0.53912  0.74945  0.36004  1.0000
  C   C87       1.0  0.51165  0.72004  0.43368  1.0000
  C   C88       1.0  0.50222  0.67211  0.44408  1.0000
  H   H65       1.0  0.47939  0.65142  0.49490  1.0000
  C   C89       1.0  0.54063  0.79522  0.34673  1.0000
  C   C90       1.0  0.52056  0.87395  0.32938  1.0000
  C   C91       1.0  0.54670  0.87094  0.40403  1.0000
  C   C92       1.0  0.55740  0.83276  0.41333  1.0000
  H   H66       1.0  0.55508  0.89511  0.45611  1.0000
  H   H67       1.0  0.49564  0.73237  0.47828  1.0000
  C   C93       1.0  0.58446  0.83326  0.49576  1.0000
  H   H68       1.0  0.59481  0.80539  0.49502  1.0000
  H   H69       1.0  0.56223  0.82785  0.55561  1.0000
  H   H70       1.0  0.61784  0.86826  0.50150  1.0000
  C   C94       1.0  0.26807  0.79322  0.36000  1.0000
  C   C95       1.0  0.29750  0.79519  0.43363  1.0000
  C   C96       1.0  0.34545  0.83365  0.44390  1.0000
  H   H71       1.0  0.36616  0.83152  0.49470  1.0000
  H   H72       1.0  0.28523  0.76679  0.47812  1.0000
  C   C97       1.0  0.79673  0.53568  0.36010  1.0000
  C   C98       1.0  0.79869  0.50818  0.43368  1.0000
  C   C99       1.0  0.83717  0.49871  0.44393  1.0000
  H   H73       1.0  0.83505  0.47592  0.49483  1.0000
  C   C100      1.0  0.75237  0.53699  0.34673  1.0000
  C   C101      1.0  0.65358  0.51699  0.32905  1.0000
  C   C102      1.0  0.68272  0.54312  0.40377  1.0000
  C   C103      1.0  0.73160  0.55381  0.41321  1.0000
  H   H74       1.0  0.66692  0.55150  0.45584  1.0000
  H   H75       1.0  0.77034  0.49210  0.47824  1.0000
  C   C104      1.0  0.75809  0.58086  0.49571  1.0000
  H   H76       1.0  0.79631  0.59120  0.49510  1.0000
  H   H77       1.0  0.74121  0.55862  0.55553  1.0000
  H   H78       1.0  0.75648  0.61425  0.50140  1.0000
  C   C105      1.0  0.48190  0.26460  0.36023  1.0000
  C   C106      1.0  0.50940  0.29405  0.43383  1.0000
  C   C107      1.0  0.51876  0.34195  0.44431  1.0000
  H   H79       1.0  0.54170  0.36266  0.49499  1.0000
  C   C108      1.0  0.48057  0.21892  0.34685  1.0000
  C   C109      1.0  0.50051  0.14007  0.32914  1.0000
  C   C110      1.0  0.47439  0.14312  0.40384  1.0000
  C   C111      1.0  0.46371  0.18132  0.41330  1.0000
  H   H80       1.0  0.46602  0.11896  0.45593  1.0000
  H   H81       1.0  0.52548  0.28175  0.47834  1.0000
  C   C112      1.0  0.43667  0.18077  0.49580  1.0000
  H   H82       1.0  0.42635  0.20866  0.49521  1.0000
  H   H83       1.0  0.45892  0.18612  0.55562  1.0000
  H   H84       1.0  0.40328  0.14578  0.50149  1.0000
  C   C113      1.0  0.75295  0.22083  0.36009  1.0000
  C   C114      1.0  0.72353  0.21887  0.43373  1.0000
  C   C115      1.0  0.67560  0.18038  0.44410  1.0000
  H   H85       1.0  0.65490  0.18251  0.49493  1.0000
  C   C116      1.0  0.79872  0.26509  0.34680  1.0000
  C   C117      1.0  0.87750  0.36392  0.32949  1.0000
  C   C118      1.0  0.87444  0.33472  0.40410  1.0000
  C   C119      1.0  0.83625  0.28584  0.41338  1.0000
  H   H86       1.0  0.89861  0.35049  0.45618  1.0000
  H   H87       1.0  0.73587  0.24721  0.47834  1.0000
  C   C120      1.0  0.83676  0.25927  0.49580  1.0000
  H   H88       1.0  0.80888  0.22106  0.49505  1.0000
  H   H89       1.0  0.83136  0.27609  0.55567  1.0000
  H   H90       1.0  0.87175  0.26087  0.50152  1.0000
