data_image0
_chemical_formula_structural       NC2H4CH4CN3HCN3HCN2HC29H17C3O3C29H17C3O3C3H2NHC3H2NHC2H2NH
_chemical_formula_sum              "N12 C78 H54 O6"
_cell_length_a       44.9041
_cell_length_b       44.904
_cell_length_c       14.9844
_cell_angle_alpha    90
_cell_angle_beta     90
_cell_angle_gamma    120

_space_group_name_H-M_alt    "P 1"
_space_group_IT_number       1

loop_
  _space_group_symop_operation_xyz
  'x, y, z'

loop_
  _atom_site_type_symbol
  _atom_site_label
  _atom_site_symmetry_multiplicity
  _atom_site_fract_x
  _atom_site_fract_y
  _atom_site_fract_z
  _atom_site_occupancy
  N   N1        1.0  0.01495  0.49511  0.28685  1.0000
  C   C1        1.0  0.02153  0.52238  0.42616  1.0000
  C   C2        1.0  0.40914  0.85495  0.35170  1.0000
  H   H1        1.0  0.39870  0.87050  0.35864  1.0000
  H   H2        1.0  0.36055  0.81016  0.34806  1.0000
  H   H3        1.0  0.47283  0.60257  0.35875  1.0000
  H   H4        1.0  0.13079  0.52849  0.35865  1.0000
  C   C3        1.0  0.59194  0.14597  0.34500  1.0000
  H   H5        1.0  0.60298  0.13086  0.34894  1.0000
  H   H6        1.0  0.63912  0.19151  0.36341  1.0000
  H   H7        1.0  0.52892  0.39830  0.34886  1.0000
  H   H8        1.0  0.87044  0.47240  0.34890  1.0000
  C   C4        1.0  0.48393  0.51959  0.34926  1.0000
  N   N2        1.0  0.52194  0.50230  0.29401  1.0000
  N   N3        1.0  0.50620  0.52010  0.28687  1.0000
  N   N4        1.0  0.46955  0.53999  0.33665  1.0000
  H   H9        1.0  0.48270  0.56023  0.29941  1.0000
  C   C5        1.0  0.48167  0.96458  0.34928  1.0000
  N   N5        1.0  0.49897  0.01989  0.29404  1.0000
  N   N6        1.0  0.48117  0.98636  0.28690  1.0000
  N   N7        1.0  0.46123  0.92981  0.33675  1.0000
  H   H10       1.0  0.44102  0.92273  0.29943  1.0000
  C   C6        1.0  0.03673  0.51739  0.34924  1.0000
  N   N8        1.0  0.98141  0.47937  0.29401  1.0000
  N   N9        1.0  0.07150  0.53176  0.33661  1.0000
  H   H11       1.0  0.07859  0.51862  0.29936  1.0000
  C   C7        1.0  0.44527  0.86891  0.35207  1.0000
  C   C8        1.0  0.45777  0.84555  0.34728  1.0000
  C   C9        1.0  0.43522  0.80985  0.34186  1.0000
  C   C10       1.0  0.39922  0.79617  0.34100  1.0000
  C   C11       1.0  0.38649  0.81922  0.34649  1.0000
  C   C12       1.0  0.37652  0.76091  0.34103  1.0000
  C   C13       1.0  0.37832  0.73886  0.28348  1.0000
  C   C14       1.0  0.35623  0.70349  0.28557  1.0000
  C   C15       1.0  0.32009  0.68901  0.28490  1.0000
  C   C16       1.0  0.29782  0.65299  0.28549  1.0000
  C   C17       1.0  0.31230  0.63133  0.28486  1.0000
  C   C18       1.0  0.34832  0.64509  0.28551  1.0000
  C   C19       1.0  0.36998  0.68122  0.28492  1.0000
  C   C20       1.0  0.36159  0.62299  0.28341  1.0000
  C   C21       1.0  0.38544  0.62478  0.34097  1.0000
  C   C22       1.0  0.39799  0.60208  0.34092  1.0000
  C   C23       1.0  0.43377  0.61480  0.34650  1.0000
  C   C24       1.0  0.37566  0.56608  0.34184  1.0000
  C   C25       1.0  0.38881  0.54353  0.34730  1.0000
  C   C26       1.0  0.42467  0.55602  0.35212  1.0000
  C   C27       1.0  0.44685  0.59215  0.35167  1.0000
  C   C28       1.0  0.26245  0.63971  0.28338  1.0000
  C   C29       1.0  0.24040  0.61587  0.34096  1.0000
  C   C30       1.0  0.20515  0.60333  0.34090  1.0000
  C   C31       1.0  0.19148  0.62566  0.34183  1.0000
  C   C32       1.0  0.18209  0.56755  0.34649  1.0000
  C   C33       1.0  0.14636  0.55447  0.35167  1.0000
  C   C34       1.0  0.13241  0.57665  0.35203  1.0000
  C   C35       1.0  0.15577  0.61251  0.34726  1.0000
  H   H12       1.0  0.48362  0.85425  0.34817  1.0000
  H   H13       1.0  0.44539  0.79390  0.34044  1.0000
  H   H14       1.0  0.39615  0.69146  0.28373  1.0000
  H   H15       1.0  0.30986  0.70495  0.28371  1.0000
  H   H16       1.0  0.29636  0.60516  0.28364  1.0000
  H   H17       1.0  0.20743  0.65177  0.34038  1.0000
  H   H18       1.0  0.45066  0.64074  0.34804  1.0000
  H   H19       1.0  0.37165  0.51767  0.34825  1.0000
  H   H20       1.0  0.34955  0.55592  0.34038  1.0000
  H   H21       1.0  0.14708  0.62968  0.34816  1.0000
  H   H22       1.0  0.19114  0.55066  0.34802  1.0000
  H   H23       1.0  0.39499  0.64345  0.38646  1.0000
  H   H24       1.0  0.35185  0.60419  0.23832  1.0000
  H   H25       1.0  0.35785  0.75180  0.38651  1.0000
  H   H26       1.0  0.39713  0.74792  0.23842  1.0000
  H   H27       1.0  0.24951  0.60632  0.38644  1.0000
  H   H28       1.0  0.25340  0.64948  0.23833  1.0000
  C   C36       1.0  0.09635  0.56383  0.36280  1.0000
  C   C37       1.0  0.43751  0.53280  0.36297  1.0000
  C   C38       1.0  0.46849  0.90497  0.36280  1.0000
  O   O1        1.0  0.41552  0.50113  0.39591  1.0000
  O   O2        1.0  0.50015  0.91467  0.39589  1.0000
  O   O3        1.0  0.08666  0.58579  0.39595  1.0000
  C   C39       1.0  0.55622  0.13119  0.32926  1.0000
  C   C40       1.0  0.54271  0.15359  0.32102  1.0000
  C   C41       1.0  0.56404  0.18942  0.32958  1.0000
  C   C42       1.0  0.59976  0.20407  0.34473  1.0000
  C   C43       1.0  0.61335  0.18181  0.35284  1.0000
  C   C44       1.0  0.62148  0.23936  0.35326  1.0000
  C   C45       1.0  0.62204  0.26261  0.29560  1.0000
  C   C46       1.0  0.64461  0.29772  0.30237  1.0000
  C   C47       1.0  0.68062  0.31127  0.30174  1.0000
  C   C48       1.0  0.70359  0.34714  0.30236  1.0000
  C   C49       1.0  0.69004  0.36960  0.30176  1.0000
  C   C50       1.0  0.65417  0.35670  0.30236  1.0000
  C   C51       1.0  0.63171  0.32070  0.30176  1.0000
  C   C52       1.0  0.64162  0.37926  0.29561  1.0000
  C   C53       1.0  0.61894  0.37983  0.35328  1.0000
  C   C54       1.0  0.60537  0.40154  0.34476  1.0000
  C   C55       1.0  0.56950  0.38794  0.35283  1.0000
  C   C56       1.0  0.62643  0.43727  0.32964  1.0000
  C   C57       1.0  0.61191  0.45858  0.32106  1.0000
  C   C58       1.0  0.57601  0.44507  0.32924  1.0000
  C   C59       1.0  0.55508  0.40935  0.34497  1.0000
  C   C60       1.0  0.73871  0.35970  0.29561  1.0000
  C   C61       1.0  0.76194  0.38237  0.35327  1.0000
  C   C62       1.0  0.79724  0.39594  0.34475  1.0000
  C   C63       1.0  0.81190  0.37488  0.32963  1.0000
  C   C64       1.0  0.81950  0.43181  0.35280  1.0000
  C   C65       1.0  0.85533  0.44623  0.34497  1.0000
  C   C66       1.0  0.87012  0.42530  0.32927  1.0000
  C   C67       1.0  0.84773  0.38940  0.32110  1.0000
  H   H29       1.0  0.51698  0.14397  0.31053  1.0000
  H   H30       1.0  0.55319  0.20470  0.32479  1.0000
  H   H31       1.0  0.60565  0.31110  0.29901  1.0000
  H   H32       1.0  0.69021  0.29480  0.29901  1.0000
  H   H33       1.0  0.70651  0.39566  0.29901  1.0000
  H   H34       1.0  0.79661  0.34875  0.32485  1.0000
  H   H35       1.0  0.55344  0.36217  0.36336  1.0000
  H   H36       1.0  0.62803  0.48432  0.31058  1.0000
  H   H37       1.0  0.65256  0.44812  0.32487  1.0000
  H   H38       1.0  0.85735  0.37328  0.31058  1.0000
  H   H39       1.0  0.80979  0.44787  0.36339  1.0000
  H   H40       1.0  0.61018  0.36292  0.40319  1.0000
  H   H41       1.0  0.65017  0.39582  0.24494  1.0000
  H   H42       1.0  0.63839  0.24751  0.40316  1.0000
  H   H43       1.0  0.60549  0.25461  0.24494  1.0000
  H   H44       1.0  0.75379  0.39113  0.40319  1.0000
  H   H45       1.0  0.74670  0.35114  0.24494  1.0000
  C   C68       1.0  0.90639  0.43984  0.32009  1.0000
  C   C69       1.0  0.56147  0.46681  0.32007  1.0000
  C   C70       1.0  0.53447  0.09492  0.32011  1.0000
  O   O4        1.0  0.57731  0.49382  0.26340  1.0000
  O   O5        1.0  0.50749  0.08375  0.26334  1.0000
  O   O6        1.0  0.91757  0.42399  0.26344  1.0000
  C   C71       1.0  0.47893  0.49939  0.42616  1.0000
  C   C72       1.0  0.49567  0.48014  0.43343  1.0000
  C   C73       1.0  0.51806  0.48171  0.36497  1.0000
  H   H46       1.0  0.49195  0.46560  0.48930  1.0000
  H   H47       1.0  0.46400  0.49917  0.47788  1.0000
  N   N10       1.0  0.53421  0.46259  0.37004  1.0000
  H   H48       1.0  0.52606  0.44503  0.41649  1.0000
  C   C74       1.0  0.50183  0.97978  0.42625  1.0000
  C   C75       1.0  0.52109  0.01578  0.43351  1.0000
  C   C76       1.0  0.51956  0.03660  0.36500  1.0000
  H   H49       1.0  0.53565  0.02660  0.48937  1.0000
  H   H50       1.0  0.50205  0.96507  0.47796  1.0000
  N   N11       1.0  0.53868  0.07187  0.37007  1.0000
  H   H51       1.0  0.55623  0.08127  0.41656  1.0000
  C   C77       1.0  0.98553  0.50563  0.43344  1.0000
  C   C78       1.0  0.96471  0.48325  0.36498  1.0000
  H   H52       1.0  0.97471  0.50935  0.48933  1.0000
  H   H53       1.0  0.03624  0.53730  0.47788  1.0000
  N   N12       1.0  0.92944  0.46711  0.37005  1.0000
  H   H54       1.0  0.92004  0.47525  0.41651  1.0000
