data_image0
_chemical_formula_structural       CHNH2C6NH4C6N2H6C6N2H6C2NCNC2H3CH3C2NCNC2H3CH3C2NCNC2H3CH3C2NCNC2H3CH3C2NCNC2H3CH3C2NCNC2H3CH3C3HNC2NH2C3HNC3NH3C3HNC3NH3C2HC6H3C2HC6H3C2HC6H3C2HC6H3C2HC6H3C2HC6H3
_chemical_formula_sum              "C120 H90 N24"
_cell_length_a       31.2614
_cell_length_b       31.2614
_cell_length_c       14.9291
_cell_angle_alpha    90
_cell_angle_beta     90
_cell_angle_gamma    120

_space_group_name_H-M_alt    "P 1"
_space_group_IT_number       1

loop_
  _space_group_symop_operation_xyz
  'x, y, z'

loop_
  _atom_site_type_symbol
  _atom_site_label
  _atom_site_symmetry_multiplicity
  _atom_site_fract_x
  _atom_site_fract_y
  _atom_site_fract_z
  _atom_site_occupancy
  C   C1        1.0  0.03063  0.51717  0.32723  1.0000
  H   H1        1.0  0.00481  0.57186  0.23113  1.0000
  N   N1        1.0  0.03664  0.59126  0.26011  1.0000
  H   H2        1.0  0.05507  0.62559  0.24160  1.0000
  H   H3        1.0  0.04031  0.45824  0.37361  1.0000
  C   C2        1.0  0.05835  0.56877  0.30434  1.0000
  C   C3        1.0  0.05818  0.49478  0.35625  1.0000
  C   C4        1.0  0.97652  0.48755  0.32717  1.0000
  C   C5        1.0  0.89691  0.40809  0.32242  1.0000
  C   C6        1.0  0.94882  0.43598  0.30402  1.0000
  C   C7        1.0  0.11025  0.59662  0.32278  1.0000
  N   N2        1.0  0.97063  0.41357  0.25979  1.0000
  H   H4        1.0  0.00232  0.43316  0.23049  1.0000
  H   H5        1.0  0.95200  0.37936  0.24067  1.0000
  H   H6        1.0  0.20761  0.63223  0.34156  1.0000
  H   H7        1.0  0.79954  0.37246  0.34094  1.0000
  C   C8        1.0  0.51836  0.49013  0.32733  1.0000
  C   C9        1.0  0.59780  0.48993  0.32276  1.0000
  C   C10       1.0  0.56995  0.51399  0.30435  1.0000
  C   C11       1.0  0.48875  0.51462  0.32734  1.0000
  C   C12       1.0  0.43719  0.49078  0.30419  1.0000
  C   C13       1.0  0.40932  0.51482  0.32256  1.0000
  N   N3        1.0  0.59241  0.55817  0.26005  1.0000
  N   N4        1.0  0.41477  0.44659  0.25988  1.0000
  H   H8        1.0  0.57305  0.57067  0.23119  1.0000
  H   H9        1.0  0.62675  0.57405  0.24155  1.0000
  H   H10       1.0  0.38049  0.43086  0.24111  1.0000
  H   H11       1.0  0.43420  0.43421  0.23090  1.0000
  H   H12       1.0  0.37372  0.57659  0.34111  1.0000
  H   H13       1.0  0.63338  0.42816  0.34144  1.0000
  C   C14       1.0  0.51582  0.02944  0.32736  1.0000
  C   C15       1.0  0.51597  0.10904  0.32269  1.0000
  C   C16       1.0  0.49195  0.05714  0.30429  1.0000
  C   C17       1.0  0.49135  0.97533  0.32739  1.0000
  C   C18       1.0  0.51522  0.94762  0.30432  1.0000
  C   C19       1.0  0.49118  0.89571  0.32268  1.0000
  N   N5        1.0  0.44773  0.03537  0.26010  1.0000
  N   N6        1.0  0.55949  0.96942  0.26023  1.0000
  H   H14       1.0  0.43557  0.00364  0.23085  1.0000
  H   H15       1.0  0.43195  0.05385  0.24115  1.0000
  H   H16       1.0  0.57508  0.95081  0.24107  1.0000
  H   H17       1.0  0.57153  0.00108  0.23082  1.0000
  H   H18       1.0  0.42940  0.79833  0.34107  1.0000
  H   H19       1.0  0.57773  0.20642  0.34111  1.0000
  C   C20       1.0  0.35633  0.48873  0.32088  1.0000
  C   C21       1.0  0.32932  0.48797  0.24360  1.0000
  N   N7        1.0  0.28276  0.48029  0.25424  1.0000
  C   C22       1.0  0.25928  0.47276  0.33422  1.0000
  N   N8        1.0  0.19260  0.47860  0.26626  1.0000
  C   C23       1.0  0.15378  0.48673  0.26706  1.0000
  C   C24       1.0  0.34971  0.50058  0.15171  1.0000
  H   H20       1.0  0.38737  0.50730  0.14712  1.0000
  H   H21       1.0  0.34968  0.53377  0.12908  1.0000
  H   H22       1.0  0.32665  0.47020  0.10658  1.0000
  C   C25       1.0  0.13611  0.49390  0.17927  1.0000
  H   H23       1.0  0.15461  0.48693  0.12381  1.0000
  H   H24       1.0  0.14321  0.53166  0.17298  1.0000
  H   H25       1.0  0.09651  0.46836  0.17314  1.0000
  C   C26       1.0  0.51727  0.86881  0.32103  1.0000
  C   C27       1.0  0.51811  0.84262  0.24373  1.0000
  N   N9        1.0  0.52577  0.80372  0.25440  1.0000
  C   C28       1.0  0.53330  0.78775  0.33437  1.0000
  N   N10       1.0  0.52744  0.71523  0.26637  1.0000
  C   C29       1.0  0.51929  0.66827  0.26716  1.0000
  C   C30       1.0  0.50543  0.85031  0.15185  1.0000
  H   H26       1.0  0.49869  0.88124  0.14723  1.0000
  H   H27       1.0  0.47223  0.81708  0.12934  1.0000
  H   H28       1.0  0.53577  0.85761  0.10665  1.0000
  C   C31       1.0  0.51212  0.64347  0.17933  1.0000
  H   H29       1.0  0.51916  0.66896  0.12390  1.0000
  H   H30       1.0  0.47434  0.61285  0.17297  1.0000
  H   H31       1.0  0.53760  0.62933  0.17322  1.0000
  C   C32       1.0  0.13715  0.64960  0.32133  1.0000
  C   C33       1.0  0.16329  0.67664  0.24397  1.0000
  N   N11       1.0  0.20218  0.72320  0.25455  1.0000
  C   C34       1.0  0.21817  0.74673  0.33449  1.0000
  N   N12       1.0  0.29069  0.81335  0.26644  1.0000
  C   C35       1.0  0.33765  0.85215  0.26721  1.0000
  C   C36       1.0  0.15562  0.65624  0.15209  1.0000
  H   H32       1.0  0.12471  0.61858  0.14746  1.0000
  H   H33       1.0  0.18887  0.65630  0.12961  1.0000
  H   H34       1.0  0.14832  0.67928  0.10686  1.0000
  C   C37       1.0  0.36244  0.86977  0.17936  1.0000
  H   H35       1.0  0.33693  0.85129  0.12395  1.0000
  H   H36       1.0  0.39305  0.86260  0.17300  1.0000
  H   H37       1.0  0.37656  0.90938  0.17321  1.0000
  C   C38       1.0  0.65079  0.51601  0.32124  1.0000
  C   C39       1.0  0.67779  0.51684  0.24389  1.0000
  N   N13       1.0  0.72434  0.52446  0.25453  1.0000
  C   C40       1.0  0.74784  0.53199  0.33450  1.0000
  N   N14       1.0  0.81447  0.52609  0.26651  1.0000
  C   C41       1.0  0.85330  0.51796  0.26728  1.0000
  C   C42       1.0  0.65740  0.50413  0.15201  1.0000
  H   H38       1.0  0.61974  0.49743  0.14738  1.0000
  H   H39       1.0  0.65740  0.47091  0.12954  1.0000
  H   H40       1.0  0.68046  0.53445  0.10678  1.0000
  C   C43       1.0  0.87095  0.51085  0.17941  1.0000
  H   H41       1.0  0.85246  0.51787  0.12402  1.0000
  H   H42       1.0  0.86382  0.47308  0.17299  1.0000
  H   H43       1.0  0.91055  0.53637  0.17329  1.0000
  C   C44       1.0  0.48986  0.13592  0.32095  1.0000
  C   C45       1.0  0.48908  0.16220  0.24372  1.0000
  N   N15       1.0  0.48142  0.20109  0.25437  1.0000
  C   C46       1.0  0.47392  0.21706  0.33435  1.0000
  N   N16       1.0  0.47973  0.28956  0.26640  1.0000
  C   C47       1.0  0.48787  0.33651  0.26719  1.0000
  C   C48       1.0  0.50165  0.15441  0.15182  1.0000
  H   H44       1.0  0.50837  0.12347  0.14722  1.0000
  H   H45       1.0  0.53484  0.18762  0.12916  1.0000
  H   H46       1.0  0.47126  0.14710  0.10672  1.0000
  C   C49       1.0  0.49500  0.36133  0.17939  1.0000
  H   H47       1.0  0.48800  0.33586  0.12395  1.0000
  H   H48       1.0  0.53275  0.39199  0.17304  1.0000
  H   H49       1.0  0.46946  0.37540  0.17331  1.0000
  C   C50       1.0  0.87004  0.35511  0.32071  1.0000
  C   C51       1.0  0.84377  0.32802  0.24350  1.0000
  N   N17       1.0  0.80486  0.28148  0.25419  1.0000
  C   C52       1.0  0.78892  0.25800  0.33417  1.0000
  N   N18       1.0  0.71638  0.19133  0.26627  1.0000
  C   C53       1.0  0.66942  0.15252  0.26712  1.0000
  C   C54       1.0  0.85143  0.34839  0.15162  1.0000
  H   H50       1.0  0.88236  0.38605  0.14696  1.0000
  H   H51       1.0  0.81818  0.34836  0.12916  1.0000
  H   H52       1.0  0.85869  0.32533  0.10640  1.0000
  C   C55       1.0  0.64458  0.13486  0.17932  1.0000
  H   H53       1.0  0.67007  0.15330  0.12386  1.0000
  H   H54       1.0  0.61397  0.14202  0.17298  1.0000
  H   H55       1.0  0.63045  0.09524  0.17324  1.0000
  C   C56       1.0  0.94894  0.50990  0.35619  1.0000
  C   C57       1.0  0.89694  0.48490  0.35521  1.0000
  C   C58       1.0  0.87015  0.43278  0.34376  1.0000
  H   H56       1.0  0.96680  0.54639  0.37388  1.0000
  N   N19       1.0  0.81959  0.40765  0.35131  1.0000
  C   C59       1.0  0.13699  0.57191  0.34408  1.0000
  C   C60       1.0  0.11019  0.51978  0.35533  1.0000
  N   N20       1.0  0.18754  0.59702  0.35175  1.0000
  H   H57       1.0  0.20594  0.58091  0.36898  1.0000
  H   H58       1.0  0.80117  0.42373  0.36859  1.0000
  C   C61       1.0  0.49598  0.44020  0.35642  1.0000
  C   C62       1.0  0.52095  0.41317  0.35542  1.0000
  C   C63       1.0  0.57308  0.43848  0.34408  1.0000
  H   H59       1.0  0.45945  0.42154  0.37384  1.0000
  N   N21       1.0  0.59818  0.41303  0.35168  1.0000
  C   C64       1.0  0.43403  0.56627  0.34390  1.0000
  C   C65       1.0  0.48615  0.59159  0.35533  1.0000
  C   C66       1.0  0.51112  0.56455  0.35642  1.0000
  N   N22       1.0  0.40892  0.59172  0.35141  1.0000
  H   H60       1.0  0.54764  0.58320  0.37392  1.0000
  H   H61       1.0  0.42502  0.62622  0.36870  1.0000
  H   H62       1.0  0.58207  0.37852  0.36896  1.0000
  C   C67       1.0  0.56575  0.05701  0.35641  1.0000
  C   C68       1.0  0.59276  0.10902  0.35537  1.0000
  C   C69       1.0  0.56742  0.13580  0.34395  1.0000
  H   H63       1.0  0.58442  0.03916  0.37387  1.0000
  N   N23       1.0  0.59286  0.18636  0.35144  1.0000
  C   C70       1.0  0.43972  0.86895  0.34391  1.0000
  C   C71       1.0  0.41439  0.89574  0.35533  1.0000
  C   C72       1.0  0.44139  0.94775  0.35630  1.0000
  N   N24       1.0  0.41427  0.81839  0.35141  1.0000
  H   H64       1.0  0.42275  0.96562  0.37387  1.0000
  H   H65       1.0  0.37975  0.79998  0.36859  1.0000
  H   H66       1.0  0.62738  0.20478  0.36861  1.0000
  C   C73       1.0  0.28402  0.47166  0.41306  1.0000
  C   C74       1.0  0.33201  0.47829  0.40495  1.0000
  H   H67       1.0  0.35171  0.48181  0.46210  1.0000
  C   C75       1.0  0.21437  0.47324  0.34069  1.0000
  C   C76       1.0  0.13510  0.49195  0.35082  1.0000
  C   C77       1.0  0.15478  0.48358  0.42995  1.0000
  C   C78       1.0  0.19467  0.47431  0.42587  1.0000
  C   C79       1.0  0.21839  0.47090  0.50381  1.0000
  C   C80       1.0  0.26238  0.46907  0.49744  1.0000
  H   H68       1.0  0.20525  0.47226  0.56591  1.0000
  H   H69       1.0  0.28022  0.46936  0.55513  1.0000
  H   H70       1.0  0.14384  0.48985  0.49089  1.0000
  C   C81       1.0  0.53434  0.81356  0.41321  1.0000
  C   C82       1.0  0.52762  0.85486  0.40510  1.0000
  H   H71       1.0  0.52418  0.87106  0.46230  1.0000
  C   C83       1.0  0.53278  0.74235  0.34082  1.0000
  C   C84       1.0  0.51398  0.64433  0.35090  1.0000
  C   C85       1.0  0.52225  0.67234  0.43004  1.0000
  C   C86       1.0  0.53162  0.72153  0.42599  1.0000
  C   C87       1.0  0.53510  0.74868  0.50395  1.0000
  C   C88       1.0  0.53698  0.79453  0.49760  1.0000
  H   H72       1.0  0.53351  0.73408  0.56604  1.0000
  H   H73       1.0  0.53645  0.81195  0.55529  1.0000
  H   H74       1.0  0.51605  0.65517  0.49101  1.0000
  C   C89       1.0  0.19233  0.72200  0.41335  1.0000
  C   C90       1.0  0.15096  0.67402  0.40529  1.0000
  H   H75       1.0  0.13494  0.65432  0.46253  1.0000
  C   C91       1.0  0.26359  0.79160  0.34089  1.0000
  C   C92       1.0  0.36167  0.87086  0.35090  1.0000
  C   C93       1.0  0.33361  0.85109  0.43000  1.0000
  C   C94       1.0  0.28441  0.81128  0.42604  1.0000
  C   C95       1.0  0.25729  0.78762  0.50402  1.0000
  C   C96       1.0  0.21144  0.74366  0.49770  1.0000
  H   H76       1.0  0.27187  0.80072  0.56609  1.0000
  H   H77       1.0  0.19393  0.72580  0.55540  1.0000
  H   H78       1.0  0.35078  0.86207  0.49097  1.0000
  C   C97       1.0  0.72312  0.53314  0.41334  1.0000
  C   C98       1.0  0.67514  0.52653  0.40526  1.0000
  H   H79       1.0  0.65545  0.52301  0.46242  1.0000
  C   C99       1.0  0.79271  0.53145  0.34094  1.0000
  C   C100      1.0  0.87201  0.51272  0.35104  1.0000
  C   C101      1.0  0.85222  0.52097  0.43011  1.0000
  C   C102      1.0  0.81243  0.53039  0.42610  1.0000
  C   C103      1.0  0.78875  0.53387  0.50405  1.0000
  C   C104      1.0  0.74479  0.53575  0.49771  1.0000
  H   H80       1.0  0.80189  0.53248  0.56615  1.0000
  H   H81       1.0  0.72697  0.53549  0.55541  1.0000
  H   H82       1.0  0.86331  0.51490  0.49105  1.0000
  C   C105      1.0  0.47287  0.19124  0.41318  1.0000
  C   C106      1.0  0.47950  0.14988  0.40503  1.0000
  H   H83       1.0  0.48303  0.13370  0.46218  1.0000
  C   C107      1.0  0.47441  0.26245  0.34083  1.0000
  C   C108      1.0  0.49312  0.36043  0.35095  1.0000
  C   C109      1.0  0.48479  0.33240  0.43009  1.0000
  C   C110      1.0  0.47552  0.28324  0.42602  1.0000
  C   C111      1.0  0.47215  0.25612  0.50395  1.0000
  C   C112      1.0  0.47032  0.21030  0.49758  1.0000
  H   H84       1.0  0.47355  0.27064  0.56605  1.0000
  H   H85       1.0  0.47065  0.19277  0.55526  1.0000
  H   H86       1.0  0.49109  0.34962  0.49101  1.0000
  C   C113      1.0  0.81476  0.28279  0.41298  1.0000
  C   C114      1.0  0.85606  0.33081  0.40479  1.0000
  H   H87       1.0  0.87228  0.35045  0.46198  1.0000
  C   C115      1.0  0.74352  0.21312  0.34068  1.0000
  C   C116      1.0  0.64550  0.13391  0.35089  1.0000
  C   C117      1.0  0.67353  0.15368  0.42999  1.0000
  C   C118      1.0  0.72273  0.19350  0.42589  1.0000
  C   C119      1.0  0.74990  0.21720  0.50381  1.0000
  C   C120      1.0  0.79575  0.26116  0.49740  1.0000
  H   H88       1.0  0.73531  0.20420  0.56592  1.0000
  H   H89       1.0  0.81319  0.27912  0.55506  1.0000
  H   H90       1.0  0.65638  0.14274  0.49098  1.0000
