data_image0
_chemical_formula_structural       CH4CH4NC3N2HNC3N2HNC3N2HC29H17C3O3C29H17C3O3CNC2N2HCNC2N2HCNC2N2H
_chemical_formula_sum              "C84 H48 N18 O6"
_cell_length_a       44.6698
_cell_length_b       44.6699
_cell_length_c       15.0159
_cell_angle_alpha    90
_cell_angle_beta     90
_cell_angle_gamma    120

_space_group_name_H-M_alt    "P 1"
_space_group_IT_number       1

loop_
  _space_group_symop_operation_xyz
  'x, y, z'

loop_
  _atom_site_type_symbol
  _atom_site_label
  _atom_site_symmetry_multiplicity
  _atom_site_fract_x
  _atom_site_fract_y
  _atom_site_fract_z
  _atom_site_occupancy
  C   C1        1.0  0.40945  0.85375  0.31729  1.0000
  H   H1        1.0  0.39835  0.86899  0.31659  1.0000
  H   H2        1.0  0.36177  0.80812  0.30015  1.0000
  H   H3        1.0  0.46960  0.60033  0.31675  1.0000
  H   H4        1.0  0.12968  0.52911  0.31661  1.0000
  C   C2        1.0  0.58886  0.14520  0.34905  1.0000
  H   H5        1.0  0.59993  0.12993  0.34990  1.0000
  H   H6        1.0  0.63659  0.19082  0.36575  1.0000
  H   H7        1.0  0.52893  0.39870  0.34982  1.0000
  H   H8        1.0  0.86873  0.46975  0.34979  1.0000
  N   N1        1.0  0.51839  0.49563  0.27091  1.0000
  C   C3        1.0  0.50232  0.51356  0.24918  1.0000
  C   C4        1.0  0.48164  0.51754  0.31444  1.0000
  C   C5        1.0  0.50603  0.52495  0.16792  1.0000
  N   N2        1.0  0.50926  0.53489  0.09605  1.0000
  N   N3        1.0  0.46513  0.53617  0.30095  1.0000
  H   H9        1.0  0.47434  0.55361  0.25419  1.0000
  N   N4        1.0  0.50299  0.02249  0.27093  1.0000
  C   C6        1.0  0.48507  0.98849  0.24916  1.0000
  C   C7        1.0  0.48110  0.96382  0.31440  1.0000
  C   C8        1.0  0.47368  0.98081  0.16790  1.0000
  N   N5        1.0  0.46374  0.97411  0.09602  1.0000
  N   N6        1.0  0.46249  0.92869  0.30085  1.0000
  H   H10       1.0  0.44506  0.92046  0.25408  1.0000
  N   N7        1.0  0.97620  0.48028  0.27087  1.0000
  C   C9        1.0  0.01019  0.49636  0.24911  1.0000
  C   C10       1.0  0.03486  0.51704  0.31438  1.0000
  C   C11       1.0  0.01788  0.49262  0.16788  1.0000
  N   N8        1.0  0.02459  0.48937  0.09601  1.0000
  N   N9        1.0  0.06999  0.53359  0.30082  1.0000
  H   H11       1.0  0.07823  0.52438  0.25406  1.0000
  C   C12       1.0  0.44544  0.86838  0.33116  1.0000
  C   C13       1.0  0.45906  0.84581  0.33532  1.0000
  C   C14       1.0  0.43749  0.80989  0.32568  1.0000
  C   C15       1.0  0.40150  0.79542  0.31333  1.0000
  C   C16       1.0  0.38779  0.81781  0.30819  1.0000
  C   C17       1.0  0.37954  0.76000  0.30713  1.0000
  C   C18       1.0  0.37826  0.73764  0.36902  1.0000
  C   C19       1.0  0.35555  0.70238  0.36484  1.0000
  C   C20       1.0  0.31941  0.68893  0.36555  1.0000
  C   C21       1.0  0.29631  0.65290  0.36494  1.0000
  C   C22       1.0  0.30975  0.63020  0.36560  1.0000
  C   C23       1.0  0.34578  0.64313  0.36492  1.0000
  C   C24       1.0  0.36848  0.67928  0.36552  1.0000
  C   C25       1.0  0.35833  0.62043  0.36912  1.0000
  C   C26       1.0  0.37943  0.61915  0.30725  1.0000
  C   C27       1.0  0.39288  0.59719  0.31345  1.0000
  C   C28       1.0  0.42899  0.61090  0.30839  1.0000
  C   C29       1.0  0.37135  0.56120  0.32581  1.0000
  C   C30       1.0  0.38571  0.53963  0.33548  1.0000
  C   C31       1.0  0.42189  0.55324  0.33131  1.0000
  C   C32       1.0  0.44326  0.58923  0.31737  1.0000
  C   C33       1.0  0.26105  0.64036  0.36915  1.0000
  C   C34       1.0  0.23868  0.61926  0.30728  1.0000
  C   C35       1.0  0.20327  0.60581  0.31348  1.0000
  C   C36       1.0  0.18880  0.62735  0.32585  1.0000
  C   C37       1.0  0.18086  0.56971  0.30836  1.0000
  C   C38       1.0  0.14492  0.55544  0.31734  1.0000
  C   C39       1.0  0.13030  0.57681  0.33122  1.0000
  C   C40       1.0  0.15288  0.61300  0.33546  1.0000
  H   H12       1.0  0.48496  0.85533  0.34482  1.0000
  H   H13       1.0  0.44827  0.79436  0.32890  1.0000
  H   H14       1.0  0.39468  0.68885  0.36726  1.0000
  H   H15       1.0  0.30984  0.70556  0.36729  1.0000
  H   H16       1.0  0.29313  0.60401  0.36738  1.0000
  H   H17       1.0  0.20433  0.65364  0.32907  1.0000
  H   H18       1.0  0.44531  0.63691  0.30026  1.0000
  H   H19       1.0  0.36933  0.51374  0.34498  1.0000
  H   H20       1.0  0.34506  0.55042  0.32900  1.0000
  H   H21       1.0  0.14337  0.62938  0.34496  1.0000
  H   H22       1.0  0.19055  0.55339  0.30021  1.0000
  H   H23       1.0  0.38718  0.63568  0.25642  1.0000
  H   H24       1.0  0.35087  0.60424  0.42064  1.0000
  H   H25       1.0  0.36300  0.75123  0.25634  1.0000
  H   H26       1.0  0.39446  0.74636  0.42053  1.0000
  H   H27       1.0  0.24745  0.61150  0.25647  1.0000
  H   H28       1.0  0.25233  0.64783  0.42065  1.0000
  C   C41       1.0  0.09410  0.56239  0.34456  1.0000
  C   C42       1.0  0.43633  0.53148  0.34472  1.0000
  C   C43       1.0  0.46721  0.90458  0.34453  1.0000
  O   O1        1.0  0.41909  0.50397  0.39964  1.0000
  O   O2        1.0  0.49468  0.91484  0.39962  1.0000
  O   O3        1.0  0.08384  0.57959  0.39968  1.0000
  C   C44       1.0  0.55288  0.13060  0.33518  1.0000
  C   C45       1.0  0.53932  0.15321  0.33068  1.0000
  C   C46       1.0  0.56093  0.18914  0.33997  1.0000
  C   C47       1.0  0.59692  0.20358  0.35227  1.0000
  C   C48       1.0  0.61057  0.18114  0.35774  1.0000
  C   C49       1.0  0.61892  0.23900  0.35811  1.0000
  C   C50       1.0  0.62020  0.26130  0.29601  1.0000
  C   C51       1.0  0.64289  0.29656  0.30003  1.0000
  C   C52       1.0  0.67904  0.31002  0.29936  1.0000
  C   C53       1.0  0.70212  0.34606  0.30001  1.0000
  C   C54       1.0  0.68865  0.36873  0.29935  1.0000
  C   C55       1.0  0.65262  0.35578  0.30000  1.0000
  C   C56       1.0  0.62994  0.31964  0.29936  1.0000
  C   C57       1.0  0.64004  0.37847  0.29598  1.0000
  C   C58       1.0  0.61903  0.37975  0.35809  1.0000
  C   C59       1.0  0.60560  0.40174  0.35223  1.0000
  C   C60       1.0  0.56951  0.38808  0.35770  1.0000
  C   C61       1.0  0.62715  0.43773  0.33993  1.0000
  C   C62       1.0  0.61282  0.45934  0.33064  1.0000
  C   C63       1.0  0.57665  0.44577  0.33513  1.0000
  C   C64       1.0  0.55526  0.40978  0.34902  1.0000
  C   C65       1.0  0.73738  0.35863  0.29598  1.0000
  C   C66       1.0  0.75968  0.37965  0.35807  1.0000
  C   C67       1.0  0.79510  0.39308  0.35219  1.0000
  C   C68       1.0  0.80955  0.37153  0.33990  1.0000
  C   C69       1.0  0.81753  0.42918  0.35758  1.0000
  C   C70       1.0  0.85347  0.44342  0.34891  1.0000
  C   C71       1.0  0.86808  0.42203  0.33508  1.0000
  C   C72       1.0  0.84548  0.38586  0.33061  1.0000
  H   H29       1.0  0.51342  0.14372  0.32118  1.0000
  H   H30       1.0  0.55019  0.20469  0.33651  1.0000
  H   H31       1.0  0.60374  0.31005  0.29766  1.0000
  H   H32       1.0  0.68863  0.29341  0.29767  1.0000
  H   H33       1.0  0.70526  0.39493  0.29765  1.0000
  H   H34       1.0  0.79400  0.34524  0.33649  1.0000
  H   H35       1.0  0.55317  0.36206  0.36570  1.0000
  H   H36       1.0  0.62922  0.48523  0.32115  1.0000
  H   H37       1.0  0.65344  0.44848  0.33650  1.0000
  H   H38       1.0  0.85497  0.36946  0.32113  1.0000
  H   H39       1.0  0.80785  0.44551  0.36569  1.0000
  H   H40       1.0  0.61133  0.36322  0.40891  1.0000
  H   H41       1.0  0.64747  0.39467  0.24451  1.0000
  H   H42       1.0  0.63544  0.24783  0.40895  1.0000
  H   H43       1.0  0.60400  0.25251  0.24452  1.0000
  H   H44       1.0  0.75085  0.38734  0.40891  1.0000
  H   H45       1.0  0.74616  0.35121  0.24449  1.0000
  C   C73       1.0  0.90429  0.43644  0.32193  1.0000
  C   C74       1.0  0.56225  0.46758  0.32199  1.0000
  C   C75       1.0  0.53106  0.09440  0.32203  1.0000
  O   O4        1.0  0.57943  0.49504  0.26690  1.0000
  O   O5        1.0  0.50360  0.08412  0.26694  1.0000
  O   O6        1.0  0.91457  0.41923  0.26691  1.0000
  C   C76       1.0  0.51689  0.48146  0.35224  1.0000
  N   N10       1.0  0.48015  0.50338  0.39579  1.0000
  C   C77       1.0  0.49622  0.48544  0.41752  1.0000
  C   C78       1.0  0.49254  0.47408  0.49880  1.0000
  N   N11       1.0  0.48934  0.46417  0.57070  1.0000
  N   N12       1.0  0.53344  0.46286  0.36576  1.0000
  H   H46       1.0  0.52424  0.44542  0.41252  1.0000
  C   C79       1.0  0.51717  0.03516  0.35226  1.0000
  N   N13       1.0  0.49526  0.97649  0.39574  1.0000
  C   C80       1.0  0.51318  0.01049  0.41751  1.0000
  C   C81       1.0  0.52458  0.01816  0.49877  1.0000
  N   N14       1.0  0.53452  0.02487  0.57065  1.0000
  N   N15       1.0  0.53576  0.07029  0.36581  1.0000
  H   H47       1.0  0.55320  0.07853  0.41256  1.0000
  C   C82       1.0  0.96352  0.48178  0.35219  1.0000
  N   N16       1.0  0.02218  0.51855  0.39570  1.0000
  C   C83       1.0  0.98819  0.50247  0.41745  1.0000
  C   C84       1.0  0.98050  0.50620  0.49869  1.0000
  N   N17       1.0  0.97378  0.50945  0.57054  1.0000
  N   N18       1.0  0.92838  0.46524  0.36571  1.0000
  H   H48       1.0  0.92014  0.47444  0.41246  1.0000
