data_image0
_chemical_formula_structural       C2H3C3H3CHC2H3C3H3CH3C3H2NC3H2NHCH3C2HCH5CH3C2HCH4C4H2CHC4H3CH3CHC3H3CHCHN2C6H3N3C4H3CH3CHC4H2C3H3C4H2CHC4H3CH3CHC3H3CHCHN2C6H3N3C4H3CH3CHC4H2C3H3C4H3CH3CHC4H3CH3CHC4H2CH3CHC6H3N3C6H3N3C4H3CH3CHC4H3CH3CHC4H3CH3CHC4H3CH3CHC4H3CH3CHC4H2CH3CHC6H3N3C6H3N3C4H3CH3CHC4H3CH3CHC4H3CH3CH
_chemical_formula_sum              "C192 H192 N24"
_cell_length_a       45.8869
_cell_length_b       45.8869
_cell_length_c       14.8719
_cell_angle_alpha    90
_cell_angle_beta     90
_cell_angle_gamma    120

_space_group_name_H-M_alt    "P 1"
_space_group_IT_number       1

loop_
  _space_group_symop_operation_xyz
  'x, y, z'

loop_
  _atom_site_type_symbol
  _atom_site_label
  _atom_site_symmetry_multiplicity
  _atom_site_fract_x
  _atom_site_fract_y
  _atom_site_fract_z
  _atom_site_occupancy
  C   C1        1.0  0.03067  0.28664  0.32038  1.0000
  C   C2        1.0  0.05336  0.31861  0.27077  1.0000
  H   H1        1.0  0.06917  0.31475  0.22298  1.0000
  H   H2        1.0  0.06921  0.33840  0.31820  1.0000
  H   H3        1.0  0.03960  0.32750  0.23008  1.0000
  C   C3        1.0  0.04236  0.26422  0.34606  1.0000
  C   C4        1.0  0.01767  0.23034  0.36839  1.0000
  C   C5        1.0  0.02791  0.20810  0.41681  1.0000
  H   H4        1.0  0.04646  0.22227  0.46885  1.0000
  H   H5        1.0  0.03867  0.19793  0.36930  1.0000
  H   H6        1.0  0.00717  0.18724  0.45223  1.0000
  C   C6        1.0  0.07730  0.27430  0.34888  1.0000
  H   H7        1.0  0.08392  0.25624  0.35468  1.0000
  C   C7        1.0  0.03067  0.78664  0.32038  1.0000
  C   C8        1.0  0.05336  0.81861  0.27077  1.0000
  H   H8        1.0  0.06917  0.81475  0.22298  1.0000
  H   H9        1.0  0.06921  0.83840  0.31820  1.0000
  H   H10       1.0  0.03960  0.82750  0.23008  1.0000
  C   C9        1.0  0.04236  0.76422  0.34606  1.0000
  C   C10       1.0  0.01767  0.73034  0.36839  1.0000
  C   C11       1.0  0.02792  0.70810  0.41681  1.0000
  H   H11       1.0  0.04646  0.72227  0.46885  1.0000
  H   H12       1.0  0.03867  0.69793  0.36930  1.0000
  H   H13       1.0  0.00717  0.68724  0.45223  1.0000
  C   C12       1.0  0.07730  0.77430  0.34888  1.0000
  H   H14       1.0  0.08392  0.75624  0.35468  1.0000
  H   H15       1.0  0.00775  0.32886  0.34799  1.0000
  H   H16       1.0  0.00775  0.82886  0.34799  1.0000
  C   C13       1.0  0.15460  0.30236  0.34992  1.0000
  C   C14       1.0  0.13730  0.32068  0.34994  1.0000
  C   C15       1.0  0.15639  0.35619  0.34995  1.0000
  H   H17       1.0  0.14402  0.36953  0.34913  1.0000
  H   H18       1.0  0.14126  0.27665  0.34910  1.0000
  N   N1        1.0  0.10324  0.30645  0.34839  1.0000
  C   C16       1.0  0.15460  0.80236  0.34992  1.0000
  C   C17       1.0  0.13730  0.82068  0.34994  1.0000
  C   C18       1.0  0.15639  0.85619  0.34995  1.0000
  H   H19       1.0  0.14401  0.86953  0.34913  1.0000
  H   H20       1.0  0.14126  0.77665  0.34910  1.0000
  N   N2        1.0  0.10324  0.80645  0.34839  1.0000
  H   H21       1.0  0.18193  0.18106  0.34736  1.0000
  C   C19       1.0  0.19224  0.23697  0.27036  1.0000
  H   H22       1.0  0.19613  0.25668  0.22267  1.0000
  H   H23       1.0  0.17241  0.23298  0.31769  1.0000
  H   H24       1.0  0.18339  0.21435  0.22953  1.0000
  C   C20       1.0  0.19011  0.31878  0.34986  1.0000
  C   C21       1.0  0.19201  0.37349  0.34989  1.0000
  H   H25       1.0  0.20324  0.03845  0.33099  1.0000
  C   C22       1.0  0.18888  0.48288  0.41707  1.0000
  H   H26       1.0  0.18456  0.46434  0.46907  1.0000
  H   H27       1.0  0.16789  0.47212  0.36972  1.0000
  H   H28       1.0  0.18879  0.50363  0.45259  1.0000
  H   H29       1.0  0.18094  0.42687  0.35474  1.0000
  H   H30       1.0  0.18193  0.68107  0.34736  1.0000
  C   C23       1.0  0.19224  0.73697  0.27036  1.0000
  H   H31       1.0  0.19613  0.75669  0.22267  1.0000
  H   H32       1.0  0.17241  0.73298  0.31769  1.0000
  H   H33       1.0  0.18339  0.71435  0.22953  1.0000
  C   C24       1.0  0.19011  0.81878  0.34986  1.0000
  C   C25       1.0  0.19201  0.87349  0.34989  1.0000
  H   H34       1.0  0.20325  0.53845  0.33099  1.0000
  C   C26       1.0  0.18887  0.98288  0.41707  1.0000
  H   H35       1.0  0.18456  0.96434  0.46907  1.0000
  H   H36       1.0  0.16789  0.97212  0.36972  1.0000
  H   H37       1.0  0.18879  0.00363  0.45259  1.0000
  H   H38       1.0  0.18095  0.92687  0.35474  1.0000
  C   C27       1.0  0.26894  0.23143  0.34067  1.0000
  C   C28       1.0  0.23402  0.22142  0.33171  1.0000
  C   C29       1.0  0.22417  0.24622  0.32013  1.0000
  C   C30       1.0  0.20717  0.18498  0.33738  1.0000
  H   H39       1.0  0.21170  0.17318  0.39533  1.0000
  H   H40       1.0  0.20712  0.17181  0.27618  1.0000
  C   C31       1.0  0.27885  0.20637  0.33818  1.0000
  H   H41       1.0  0.26095  0.18197  0.32738  1.0000
  C   C32       1.0  0.27936  0.03967  0.34051  1.0000
  C   C33       1.0  0.28937  0.01476  0.33153  1.0000
  C   C34       1.0  0.26456  0.48011  0.31998  1.0000
  C   C35       1.0  0.32581  0.02435  0.33710  1.0000
  H   H42       1.0  0.33763  0.04068  0.39505  1.0000
  H   H43       1.0  0.33895  0.03748  0.27588  1.0000
  H   H44       1.0  0.32973  0.00303  0.34701  1.0000
  C   C36       1.0  0.27379  0.45742  0.27017  1.0000
  H   H45       1.0  0.25406  0.44159  0.22254  1.0000
  H   H46       1.0  0.27781  0.44159  0.31748  1.0000
  H   H47       1.0  0.29639  0.47119  0.22926  1.0000
  C   C37       1.0  0.30441  0.07464  0.33803  1.0000
  H   H48       1.0  0.32881  0.08114  0.32727  1.0000
  C   C38       1.0  0.47111  0.24185  0.34076  1.0000
  C   C39       1.0  0.49601  0.27678  0.33198  1.0000
  C   C40       1.0  0.48642  0.30362  0.33786  1.0000
  H   H49       1.0  0.47008  0.29904  0.39581  1.0000
  H   H50       1.0  0.47332  0.30373  0.27668  1.0000
  H   H51       1.0  0.50775  0.32886  0.34799  1.0000
  C   C41       1.0  0.43614  0.23194  0.33828  1.0000
  H   H52       1.0  0.42964  0.24984  0.32758  1.0000
  C   C42       1.0  0.20843  0.35440  0.34991  1.0000
  H   H53       1.0  0.23414  0.36678  0.34901  1.0000
  N   N3        1.0  0.20435  0.29896  0.34829  1.0000
  N   N4        1.0  0.21184  0.40755  0.34827  1.0000
  C   C43       1.0  0.32377  0.19074  0.34710  1.0000
  C   C44       1.0  0.35923  0.20623  0.34735  1.0000
  C   C45       1.0  0.37559  0.18701  0.34708  1.0000
  C   C46       1.0  0.35562  0.15156  0.34726  1.0000
  C   C47       1.0  0.32004  0.13519  0.34702  1.0000
  C   C48       1.0  0.30456  0.15516  0.34727  1.0000
  H   H54       1.0  0.36733  0.13757  0.34728  1.0000
  H   H55       1.0  0.27887  0.14346  0.34730  1.0000
  H   H56       1.0  0.37321  0.23192  0.34742  1.0000
  N   N5        1.0  0.31047  0.21139  0.34586  1.0000
  N   N6        1.0  0.40955  0.20032  0.34586  1.0000
  N   N7        1.0  0.29939  0.10124  0.34573  1.0000
  C   C49       1.0  0.24658  0.28031  0.34598  1.0000
  C   C50       1.0  0.28044  0.28949  0.36845  1.0000
  C   C51       1.0  0.29244  0.26660  0.35176  1.0000
  C   C52       1.0  0.32955  0.28036  0.34061  1.0000
  H   H57       1.0  0.34383  0.30754  0.33109  1.0000
  H   H58       1.0  0.33437  0.27001  0.28006  1.0000
  H   H59       1.0  0.33971  0.27416  0.39925  1.0000
  C   C53       1.0  0.30263  0.32193  0.41711  1.0000
  H   H60       1.0  0.28841  0.32625  0.46909  1.0000
  H   H61       1.0  0.31285  0.34290  0.36973  1.0000
  H   H62       1.0  0.32346  0.32201  0.45265  1.0000
  C   C54       1.0  0.23650  0.30517  0.34881  1.0000
  H   H63       1.0  0.25455  0.32985  0.35473  1.0000
  C   C55       1.0  0.23048  0.46843  0.34591  1.0000
  C   C56       1.0  0.22131  0.49312  0.36837  1.0000
  C   C57       1.0  0.24419  0.02800  0.35162  1.0000
  C   C58       1.0  0.23043  0.05135  0.34049  1.0000
  H   H64       1.0  0.24077  0.06653  0.27994  1.0000
  H   H65       1.0  0.23662  0.06770  0.39914  1.0000
  C   C59       1.0  0.20562  0.43349  0.34879  1.0000
  C   C60       1.0  0.48278  0.21835  0.35167  1.0000
  C   C61       1.0  0.45945  0.18125  0.34027  1.0000
  H   H66       1.0  0.47235  0.16698  0.33059  1.0000
  H   H67       1.0  0.44428  0.17648  0.27974  1.0000
  H   H68       1.0  0.44309  0.17103  0.39889  1.0000
  C   C62       1.0  0.26894  0.73143  0.34067  1.0000
  C   C63       1.0  0.23402  0.72142  0.33171  1.0000
  C   C64       1.0  0.22417  0.74622  0.32013  1.0000
  C   C65       1.0  0.20717  0.68498  0.33738  1.0000
  H   H69       1.0  0.21170  0.67318  0.39533  1.0000
  H   H70       1.0  0.20712  0.67181  0.27618  1.0000
  C   C66       1.0  0.27885  0.70637  0.33818  1.0000
  H   H71       1.0  0.26095  0.68197  0.32738  1.0000
  C   C67       1.0  0.27936  0.53967  0.34051  1.0000
  C   C68       1.0  0.28937  0.51476  0.33153  1.0000
  C   C69       1.0  0.26456  0.98011  0.31998  1.0000
  C   C70       1.0  0.32581  0.52436  0.33710  1.0000
  H   H72       1.0  0.33763  0.54068  0.39505  1.0000
  H   H73       1.0  0.33895  0.53748  0.27588  1.0000
  H   H74       1.0  0.32973  0.50303  0.34701  1.0000
  C   C71       1.0  0.27379  0.95743  0.27017  1.0000
  H   H75       1.0  0.25406  0.94159  0.22254  1.0000
  H   H76       1.0  0.27781  0.94159  0.31748  1.0000
  H   H77       1.0  0.29639  0.97119  0.22926  1.0000
  C   C72       1.0  0.30442  0.57464  0.33803  1.0000
  H   H78       1.0  0.32881  0.58114  0.32727  1.0000
  C   C73       1.0  0.47111  0.74185  0.34076  1.0000
  C   C74       1.0  0.49602  0.77678  0.33198  1.0000
  C   C75       1.0  0.48642  0.80362  0.33786  1.0000
  H   H79       1.0  0.47008  0.79904  0.39581  1.0000
  H   H80       1.0  0.47332  0.80373  0.27668  1.0000
  H   H81       1.0  0.50775  0.82886  0.34799  1.0000
  C   C76       1.0  0.43614  0.73194  0.33828  1.0000
  H   H82       1.0  0.42964  0.74984  0.32758  1.0000
  C   C77       1.0  0.20843  0.85440  0.34991  1.0000
  H   H83       1.0  0.23415  0.86678  0.34901  1.0000
  N   N8        1.0  0.20435  0.79896  0.34829  1.0000
  N   N9        1.0  0.21184  0.90755  0.34827  1.0000
  C   C78       1.0  0.32378  0.69075  0.34710  1.0000
  C   C79       1.0  0.35923  0.70623  0.34735  1.0000
  C   C80       1.0  0.37559  0.68701  0.34708  1.0000
  C   C81       1.0  0.35562  0.65156  0.34726  1.0000
  C   C82       1.0  0.32004  0.63519  0.34702  1.0000
  C   C83       1.0  0.30456  0.65516  0.34727  1.0000
  H   H84       1.0  0.36733  0.63757  0.34728  1.0000
  H   H85       1.0  0.27887  0.64346  0.34730  1.0000
  H   H86       1.0  0.37321  0.73192  0.34742  1.0000
  N   N10       1.0  0.31047  0.71139  0.34586  1.0000
  N   N11       1.0  0.40955  0.70032  0.34586  1.0000
  N   N12       1.0  0.29939  0.60123  0.34573  1.0000
  C   C84       1.0  0.24658  0.78031  0.34598  1.0000
  C   C85       1.0  0.28044  0.78949  0.36845  1.0000
  C   C86       1.0  0.29244  0.76660  0.35176  1.0000
  C   C87       1.0  0.32955  0.78036  0.34061  1.0000
  H   H87       1.0  0.34383  0.80754  0.33109  1.0000
  H   H88       1.0  0.33437  0.77001  0.28006  1.0000
  H   H89       1.0  0.33971  0.77416  0.39925  1.0000
  C   C88       1.0  0.30263  0.82193  0.41711  1.0000
  H   H90       1.0  0.28841  0.82626  0.46909  1.0000
  H   H91       1.0  0.31285  0.84290  0.36973  1.0000
  H   H92       1.0  0.32346  0.82201  0.45265  1.0000
  C   C89       1.0  0.23650  0.80517  0.34881  1.0000
  H   H93       1.0  0.25455  0.82985  0.35473  1.0000
  C   C90       1.0  0.23048  0.96843  0.34591  1.0000
  C   C91       1.0  0.22131  0.99312  0.36837  1.0000
  C   C92       1.0  0.24419  0.52800  0.35162  1.0000
  C   C93       1.0  0.23043  0.55135  0.34049  1.0000
  H   H94       1.0  0.24077  0.56653  0.27994  1.0000
  H   H95       1.0  0.23662  0.56770  0.39914  1.0000
  C   C94       1.0  0.20562  0.93349  0.34879  1.0000
  C   C95       1.0  0.48279  0.71835  0.35167  1.0000
  C   C96       1.0  0.45944  0.68125  0.34027  1.0000
  H   H96       1.0  0.47235  0.66699  0.33059  1.0000
  H   H97       1.0  0.44428  0.67648  0.27974  1.0000
  H   H98       1.0  0.44309  0.67103  0.39889  1.0000
  C   C97       1.0  0.76894  0.23143  0.34067  1.0000
  C   C98       1.0  0.73402  0.22142  0.33171  1.0000
  C   C99       1.0  0.72417  0.24622  0.32013  1.0000
  C   C100      1.0  0.70717  0.18498  0.33738  1.0000
  H   H99       1.0  0.71170  0.17318  0.39533  1.0000
  H   H100      1.0  0.70712  0.17181  0.27618  1.0000
  H   H101      1.0  0.68193  0.18106  0.34736  1.0000
  C   C101      1.0  0.69224  0.23697  0.27036  1.0000
  H   H102      1.0  0.69613  0.25668  0.22267  1.0000
  H   H103      1.0  0.67241  0.23298  0.31769  1.0000
  H   H104      1.0  0.68339  0.21435  0.22953  1.0000
  C   C102      1.0  0.77885  0.20637  0.33818  1.0000
  H   H105      1.0  0.76095  0.18197  0.32738  1.0000
  C   C103      1.0  0.77935  0.03967  0.34051  1.0000
  C   C104      1.0  0.78937  0.01476  0.33153  1.0000
  C   C105      1.0  0.76456  0.48011  0.31998  1.0000
  C   C106      1.0  0.82581  0.02435  0.33710  1.0000
  H   H106      1.0  0.83763  0.04068  0.39505  1.0000
  H   H107      1.0  0.83896  0.03748  0.27588  1.0000
  H   H108      1.0  0.82973  0.00303  0.34701  1.0000
  C   C107      1.0  0.77379  0.45742  0.27017  1.0000
  H   H109      1.0  0.75406  0.44159  0.22254  1.0000
  H   H110      1.0  0.77781  0.44159  0.31748  1.0000
  H   H111      1.0  0.79639  0.47119  0.22926  1.0000
  C   C108      1.0  0.80442  0.07464  0.33803  1.0000
  H   H112      1.0  0.82881  0.08114  0.32727  1.0000
  C   C109      1.0  0.97111  0.24185  0.34076  1.0000
  C   C110      1.0  0.99602  0.27678  0.33198  1.0000
  C   C111      1.0  0.53067  0.28664  0.32038  1.0000
  C   C112      1.0  0.98642  0.30362  0.33786  1.0000
  H   H113      1.0  0.97008  0.29904  0.39581  1.0000
  H   H114      1.0  0.97332  0.30373  0.27668  1.0000
  C   C113      1.0  0.55336  0.31861  0.27077  1.0000
  H   H115      1.0  0.56917  0.31475  0.22298  1.0000
  H   H116      1.0  0.56921  0.33840  0.31820  1.0000
  H   H117      1.0  0.53960  0.32750  0.23008  1.0000
  C   C114      1.0  0.93614  0.23194  0.33828  1.0000
  H   H118      1.0  0.92964  0.24984  0.32758  1.0000
  C   C115      1.0  0.69011  0.31878  0.34986  1.0000
  C   C116      1.0  0.65460  0.30236  0.34992  1.0000
  C   C117      1.0  0.63730  0.32068  0.34994  1.0000
  C   C118      1.0  0.65639  0.35619  0.34995  1.0000
  C   C119      1.0  0.69201  0.37349  0.34989  1.0000
  C   C120      1.0  0.70843  0.35440  0.34991  1.0000
  H   H119      1.0  0.64402  0.36953  0.34913  1.0000
  H   H120      1.0  0.73415  0.36678  0.34901  1.0000
  H   H121      1.0  0.64126  0.27665  0.34910  1.0000
  N   N13       1.0  0.70435  0.29896  0.34829  1.0000
  N   N14       1.0  0.60324  0.30645  0.34839  1.0000
  N   N15       1.0  0.71184  0.40755  0.34827  1.0000
  C   C121      1.0  0.82378  0.19074  0.34710  1.0000
  C   C122      1.0  0.85923  0.20623  0.34735  1.0000
  C   C123      1.0  0.87559  0.18701  0.34708  1.0000
  C   C124      1.0  0.85562  0.15156  0.34726  1.0000
  C   C125      1.0  0.82004  0.13519  0.34702  1.0000
  C   C126      1.0  0.80456  0.15516  0.34727  1.0000
  H   H122      1.0  0.86733  0.13757  0.34728  1.0000
  H   H123      1.0  0.77887  0.14346  0.34730  1.0000
  H   H124      1.0  0.87321  0.23192  0.34742  1.0000
  N   N16       1.0  0.81047  0.21139  0.34586  1.0000
  N   N17       1.0  0.90955  0.20032  0.34586  1.0000
  N   N18       1.0  0.79939  0.10124  0.34573  1.0000
  C   C127      1.0  0.74658  0.28031  0.34598  1.0000
  C   C128      1.0  0.78044  0.28949  0.36845  1.0000
  C   C129      1.0  0.79244  0.26660  0.35176  1.0000
  C   C130      1.0  0.82955  0.28036  0.34061  1.0000
  H   H125      1.0  0.84383  0.30754  0.33109  1.0000
  H   H126      1.0  0.83437  0.27001  0.28006  1.0000
  H   H127      1.0  0.83971  0.27416  0.39925  1.0000
  C   C131      1.0  0.80263  0.32193  0.41711  1.0000
  H   H128      1.0  0.78841  0.32625  0.46909  1.0000
  H   H129      1.0  0.81285  0.34290  0.36973  1.0000
  H   H130      1.0  0.82346  0.32201  0.45265  1.0000
  C   C132      1.0  0.73650  0.30517  0.34881  1.0000
  H   H131      1.0  0.75455  0.32985  0.35473  1.0000
  C   C133      1.0  0.73048  0.46843  0.34591  1.0000
  C   C134      1.0  0.72131  0.49312  0.36837  1.0000
  C   C135      1.0  0.74419  0.02800  0.35162  1.0000
  C   C136      1.0  0.73043  0.05135  0.34049  1.0000
  H   H132      1.0  0.70324  0.03845  0.33099  1.0000
  H   H133      1.0  0.74077  0.06653  0.27994  1.0000
  H   H134      1.0  0.73662  0.06770  0.39914  1.0000
  C   C137      1.0  0.68888  0.48288  0.41707  1.0000
  H   H135      1.0  0.68456  0.46434  0.46907  1.0000
  H   H136      1.0  0.66790  0.47212  0.36972  1.0000
  H   H137      1.0  0.68879  0.50363  0.45259  1.0000
  C   C138      1.0  0.70562  0.43349  0.34879  1.0000
  H   H138      1.0  0.68095  0.42687  0.35474  1.0000
  C   C139      1.0  0.54236  0.26422  0.34606  1.0000
  C   C140      1.0  0.51767  0.23034  0.36839  1.0000
  C   C141      1.0  0.98279  0.21835  0.35167  1.0000
  C   C142      1.0  0.95944  0.18125  0.34027  1.0000
  H   H139      1.0  0.97235  0.16698  0.33059  1.0000
  H   H140      1.0  0.94428  0.17648  0.27974  1.0000
  H   H141      1.0  0.94309  0.17103  0.39889  1.0000
  C   C143      1.0  0.52792  0.20810  0.41681  1.0000
  H   H142      1.0  0.54646  0.22227  0.46885  1.0000
  H   H143      1.0  0.53867  0.19793  0.36930  1.0000
  H   H144      1.0  0.50717  0.18724  0.45223  1.0000
  C   C144      1.0  0.57730  0.27430  0.34888  1.0000
  H   H145      1.0  0.58392  0.25624  0.35468  1.0000
  C   C145      1.0  0.76894  0.73143  0.34067  1.0000
  C   C146      1.0  0.73402  0.72142  0.33171  1.0000
  C   C147      1.0  0.72417  0.74622  0.32013  1.0000
  C   C148      1.0  0.70717  0.68498  0.33738  1.0000
  H   H146      1.0  0.71170  0.67318  0.39533  1.0000
  H   H147      1.0  0.70712  0.67181  0.27618  1.0000
  H   H148      1.0  0.68193  0.68107  0.34736  1.0000
  C   C149      1.0  0.69224  0.73697  0.27036  1.0000
  H   H149      1.0  0.69613  0.75669  0.22267  1.0000
  H   H150      1.0  0.67241  0.73298  0.31769  1.0000
  H   H151      1.0  0.68339  0.71435  0.22953  1.0000
  C   C150      1.0  0.77885  0.70637  0.33818  1.0000
  H   H152      1.0  0.76096  0.68197  0.32738  1.0000
  C   C151      1.0  0.77936  0.53967  0.34051  1.0000
  C   C152      1.0  0.78937  0.51476  0.33153  1.0000
  C   C153      1.0  0.76456  0.98011  0.31998  1.0000
  C   C154      1.0  0.82581  0.52436  0.33710  1.0000
  H   H153      1.0  0.83763  0.54068  0.39505  1.0000
  H   H154      1.0  0.83895  0.53748  0.27588  1.0000
  H   H155      1.0  0.82973  0.50303  0.34701  1.0000
  C   C155      1.0  0.77379  0.95743  0.27017  1.0000
  H   H156      1.0  0.75406  0.94159  0.22254  1.0000
  H   H157      1.0  0.77781  0.94159  0.31748  1.0000
  H   H158      1.0  0.79639  0.97119  0.22926  1.0000
  C   C156      1.0  0.80442  0.57464  0.33803  1.0000
  H   H159      1.0  0.82881  0.58114  0.32727  1.0000
  C   C157      1.0  0.97111  0.74185  0.34076  1.0000
  C   C158      1.0  0.99602  0.77678  0.33198  1.0000
  C   C159      1.0  0.53067  0.78664  0.32038  1.0000
  C   C160      1.0  0.98642  0.80362  0.33786  1.0000
  H   H160      1.0  0.97008  0.79904  0.39581  1.0000
  H   H161      1.0  0.97332  0.80373  0.27668  1.0000
  C   C161      1.0  0.55336  0.81861  0.27077  1.0000
  H   H162      1.0  0.56917  0.81475  0.22298  1.0000
  H   H163      1.0  0.56921  0.83840  0.31820  1.0000
  H   H164      1.0  0.53960  0.82750  0.23008  1.0000
  C   C162      1.0  0.93614  0.73194  0.33828  1.0000
  H   H165      1.0  0.92964  0.74984  0.32758  1.0000
  C   C163      1.0  0.69011  0.81878  0.34986  1.0000
  C   C164      1.0  0.65460  0.80236  0.34992  1.0000
  C   C165      1.0  0.63730  0.82068  0.34994  1.0000
  C   C166      1.0  0.65639  0.85619  0.34995  1.0000
  C   C167      1.0  0.69201  0.87349  0.34989  1.0000
  C   C168      1.0  0.70843  0.85440  0.34991  1.0000
  H   H166      1.0  0.64402  0.86953  0.34913  1.0000
  H   H167      1.0  0.73415  0.86678  0.34901  1.0000
  H   H168      1.0  0.64126  0.77665  0.34910  1.0000
  N   N19       1.0  0.70435  0.79896  0.34829  1.0000
  N   N20       1.0  0.60324  0.80645  0.34839  1.0000
  N   N21       1.0  0.71184  0.90755  0.34827  1.0000
  C   C169      1.0  0.82378  0.69075  0.34710  1.0000
  C   C170      1.0  0.85923  0.70623  0.34735  1.0000
  C   C171      1.0  0.87559  0.68701  0.34708  1.0000
  C   C172      1.0  0.85562  0.65156  0.34726  1.0000
  C   C173      1.0  0.82004  0.63519  0.34702  1.0000
  C   C174      1.0  0.80456  0.65516  0.34727  1.0000
  H   H169      1.0  0.86733  0.63757  0.34728  1.0000
  H   H170      1.0  0.77887  0.64346  0.34730  1.0000
  H   H171      1.0  0.87322  0.73192  0.34742  1.0000
  N   N22       1.0  0.81047  0.71139  0.34586  1.0000
  N   N23       1.0  0.90955  0.70032  0.34586  1.0000
  N   N24       1.0  0.79939  0.60123  0.34573  1.0000
  C   C175      1.0  0.74657  0.78031  0.34598  1.0000
  C   C176      1.0  0.78045  0.78949  0.36845  1.0000
  C   C177      1.0  0.79244  0.76660  0.35176  1.0000
  C   C178      1.0  0.82955  0.78036  0.34061  1.0000
  H   H172      1.0  0.84383  0.80754  0.33109  1.0000
  H   H173      1.0  0.83438  0.77001  0.28006  1.0000
  H   H174      1.0  0.83971  0.77416  0.39925  1.0000
  C   C179      1.0  0.80263  0.82193  0.41711  1.0000
  H   H175      1.0  0.78841  0.82626  0.46909  1.0000
  H   H176      1.0  0.81285  0.84290  0.36973  1.0000
  H   H177      1.0  0.82346  0.82201  0.45265  1.0000
  C   C180      1.0  0.73650  0.80517  0.34881  1.0000
  H   H178      1.0  0.75455  0.82985  0.35473  1.0000
  C   C181      1.0  0.73048  0.96843  0.34591  1.0000
  C   C182      1.0  0.72131  0.99312  0.36837  1.0000
  C   C183      1.0  0.74419  0.52800  0.35162  1.0000
  C   C184      1.0  0.73043  0.55135  0.34049  1.0000
  H   H179      1.0  0.70325  0.53845  0.33099  1.0000
  H   H180      1.0  0.74077  0.56653  0.27994  1.0000
  H   H181      1.0  0.73662  0.56770  0.39914  1.0000
  C   C185      1.0  0.68888  0.98288  0.41707  1.0000
  H   H182      1.0  0.68456  0.96434  0.46907  1.0000
  H   H183      1.0  0.66789  0.97212  0.36972  1.0000
  H   H184      1.0  0.68879  0.00363  0.45259  1.0000
  C   C186      1.0  0.70562  0.93349  0.34879  1.0000
  H   H185      1.0  0.68095  0.92687  0.35474  1.0000
  C   C187      1.0  0.54236  0.76422  0.34606  1.0000
  C   C188      1.0  0.51767  0.73034  0.36839  1.0000
  C   C189      1.0  0.98279  0.71835  0.35167  1.0000
  C   C190      1.0  0.95945  0.68125  0.34027  1.0000
  H   H186      1.0  0.97235  0.66699  0.33059  1.0000
  H   H187      1.0  0.94428  0.67648  0.27974  1.0000
  H   H188      1.0  0.94309  0.67103  0.39889  1.0000
  C   C191      1.0  0.52792  0.70810  0.41681  1.0000
  H   H189      1.0  0.54646  0.72227  0.46885  1.0000
  H   H190      1.0  0.53868  0.69793  0.36930  1.0000
  H   H191      1.0  0.50717  0.68724  0.45223  1.0000
  C   C192      1.0  0.57730  0.77430  0.34888  1.0000
  H   H192      1.0  0.58392  0.75624  0.35468  1.0000
