data_image0
_chemical_formula_structural       C2H2C4HNOC2H2C4HNO3CNCNC2NCNC3H3C2HNC3H2O2C3HNOC2H3C2HNC3H2O2C3HNOC2H2C2H2C2H2CNCNCNC5N2O2C5HNO3C4HNO3C2H2C2H2C2H2CNCNCNC5N2O2C5HNO3C4HNO3C2H2C2H2C2H2C2H2C2H2C2H2CNCNCNCNCNCNC8H2N2O4C8H2N2O4C8H2N2O3C2H2C2H2C2H2C2H2C2H2C2H2CNCNCNCNCNCNC8H2N2O4C8H2N2O4C8H2N2O3
_chemical_formula_sum              "C168 H72 N48 O48"
_cell_length_a       44.1329
_cell_length_b       44.1329
_cell_length_c       14.8404
_cell_angle_alpha    90
_cell_angle_beta     90
_cell_angle_gamma    120

_space_group_name_H-M_alt    "P 1"
_space_group_IT_number       1

loop_
  _space_group_symop_operation_xyz
  'x, y, z'

loop_
  _atom_site_type_symbol
  _atom_site_label
  _atom_site_symmetry_multiplicity
  _atom_site_fract_x
  _atom_site_fract_y
  _atom_site_fract_z
  _atom_site_occupancy
  C   C1        1.0  0.08267  0.29751  0.27137  1.0000
  C   C2        1.0  0.04584  0.27876  0.27319  1.0000
  H   H1        1.0  0.09522  0.30749  0.21138  1.0000
  H   H2        1.0  0.03254  0.27593  0.21434  1.0000
  C   C3        1.0  0.02735  0.26481  0.35465  1.0000
  C   C4        1.0  0.04676  0.26963  0.43513  1.0000
  C   C5        1.0  0.08387  0.28796  0.43203  1.0000
  C   C6        1.0  0.10209  0.30219  0.35076  1.0000
  H   H3        1.0  0.09764  0.29118  0.49023  1.0000
  N   N1        1.0  0.02875  0.25532  0.51700  1.0000
  O   O1        1.0  0.03617  0.27875  0.57501  1.0000
  C   C7        1.0  0.08267  0.79751  0.27137  1.0000
  C   C8        1.0  0.04584  0.77876  0.27319  1.0000
  H   H4        1.0  0.09521  0.80749  0.21138  1.0000
  H   H5        1.0  0.03254  0.77593  0.21434  1.0000
  C   C9        1.0  0.02735  0.76481  0.35465  1.0000
  C   C10       1.0  0.04676  0.76963  0.43513  1.0000
  C   C11       1.0  0.08387  0.78796  0.43203  1.0000
  C   C12       1.0  0.10208  0.80218  0.35076  1.0000
  H   H6        1.0  0.09764  0.79118  0.49023  1.0000
  N   N2        1.0  0.02875  0.75532  0.51700  1.0000
  O   O2        1.0  0.03616  0.77875  0.57501  1.0000
  O   O3        1.0  0.03576  0.23311  0.54854  1.0000
  O   O4        1.0  0.03576  0.73311  0.54854  1.0000
  C   C13       1.0  0.19249  0.37445  0.34920  1.0000
  N   N3        1.0  0.15691  0.35632  0.34946  1.0000
  C   C14       1.0  0.13899  0.32074  0.34920  1.0000
  N   N4        1.0  0.15712  0.30328  0.34947  1.0000
  C   C15       1.0  0.19270  0.32094  0.34920  1.0000
  C   C16       1.0  0.19249  0.87445  0.34920  1.0000
  N   N5        1.0  0.15691  0.85632  0.34946  1.0000
  C   C17       1.0  0.13899  0.82074  0.34920  1.0000
  N   N6        1.0  0.15712  0.80328  0.34947  1.0000
  C   C18       1.0  0.19270  0.82095  0.34920  1.0000
  C   C19       1.0  0.21593  0.28785  0.27137  1.0000
  C   C20       1.0  0.23468  0.26976  0.27319  1.0000
  H   H7        1.0  0.20595  0.29042  0.21137  1.0000
  H   H8        1.0  0.23751  0.25931  0.21433  1.0000
  H   H9        1.0  0.23304  0.03024  0.26756  1.0000
  C   C21       1.0  0.22559  0.43077  0.27137  1.0000
  C   C22       1.0  0.24368  0.46760  0.27319  1.0000
  H   H10       1.0  0.22302  0.41822  0.21137  1.0000
  N   N7        1.0  0.21016  0.35653  0.34946  1.0000
  C   C23       1.0  0.24381  0.27981  0.43513  1.0000
  C   C24       1.0  0.22548  0.29859  0.43203  1.0000
  C   C25       1.0  0.21125  0.30259  0.35076  1.0000
  H   H11       1.0  0.22226  0.30915  0.49023  1.0000
  H   H12       1.0  0.23166  0.20571  0.44066  1.0000
  O   O5        1.0  0.23468  0.26010  0.57501  1.0000
  O   O6        1.0  0.22919  0.14184  0.43464  1.0000
  C   C26       1.0  0.23362  0.46669  0.43513  1.0000
  C   C27       1.0  0.21485  0.42957  0.43203  1.0000
  C   C28       1.0  0.21085  0.41136  0.35076  1.0000
  H   H13       1.0  0.20429  0.41579  0.49023  1.0000
  N   N8        1.0  0.23732  0.48469  0.51701  1.0000
  O   O7        1.0  0.20810  0.97768  0.54855  1.0000
  C   C29       1.0  0.21593  0.78785  0.27137  1.0000
  C   C30       1.0  0.23468  0.76976  0.27319  1.0000
  H   H14       1.0  0.20595  0.79042  0.21137  1.0000
  H   H15       1.0  0.23751  0.75931  0.21433  1.0000
  H   H16       1.0  0.23304  0.53024  0.26756  1.0000
  C   C31       1.0  0.22559  0.93077  0.27137  1.0000
  C   C32       1.0  0.24368  0.96760  0.27319  1.0000
  H   H17       1.0  0.22302  0.91822  0.21137  1.0000
  N   N9        1.0  0.21016  0.85653  0.34946  1.0000
  C   C33       1.0  0.24381  0.77981  0.43513  1.0000
  C   C34       1.0  0.22547  0.79859  0.43203  1.0000
  C   C35       1.0  0.21125  0.80259  0.35076  1.0000
  H   H18       1.0  0.22226  0.80915  0.49023  1.0000
  H   H19       1.0  0.23165  0.70571  0.44066  1.0000
  O   O8        1.0  0.23468  0.76009  0.57501  1.0000
  O   O9        1.0  0.22919  0.64184  0.43464  1.0000
  C   C36       1.0  0.23362  0.96668  0.43513  1.0000
  C   C37       1.0  0.21485  0.92957  0.43203  1.0000
  C   C38       1.0  0.21085  0.91135  0.35076  1.0000
  H   H20       1.0  0.20429  0.91579  0.49023  1.0000
  N   N10       1.0  0.23732  0.98469  0.51701  1.0000
  O   O10       1.0  0.20811  0.47768  0.54855  1.0000
  C   C39       1.0  0.29792  0.25775  0.30422  1.0000
  C   C40       1.0  0.31613  0.23912  0.30552  1.0000
  H   H21       1.0  0.30795  0.28040  0.26756  1.0000
  H   H22       1.0  0.33860  0.24864  0.26824  1.0000
  C   C41       1.0  0.25569  0.04286  0.30422  1.0000
  C   C42       1.0  0.27432  0.07970  0.30552  1.0000
  H   H23       1.0  0.26480  0.09265  0.26824  1.0000
  H   H24       1.0  0.25413  0.48090  0.21433  1.0000
  C   C43       1.0  0.47058  0.21552  0.30421  1.0000
  C   C44       1.0  0.43374  0.19731  0.30552  1.0000
  H   H25       1.0  0.48320  0.20549  0.26756  1.0000
  H   H26       1.0  0.42079  0.17484  0.26824  1.0000
  C   C45       1.0  0.32402  0.13598  0.35357  1.0000
  N   N11       1.0  0.35961  0.15511  0.35344  1.0000
  C   C46       1.0  0.37746  0.19073  0.35357  1.0000
  N   N12       1.0  0.35833  0.20719  0.35344  1.0000
  C   C47       1.0  0.32271  0.18942  0.35357  1.0000
  N   N13       1.0  0.30625  0.15383  0.35344  1.0000
  C   C48       1.0  0.30352  0.20760  0.35491  1.0000
  C   C49       1.0  0.27202  0.19543  0.40501  1.0000
  C   C50       1.0  0.25424  0.21476  0.40411  1.0000
  C   C51       1.0  0.26678  0.24599  0.35406  1.0000
  C   C52       1.0  0.24863  0.26523  0.35465  1.0000
  N   N14       1.0  0.25812  0.27612  0.51701  1.0000
  N   N15       1.0  0.25934  0.16491  0.45859  1.0000
  O   O11       1.0  0.28032  0.30533  0.54855  1.0000
  O   O12       1.0  0.25875  0.17151  0.54075  1.0000
  C   C53       1.0  0.30584  0.09861  0.35491  1.0000
  C   C54       1.0  0.31801  0.07928  0.40501  1.0000
  C   C55       1.0  0.29868  0.04217  0.40411  1.0000
  C   C56       1.0  0.26745  0.02348  0.35406  1.0000
  C   C57       1.0  0.24821  0.48609  0.35465  1.0000
  H   H27       1.0  0.30773  0.02864  0.44066  1.0000
  N   N16       1.0  0.34853  0.09711  0.45859  1.0000
  O   O13       1.0  0.25334  0.47727  0.57501  1.0000
  O   O14       1.0  0.37160  0.09004  0.43464  1.0000
  O   O15       1.0  0.34193  0.08993  0.54075  1.0000
  C   C58       1.0  0.41483  0.20992  0.35491  1.0000
  C   C59       1.0  0.43416  0.24142  0.40501  1.0000
  C   C60       1.0  0.47127  0.25920  0.40411  1.0000
  C   C61       1.0  0.48996  0.24666  0.35406  1.0000
  H   H28       1.0  0.48480  0.28178  0.44066  1.0000
  N   N17       1.0  0.41633  0.25410  0.45859  1.0000
  O   O16       1.0  0.42340  0.28425  0.43464  1.0000
  O   O17       1.0  0.53576  0.23311  0.54854  1.0000
  O   O18       1.0  0.42351  0.25469  0.54075  1.0000
  C   C62       1.0  0.29792  0.75775  0.30422  1.0000
  C   C63       1.0  0.31613  0.73912  0.30552  1.0000
  H   H29       1.0  0.30795  0.78040  0.26756  1.0000
  H   H30       1.0  0.33860  0.74864  0.26824  1.0000
  C   C64       1.0  0.25569  0.54286  0.30422  1.0000
  C   C65       1.0  0.27432  0.57970  0.30552  1.0000
  H   H31       1.0  0.26480  0.59265  0.26824  1.0000
  H   H32       1.0  0.25413  0.98089  0.21433  1.0000
  C   C66       1.0  0.47058  0.71552  0.30421  1.0000
  C   C67       1.0  0.43374  0.69731  0.30552  1.0000
  H   H33       1.0  0.48320  0.70549  0.26756  1.0000
  H   H34       1.0  0.42079  0.67484  0.26824  1.0000
  C   C68       1.0  0.32402  0.63598  0.35357  1.0000
  N   N18       1.0  0.35961  0.65511  0.35344  1.0000
  C   C69       1.0  0.37746  0.69073  0.35357  1.0000
  N   N19       1.0  0.35833  0.70719  0.35344  1.0000
  C   C70       1.0  0.32271  0.68942  0.35357  1.0000
  N   N20       1.0  0.30625  0.65383  0.35344  1.0000
  C   C71       1.0  0.30352  0.70760  0.35491  1.0000
  C   C72       1.0  0.27202  0.69543  0.40501  1.0000
  C   C73       1.0  0.25424  0.71476  0.40411  1.0000
  C   C74       1.0  0.26678  0.74599  0.35406  1.0000
  C   C75       1.0  0.24863  0.76523  0.35465  1.0000
  N   N21       1.0  0.25812  0.77611  0.51701  1.0000
  N   N22       1.0  0.25934  0.66491  0.45859  1.0000
  O   O19       1.0  0.28032  0.80533  0.54855  1.0000
  O   O20       1.0  0.25874  0.67151  0.54075  1.0000
  C   C76       1.0  0.30584  0.59861  0.35491  1.0000
  C   C77       1.0  0.31801  0.57929  0.40501  1.0000
  C   C78       1.0  0.29868  0.54217  0.40411  1.0000
  C   C79       1.0  0.26745  0.52348  0.35406  1.0000
  C   C80       1.0  0.24821  0.98609  0.35465  1.0000
  H   H35       1.0  0.30773  0.52863  0.44066  1.0000
  N   N23       1.0  0.34853  0.59711  0.45859  1.0000
  O   O21       1.0  0.25334  0.97727  0.57501  1.0000
  O   O22       1.0  0.37160  0.59004  0.43464  1.0000
  O   O23       1.0  0.34193  0.58993  0.54075  1.0000
  C   C81       1.0  0.41483  0.70991  0.35491  1.0000
  C   C82       1.0  0.43416  0.74142  0.40501  1.0000
  C   C83       1.0  0.47127  0.75920  0.40411  1.0000
  C   C84       1.0  0.48996  0.74666  0.35406  1.0000
  H   H36       1.0  0.48480  0.78178  0.44066  1.0000
  N   N24       1.0  0.41633  0.75410  0.45859  1.0000
  O   O24       1.0  0.42340  0.78425  0.43464  1.0000
  O   O25       1.0  0.53576  0.73311  0.54854  1.0000
  O   O26       1.0  0.42351  0.75469  0.54075  1.0000
  C   C85       1.0  0.79792  0.25775  0.30422  1.0000
  C   C86       1.0  0.81613  0.23912  0.30552  1.0000
  H   H37       1.0  0.80795  0.28040  0.26756  1.0000
  H   H38       1.0  0.83860  0.24864  0.26824  1.0000
  C   C87       1.0  0.71593  0.28785  0.27137  1.0000
  C   C88       1.0  0.73468  0.26976  0.27319  1.0000
  H   H39       1.0  0.70595  0.29042  0.21137  1.0000
  H   H40       1.0  0.73751  0.25931  0.21433  1.0000
  C   C89       1.0  0.75569  0.04286  0.30422  1.0000
  C   C90       1.0  0.77432  0.07970  0.30552  1.0000
  H   H41       1.0  0.73304  0.03024  0.26756  1.0000
  H   H42       1.0  0.76480  0.09265  0.26824  1.0000
  C   C91       1.0  0.72559  0.43077  0.27137  1.0000
  C   C92       1.0  0.74368  0.46760  0.27319  1.0000
  H   H43       1.0  0.72302  0.41822  0.21137  1.0000
  H   H44       1.0  0.75413  0.48090  0.21433  1.0000
  C   C93       1.0  0.97058  0.21552  0.30421  1.0000
  C   C94       1.0  0.93374  0.19731  0.30552  1.0000
  H   H45       1.0  0.98320  0.20549  0.26756  1.0000
  H   H46       1.0  0.92079  0.17484  0.26824  1.0000
  C   C95       1.0  0.58267  0.29751  0.27137  1.0000
  C   C96       1.0  0.54584  0.27876  0.27319  1.0000
  H   H47       1.0  0.59522  0.30749  0.21138  1.0000
  H   H48       1.0  0.53254  0.27593  0.21434  1.0000
  C   C97       1.0  0.69249  0.37445  0.34920  1.0000
  N   N25       1.0  0.65691  0.35632  0.34946  1.0000
  C   C98       1.0  0.63899  0.32074  0.34920  1.0000
  N   N26       1.0  0.65712  0.30328  0.34947  1.0000
  C   C99       1.0  0.69270  0.32094  0.34920  1.0000
  N   N27       1.0  0.71016  0.35653  0.34946  1.0000
  C   C100      1.0  0.82402  0.13598  0.35357  1.0000
  N   N28       1.0  0.85961  0.15511  0.35344  1.0000
  C   C101      1.0  0.87746  0.19073  0.35357  1.0000
  N   N29       1.0  0.85833  0.20719  0.35344  1.0000
  C   C102      1.0  0.82271  0.18942  0.35357  1.0000
  N   N30       1.0  0.80625  0.15383  0.35344  1.0000
  C   C103      1.0  0.80352  0.20760  0.35491  1.0000
  C   C104      1.0  0.77202  0.19543  0.40501  1.0000
  C   C105      1.0  0.75424  0.21476  0.40411  1.0000
  C   C106      1.0  0.76678  0.24599  0.35406  1.0000
  C   C107      1.0  0.74863  0.26523  0.35465  1.0000
  C   C108      1.0  0.74381  0.27981  0.43513  1.0000
  C   C109      1.0  0.72547  0.29859  0.43203  1.0000
  C   C110      1.0  0.71125  0.30259  0.35076  1.0000
  H   H49       1.0  0.72226  0.30915  0.49023  1.0000
  H   H50       1.0  0.73165  0.20571  0.44066  1.0000
  N   N31       1.0  0.75812  0.27612  0.51701  1.0000
  N   N32       1.0  0.75934  0.16491  0.45859  1.0000
  O   O27       1.0  0.73468  0.26010  0.57501  1.0000
  O   O28       1.0  0.72919  0.14184  0.43464  1.0000
  O   O29       1.0  0.78032  0.30533  0.54855  1.0000
  O   O30       1.0  0.75874  0.17151  0.54075  1.0000
  C   C111      1.0  0.80584  0.09861  0.35491  1.0000
  C   C112      1.0  0.81801  0.07928  0.40501  1.0000
  C   C113      1.0  0.79868  0.04217  0.40411  1.0000
  C   C114      1.0  0.76745  0.02348  0.35406  1.0000
  C   C115      1.0  0.74821  0.48609  0.35465  1.0000
  C   C116      1.0  0.73362  0.46669  0.43513  1.0000
  C   C117      1.0  0.71485  0.42957  0.43203  1.0000
  C   C118      1.0  0.71085  0.41136  0.35076  1.0000
  H   H51       1.0  0.70429  0.41579  0.49023  1.0000
  H   H52       1.0  0.80773  0.02864  0.44066  1.0000
  N   N33       1.0  0.73732  0.48469  0.51701  1.0000
  N   N34       1.0  0.84853  0.09711  0.45859  1.0000
  O   O31       1.0  0.75334  0.47727  0.57501  1.0000
  O   O32       1.0  0.87160  0.09004  0.43464  1.0000
  O   O33       1.0  0.70810  0.97768  0.54855  1.0000
  O   O34       1.0  0.84193  0.08993  0.54075  1.0000
  C   C119      1.0  0.91483  0.20992  0.35491  1.0000
  C   C120      1.0  0.93415  0.24142  0.40501  1.0000
  C   C121      1.0  0.97127  0.25920  0.40411  1.0000
  C   C122      1.0  0.98996  0.24666  0.35406  1.0000
  C   C123      1.0  0.52735  0.26481  0.35465  1.0000
  C   C124      1.0  0.54675  0.26963  0.43513  1.0000
  C   C125      1.0  0.58387  0.28796  0.43203  1.0000
  C   C126      1.0  0.60208  0.30219  0.35076  1.0000
  H   H53       1.0  0.59764  0.29118  0.49023  1.0000
  H   H54       1.0  0.98480  0.28178  0.44066  1.0000
  N   N35       1.0  0.52875  0.25532  0.51700  1.0000
  N   N36       1.0  0.91633  0.25410  0.45859  1.0000
  O   O35       1.0  0.53616  0.27875  0.57501  1.0000
  O   O36       1.0  0.92340  0.28425  0.43464  1.0000
  O   O37       1.0  0.92351  0.25469  0.54075  1.0000
  C   C127      1.0  0.79792  0.75775  0.30422  1.0000
  C   C128      1.0  0.81613  0.73912  0.30552  1.0000
  H   H55       1.0  0.80795  0.78040  0.26756  1.0000
  H   H56       1.0  0.83859  0.74864  0.26824  1.0000
  C   C129      1.0  0.71593  0.78785  0.27137  1.0000
  C   C130      1.0  0.73468  0.76976  0.27319  1.0000
  H   H57       1.0  0.70595  0.79042  0.21137  1.0000
  H   H58       1.0  0.73751  0.75931  0.21433  1.0000
  C   C131      1.0  0.75569  0.54286  0.30422  1.0000
  C   C132      1.0  0.77432  0.57970  0.30552  1.0000
  H   H59       1.0  0.73304  0.53024  0.26756  1.0000
  H   H60       1.0  0.76480  0.59265  0.26824  1.0000
  C   C133      1.0  0.72559  0.93077  0.27137  1.0000
  C   C134      1.0  0.74368  0.96760  0.27319  1.0000
  H   H61       1.0  0.72302  0.91822  0.21137  1.0000
  H   H62       1.0  0.75413  0.98089  0.21433  1.0000
  C   C135      1.0  0.97058  0.71552  0.30421  1.0000
  C   C136      1.0  0.93374  0.69731  0.30552  1.0000
  H   H63       1.0  0.98320  0.70549  0.26756  1.0000
  H   H64       1.0  0.92079  0.67484  0.26824  1.0000
  C   C137      1.0  0.58267  0.79751  0.27137  1.0000
  C   C138      1.0  0.54584  0.77876  0.27319  1.0000
  H   H65       1.0  0.59522  0.80749  0.21138  1.0000
  H   H66       1.0  0.53254  0.77593  0.21434  1.0000
  C   C139      1.0  0.69249  0.87445  0.34920  1.0000
  N   N37       1.0  0.65691  0.85632  0.34946  1.0000
  C   C140      1.0  0.63899  0.82074  0.34920  1.0000
  N   N38       1.0  0.65712  0.80328  0.34947  1.0000
  C   C141      1.0  0.69270  0.82095  0.34920  1.0000
  N   N39       1.0  0.71016  0.85653  0.34946  1.0000
  C   C142      1.0  0.82402  0.63598  0.35357  1.0000
  N   N40       1.0  0.85961  0.65511  0.35344  1.0000
  C   C143      1.0  0.87746  0.69073  0.35357  1.0000
  N   N41       1.0  0.85833  0.70719  0.35344  1.0000
  C   C144      1.0  0.82271  0.68942  0.35357  1.0000
  N   N42       1.0  0.80625  0.65383  0.35344  1.0000
  C   C145      1.0  0.80352  0.70760  0.35491  1.0000
  C   C146      1.0  0.77202  0.69543  0.40501  1.0000
  C   C147      1.0  0.75424  0.71476  0.40411  1.0000
  C   C148      1.0  0.76678  0.74599  0.35406  1.0000
  C   C149      1.0  0.74863  0.76523  0.35465  1.0000
  C   C150      1.0  0.74381  0.77981  0.43513  1.0000
  C   C151      1.0  0.72547  0.79859  0.43203  1.0000
  C   C152      1.0  0.71125  0.80259  0.35076  1.0000
  H   H67       1.0  0.72226  0.80915  0.49023  1.0000
  H   H68       1.0  0.73165  0.70571  0.44066  1.0000
  N   N43       1.0  0.75812  0.77611  0.51701  1.0000
  N   N44       1.0  0.75934  0.66491  0.45859  1.0000
  O   O38       1.0  0.73468  0.76009  0.57501  1.0000
  O   O39       1.0  0.72919  0.64184  0.43464  1.0000
  O   O40       1.0  0.78032  0.80533  0.54855  1.0000
  O   O41       1.0  0.75874  0.67151  0.54075  1.0000
  C   C153      1.0  0.80584  0.59861  0.35491  1.0000
  C   C154      1.0  0.81801  0.57929  0.40501  1.0000
  C   C155      1.0  0.79868  0.54217  0.40411  1.0000
  C   C156      1.0  0.76745  0.52348  0.35406  1.0000
  C   C157      1.0  0.74821  0.98609  0.35465  1.0000
  C   C158      1.0  0.73362  0.96668  0.43513  1.0000
  C   C159      1.0  0.71485  0.92957  0.43203  1.0000
  C   C160      1.0  0.71085  0.91135  0.35076  1.0000
  H   H69       1.0  0.70429  0.91579  0.49023  1.0000
  H   H70       1.0  0.80773  0.52863  0.44066  1.0000
  N   N45       1.0  0.73732  0.98469  0.51701  1.0000
  N   N46       1.0  0.84853  0.59711  0.45859  1.0000
  O   O42       1.0  0.75334  0.97727  0.57501  1.0000
  O   O43       1.0  0.87160  0.59004  0.43464  1.0000
  O   O44       1.0  0.70811  0.47768  0.54855  1.0000
  O   O45       1.0  0.84193  0.58993  0.54075  1.0000
  C   C161      1.0  0.91483  0.70991  0.35491  1.0000
  C   C162      1.0  0.93416  0.74142  0.40501  1.0000
  C   C163      1.0  0.97127  0.75920  0.40411  1.0000
  C   C164      1.0  0.98996  0.74666  0.35406  1.0000
  C   C165      1.0  0.52735  0.76481  0.35465  1.0000
  C   C166      1.0  0.54675  0.76963  0.43513  1.0000
  C   C167      1.0  0.58387  0.78796  0.43203  1.0000
  C   C168      1.0  0.60208  0.80218  0.35076  1.0000
  H   H71       1.0  0.59764  0.79118  0.49023  1.0000
  H   H72       1.0  0.98480  0.78178  0.44066  1.0000
  N   N47       1.0  0.52875  0.75532  0.51700  1.0000
  N   N48       1.0  0.91632  0.75410  0.45859  1.0000
  O   O46       1.0  0.53616  0.77875  0.57501  1.0000
  O   O47       1.0  0.92340  0.78425  0.43464  1.0000
  O   O48       1.0  0.92351  0.75469  0.54075  1.0000
