data_image0
_chemical_formula_structural       CHC3H2NCNHCH3C2NHC3H3C3HCH3C3HCH3C3H2C3HCH3C4H3C3HCH3C3HCH3C3HCH3CNCNCNCNCNCNCNCNCNCNCNCNCNCNCNCHC3HCH3C3HCH3C3HCH3C3HCH3C3HCH2C3HCH3C3HCH3C3HCH3
_chemical_formula_sum              "C90 H72 N18"
_cell_length_a       30.3615
_cell_length_b       30.3615
_cell_length_c       14.7962
_cell_angle_alpha    90
_cell_angle_beta     90
_cell_angle_gamma    120

_space_group_name_H-M_alt    "P 1"
_space_group_IT_number       1

loop_
  _space_group_symop_operation_xyz
  'x, y, z'

loop_
  _atom_site_type_symbol
  _atom_site_label
  _atom_site_symmetry_multiplicity
  _atom_site_fract_x
  _atom_site_fract_y
  _atom_site_fract_z
  _atom_site_occupancy
  C   C1        1.0  0.03885  0.54442  0.25426  1.0000
  H   H1        1.0  0.05969  0.57588  0.21475  1.0000
  C   C2        1.0  0.06543  0.52793  0.31100  1.0000
  C   C3        1.0  0.03525  0.48421  0.36578  1.0000
  C   C4        1.0  0.05817  0.46579  0.43476  1.0000
  H   H2        1.0  0.07952  0.45034  0.40131  1.0000
  H   H3        1.0  0.02990  0.43582  0.47793  1.0000
  N   N1        1.0  0.14476  0.60915  0.33044  1.0000
  C   C5        1.0  0.12032  0.55736  0.31728  1.0000
  N   N2        1.0  0.14873  0.53372  0.32491  1.0000
  H   H4        1.0  0.08364  0.49711  0.47888  1.0000
  C   C6        1.0  0.21601  0.49264  0.21084  1.0000
  H   H5        1.0  0.18001  0.49228  0.21025  1.0000
  H   H6        1.0  0.20741  0.45341  0.20234  1.0000
  H   H7        1.0  0.21116  0.71219  0.24781  1.0000
  C   C7        1.0  0.19455  0.63602  0.35696  1.0000
  C   C8        1.0  0.19872  0.55889  0.34973  1.0000
  N   N3        1.0  0.21883  0.60915  0.36622  1.0000
  H   H8        1.0  0.21505  0.64281  0.53460  1.0000
  C   C9        1.0  0.95454  0.47474  0.30220  1.0000
  C   C10       1.0  0.98475  0.51856  0.24782  1.0000
  C   C11       1.0  0.96256  0.53827  0.18030  1.0000
  H   H9        1.0  0.92213  0.51265  0.16896  1.0000
  H   H10       1.0  0.98135  0.54340  0.11507  1.0000
  H   H11       1.0  0.96810  0.57493  0.20282  1.0000
  C   C12       1.0  0.54246  0.48327  0.30229  1.0000
  C   C13       1.0  0.49863  0.46965  0.24792  1.0000
  C   C14       1.0  0.47278  0.49790  0.25433  1.0000
  H   H12       1.0  0.44131  0.48726  0.21483  1.0000
  C   C15       1.0  0.47892  0.42774  0.18043  1.0000
  H   H13       1.0  0.50455  0.41293  0.16910  1.0000
  H   H14       1.0  0.47378  0.44138  0.11519  1.0000
  H   H15       1.0  0.44227  0.39662  0.20298  1.0000
  C   C16       1.0  0.53392  0.06269  0.30210  1.0000
  C   C17       1.0  0.54756  0.03246  0.24782  1.0000
  C   C18       1.0  0.51933  0.97837  0.25428  1.0000
  H   H16       1.0  0.52997  0.95753  0.21481  1.0000
  C   C19       1.0  0.58947  0.05466  0.18032  1.0000
  H   H17       1.0  0.60423  0.09508  0.16890  1.0000
  H   H18       1.0  0.57584  0.03583  0.11512  1.0000
  H   H19       1.0  0.62061  0.04918  0.20293  1.0000
  C   C20       1.0  0.23306  0.54019  0.36157  1.0000
  C   C21       1.0  0.24559  0.51389  0.29548  1.0000
  C   C22       1.0  0.29298  0.51468  0.30198  1.0000
  H   H20       1.0  0.30505  0.50249  0.24775  1.0000
  H   H21       1.0  0.23833  0.51491  0.15294  1.0000
  C   C23       1.0  0.47708  0.69637  0.36148  1.0000
  C   C24       1.0  0.50339  0.73518  0.29536  1.0000
  C   C25       1.0  0.50262  0.78180  0.30182  1.0000
  H   H22       1.0  0.51479  0.80602  0.24755  1.0000
  C   C26       1.0  0.52461  0.72681  0.21072  1.0000
  H   H23       1.0  0.52496  0.69117  0.21018  1.0000
  H   H24       1.0  0.56384  0.75743  0.20219  1.0000
  H   H25       1.0  0.50233  0.72684  0.15282  1.0000
  C   C27       1.0  0.32089  0.78417  0.36149  1.0000
  C   C28       1.0  0.28203  0.77162  0.29545  1.0000
  C   C29       1.0  0.23542  0.72424  0.30204  1.0000
  C   C30       1.0  0.29035  0.80117  0.21078  1.0000
  H   H26       1.0  0.32600  0.83715  0.21012  1.0000
  H   H27       1.0  0.25974  0.80979  0.20229  1.0000
  H   H28       1.0  0.29026  0.77882  0.15290  1.0000
  C   C31       1.0  0.79170  0.47292  0.36252  1.0000
  C   C32       1.0  0.78027  0.50040  0.29706  1.0000
  C   C33       1.0  0.73319  0.50029  0.30294  1.0000
  H   H29       1.0  0.72195  0.51348  0.24898  1.0000
  C   C34       1.0  0.81057  0.52221  0.21337  1.0000
  H   H30       1.0  0.84681  0.52325  0.21446  1.0000
  H   H31       1.0  0.81869  0.56129  0.20472  1.0000
  H   H32       1.0  0.78904  0.49989  0.15484  1.0000
  C   C35       1.0  0.54413  0.32219  0.36284  1.0000
  C   C36       1.0  0.51681  0.28335  0.29719  1.0000
  C   C37       1.0  0.51699  0.23641  0.30286  1.0000
  H   H33       1.0  0.50386  0.21204  0.24883  1.0000
  C   C38       1.0  0.49497  0.29187  0.21355  1.0000
  H   H34       1.0  0.49379  0.32701  0.21485  1.0000
  H   H35       1.0  0.45594  0.26084  0.20476  1.0000
  H   H36       1.0  0.51737  0.29285  0.15503  1.0000
  C   C39       1.0  0.69507  0.22530  0.36269  1.0000
  C   C40       1.0  0.73386  0.23682  0.29694  1.0000
  C   C41       1.0  0.78082  0.28393  0.30263  1.0000
  H   H37       1.0  0.80514  0.29518  0.24852  1.0000
  C   C42       1.0  0.72527  0.20652  0.21322  1.0000
  H   H38       1.0  0.69014  0.17021  0.21451  1.0000
  H   H39       1.0  0.75629  0.19852  0.20422  1.0000
  H   H40       1.0  0.72425  0.22798  0.15478  1.0000
  C   C43       1.0  0.38118  0.56206  0.35686  1.0000
  N   N4        1.0  0.40804  0.53910  0.33044  1.0000
  C   C44       1.0  0.45984  0.56644  0.31732  1.0000
  N   N5        1.0  0.48351  0.61849  0.32490  1.0000
  C   C45       1.0  0.45835  0.64334  0.34967  1.0000
  N   N6        1.0  0.40808  0.61321  0.36613  1.0000
  C   C46       1.0  0.45520  0.82263  0.35662  1.0000
  N   N7        1.0  0.47814  0.87246  0.33033  1.0000
  C   C47       1.0  0.45077  0.89690  0.31727  1.0000
  N   N8        1.0  0.39873  0.86849  0.32487  1.0000
  C   C48       1.0  0.37391  0.81848  0.34957  1.0000
  N   N9        1.0  0.40406  0.79836  0.36595  1.0000
  C   C49       1.0  0.82371  0.37268  0.35580  1.0000
  N   N10       1.0  0.87277  0.39705  0.32582  1.0000
  C   C50       1.0  0.89964  0.44869  0.31061  1.0000
  N   N11       1.0  0.87425  0.47530  0.32158  1.0000
  C   C51       1.0  0.82474  0.45264  0.35002  1.0000
  N   N12       1.0  0.80240  0.40212  0.36695  1.0000
  C   C52       1.0  0.64444  0.45447  0.35633  1.0000
  N   N13       1.0  0.62010  0.47914  0.32606  1.0000
  C   C53       1.0  0.56847  0.45439  0.31081  1.0000
  N   N14       1.0  0.54182  0.40239  0.32184  1.0000
  C   C54       1.0  0.56444  0.37554  0.35048  1.0000
  N   N15       1.0  0.61496  0.40371  0.36743  1.0000
  C   C55       1.0  0.56285  0.19352  0.35609  1.0000
  N   N16       1.0  0.53812  0.14450  0.32591  1.0000
  C   C56       1.0  0.56283  0.11757  0.31067  1.0000
  N   N17       1.0  0.61482  0.14287  0.32170  1.0000
  C   C57       1.0  0.64172  0.19234  0.35032  1.0000
  N   N18       1.0  0.61360  0.21475  0.36725  1.0000
  C   C58       1.0  0.98134  0.45890  0.35985  1.0000
  H   H41       1.0  0.96075  0.42875  0.40218  1.0000
  C   C59       1.0  0.48927  0.54098  0.31103  1.0000
  C   C60       1.0  0.53299  0.55452  0.36582  1.0000
  C   C61       1.0  0.55830  0.52593  0.35991  1.0000
  H   H42       1.0  0.58844  0.53548  0.40226  1.0000
  C   C62       1.0  0.55142  0.59587  0.43479  1.0000
  H   H43       1.0  0.52009  0.59003  0.47889  1.0000
  H   H44       1.0  0.56687  0.63266  0.40133  1.0000
  H   H45       1.0  0.58138  0.59757  0.47796  1.0000
  C   C63       1.0  0.47628  0.95179  0.31104  1.0000
  C   C64       1.0  0.46270  0.98198  0.36574  1.0000
  C   C65       1.0  0.49128  0.03588  0.35978  1.0000
  H   H46       1.0  0.48172  0.05648  0.40210  1.0000
  C   C66       1.0  0.42135  0.95906  0.43471  1.0000
  H   H47       1.0  0.42720  0.93360  0.47885  1.0000
  H   H48       1.0  0.38456  0.93770  0.40125  1.0000
  H   H49       1.0  0.41963  0.98733  0.47785  1.0000
  C   C67       1.0  0.32817  0.54057  0.37261  1.0000
  C   C68       1.0  0.31139  0.55900  0.44573  1.0000
  C   C69       1.0  0.26505  0.55878  0.43844  1.0000
  H   H50       1.0  0.25541  0.57500  0.48988  1.0000
  C   C70       1.0  0.34074  0.57976  0.53108  1.0000
  H   H51       1.0  0.37451  0.57583  0.53451  1.0000
  H   H52       1.0  0.31687  0.55931  0.58886  1.0000
  H   H53       1.0  0.35246  0.61995  0.53764  1.0000
  C   C71       1.0  0.47677  0.79118  0.37242  1.0000
  C   C72       1.0  0.45833  0.75596  0.44555  1.0000
  C   C73       1.0  0.45851  0.70982  0.43832  1.0000
  H   H54       1.0  0.44228  0.68398  0.48978  1.0000
  C   C74       1.0  0.43762  0.76460  0.53092  1.0000
  H   H55       1.0  0.44157  0.80231  0.53432  1.0000
  H   H56       1.0  0.45810  0.76120  0.58869  1.0000
  H   H57       1.0  0.39743  0.73614  0.53755  1.0000
  C   C75       1.0  0.22605  0.68902  0.37267  1.0000
  C   C76       1.0  0.26133  0.70588  0.44570  1.0000
  C   C77       1.0  0.30748  0.75220  0.43837  1.0000
  H   H58       1.0  0.33335  0.76183  0.48978  1.0000
  C   C78       1.0  0.25276  0.67657  0.53110  1.0000
  H   H59       1.0  0.25621  0.70048  0.58885  1.0000
  H   H60       1.0  0.28122  0.66484  0.53767  1.0000
  C   C79       1.0  0.69714  0.47382  0.37212  1.0000
  C   C80       1.0  0.71305  0.45465  0.44534  1.0000
  C   C81       1.0  0.75930  0.45460  0.43900  1.0000
  H   H61       1.0  0.76833  0.43790  0.49050  1.0000
  C   C82       1.0  0.68329  0.43396  0.53031  1.0000
  H   H62       1.0  0.65002  0.43873  0.53376  1.0000
  H   H63       1.0  0.70714  0.45382  0.58848  1.0000
  H   H64       1.0  0.67076  0.39356  0.53631  1.0000
  C   C83       1.0  0.54352  0.22689  0.37198  1.0000
  C   C84       1.0  0.56264  0.26186  0.44534  1.0000
  C   C85       1.0  0.56255  0.30809  0.43919  1.0000
  H   H65       1.0  0.57918  0.33376  0.49077  1.0000
  C   C86       1.0  0.58338  0.25275  0.53022  1.0000
  H   H66       1.0  0.57865  0.21473  0.53354  1.0000
  H   H67       1.0  0.56353  0.25668  0.58846  1.0000
  H   H68       1.0  0.62378  0.28066  0.53619  1.0000
  C   C87       1.0  0.79049  0.31998  0.37185  1.0000
  C   C88       1.0  0.75550  0.30407  0.44520  1.0000
  C   C89       1.0  0.70923  0.25778  0.43907  1.0000
  H   H69       1.0  0.68358  0.24877  0.49068  1.0000
  C   C90       1.0  0.76466  0.33391  0.53010  1.0000
  H   H70       1.0  0.80268  0.36722  0.53335  1.0000
  H   H71       1.0  0.76079  0.31013  0.58831  1.0000
  H   H72       1.0  0.73674  0.34638  0.53621  1.0000
