data_image0
_chemical_formula_structural       C13H9C13H9C13H9C13H9C8H3NH2C8H3NH2C8H3NH2C2H2C2H2C2H2C2H2C2H2C2H2C17H12C17H12C17H12C17H12C2H2C2H2C2H2C2H2C2H2C2H2C8H3NH2C8H3NH2C8H3NH2
_chemical_formula_sum              "C192 H138 N6"
_cell_length_a       68.9198
_cell_length_b       68.9029
_cell_length_c       14.9795
_cell_angle_alpha    90
_cell_angle_beta     90
_cell_angle_gamma    120.004

_space_group_name_H-M_alt    "P 1"
_space_group_IT_number       1

loop_
  _space_group_symop_operation_xyz
  'x, y, z'

loop_
  _atom_site_type_symbol
  _atom_site_label
  _atom_site_symmetry_multiplicity
  _atom_site_fract_x
  _atom_site_fract_y
  _atom_site_fract_z
  _atom_site_occupancy
  C   C1        1.0  0.92402  0.86496  0.33333  1.0000
  C   C2        1.0  0.94599  0.91287  0.33053  1.0000
  C   C3        1.0  0.92236  0.89979  0.33264  1.0000
  C   C4        1.0  0.91157  0.87623  0.33424  1.0000
  C   C5        1.0  0.95625  0.93607  0.32564  1.0000
  C   C6        1.0  0.05503  0.02068  0.32609  1.0000
  C   C7        1.0  0.09129  0.02306  0.33338  1.0000
  C   C8        1.0  0.12612  0.05955  0.33382  1.0000
  C   C9        1.0  0.11484  0.03582  0.33494  1.0000
  C   C10       1.0  0.97050  0.03496  0.32618  1.0000
  C   C11       1.0  0.93385  0.03263  0.32828  1.0000
  C   C12       1.0  0.93154  0.06708  0.33376  1.0000
  C   C13       1.0  0.92109  0.04342  0.33006  1.0000
  H   H1        1.0  0.89444  0.86737  0.33683  1.0000
  H   H2        1.0  0.91275  0.90731  0.33319  1.0000
  H   H3        1.0  0.92569  0.01551  0.32357  1.0000
  H   H4        1.0  0.08377  0.00593  0.33408  1.0000
  H   H5        1.0  0.12370  0.02755  0.33770  1.0000
  H   H6        1.0  0.90402  0.03378  0.32607  1.0000
  H   H7        1.0  0.04869  0.00851  0.28062  1.0000
  H   H8        1.0  0.95043  0.94242  0.28016  1.0000
  H   H9        1.0  0.98274  0.04088  0.28103  1.0000
  C   C14       1.0  0.50987  0.34103  0.31864  1.0000
  C   C15       1.0  0.47795  0.29415  0.31529  1.0000
  C   C16       1.0  0.50114  0.30180  0.31989  1.0000
  C   C17       1.0  0.51679  0.32484  0.32202  1.0000
  C   C18       1.0  0.46322  0.27128  0.30978  1.0000
  C   C19       1.0  0.36454  0.18706  0.32302  1.0000
  C   C20       1.0  0.32860  0.18461  0.29849  1.0000
  C   C21       1.0  0.29331  0.14978  0.32849  1.0000
  C   C22       1.0  0.30503  0.17233  0.29919  1.0000
  C   C23       1.0  0.45436  0.18018  0.34142  1.0000
  C   C24       1.0  0.49241  0.18893  0.37574  1.0000
  C   C25       1.0  0.50362  0.16047  0.35804  1.0000
  C   C26       1.0  0.50878  0.18252  0.38021  1.0000
  H   H10       1.0  0.53343  0.32965  0.32649  1.0000
  H   H11       1.0  0.50689  0.29067  0.32170  1.0000
  H   H12       1.0  0.49702  0.20521  0.39013  1.0000
  H   H13       1.0  0.33645  0.20090  0.27689  1.0000
  H   H14       1.0  0.29648  0.18015  0.27887  1.0000
  H   H15       1.0  0.52477  0.19442  0.39723  1.0000
  H   H16       1.0  0.37136  0.19635  0.26868  1.0000
  H   H17       1.0  0.46629  0.26297  0.26259  1.0000
  H   H18       1.0  0.44671  0.17772  0.28268  1.0000
  C   C27       1.0  0.64992  0.16924  0.31868  1.0000
  C   C28       1.0  0.69679  0.18421  0.31546  1.0000
  C   C29       1.0  0.68913  0.19974  0.31993  1.0000
  C   C30       1.0  0.66609  0.19235  0.32201  1.0000
  C   C31       1.0  0.71965  0.19236  0.31010  1.0000
  C   C32       1.0  0.80391  0.17787  0.32302  1.0000
  C   C33       1.0  0.80641  0.14443  0.29781  1.0000
  C   C34       1.0  0.84118  0.14392  0.32845  1.0000
  C   C35       1.0  0.81869  0.13314  0.29852  1.0000
  C   C36       1.0  0.81078  0.27454  0.34141  1.0000
  C   C37       1.0  0.80204  0.30385  0.37578  1.0000
  C   C38       1.0  0.83050  0.34352  0.35803  1.0000
  C   C39       1.0  0.80846  0.32664  0.38021  1.0000
  H   H19       1.0  0.66128  0.20417  0.32643  1.0000
  H   H20       1.0  0.70025  0.21663  0.32175  1.0000
  H   H21       1.0  0.78576  0.29218  0.39008  1.0000
  H   H22       1.0  0.79017  0.13603  0.27574  1.0000
  H   H23       1.0  0.81092  0.11680  0.27770  1.0000
  H   H24       1.0  0.79656  0.33074  0.39716  1.0000
  H   H25       1.0  0.79468  0.17548  0.26853  1.0000
  H   H26       1.0  0.72798  0.20373  0.26289  1.0000
  H   H27       1.0  0.81317  0.26933  0.28257  1.0000
  C   C40       1.0  0.82169  0.48107  0.31878  1.0000
  C   C41       1.0  0.80667  0.51294  0.31576  1.0000
  C   C42       1.0  0.79117  0.48974  0.32024  1.0000
  C   C43       1.0  0.79857  0.47410  0.32222  1.0000
  C   C44       1.0  0.79849  0.52763  0.31041  1.0000
  C   C45       1.0  0.81317  0.62649  0.32312  1.0000
  C   C46       1.0  0.84667  0.66244  0.29876  1.0000
  C   C47       1.0  0.84710  0.69773  0.32843  1.0000
  C   C48       1.0  0.85795  0.68602  0.29941  1.0000
  C   C49       1.0  0.71639  0.53664  0.34134  1.0000
  C   C50       1.0  0.68709  0.49861  0.37602  1.0000
  C   C51       1.0  0.64742  0.48738  0.35815  1.0000
  C   C52       1.0  0.66430  0.48223  0.38050  1.0000
  H   H28       1.0  0.78677  0.45746  0.32661  1.0000
  H   H29       1.0  0.77428  0.48395  0.32210  1.0000
  H   H30       1.0  0.69876  0.49401  0.39048  1.0000
  H   H31       1.0  0.85513  0.65460  0.27738  1.0000
  H   H32       1.0  0.87433  0.69458  0.27928  1.0000
  H   H33       1.0  0.66021  0.46624  0.39762  1.0000
  H   H34       1.0  0.81565  0.61966  0.26882  1.0000
  H   H35       1.0  0.78708  0.52452  0.26331  1.0000
  H   H36       1.0  0.72159  0.54422  0.28247  1.0000
  C   C53       1.0  0.26941  0.13725  0.32792  1.0000
  C   C54       1.0  0.25711  0.13720  0.25222  1.0000
  C   C55       1.0  0.23337  0.12494  0.24985  1.0000
  C   C56       1.0  0.22157  0.11219  0.32637  1.0000
  C   C57       1.0  0.19782  0.09891  0.32928  1.0000
  C   C58       1.0  0.18637  0.07980  0.27432  1.0000
  C   C59       1.0  0.16284  0.06680  0.27638  1.0000
  C   C60       1.0  0.15003  0.07249  0.33333  1.0000
  H   H37       1.0  0.19509  0.07530  0.23182  1.0000
  H   H38       1.0  0.15512  0.05339  0.23407  1.0000
  H   H39       1.0  0.26565  0.14615  0.19694  1.0000
  N   N1        1.0  0.22284  0.12624  0.17507  1.0000
  H   H40       1.0  0.23128  0.13539  0.12426  1.0000
  H   H41       1.0  0.20664  0.11907  0.17136  1.0000
  C   C61       1.0  0.85372  0.13255  0.32788  1.0000
  C   C62       1.0  0.85394  0.12047  0.25187  1.0000
  C   C63       1.0  0.86623  0.10902  0.24948  1.0000
  C   C64       1.0  0.87881  0.10980  0.32629  1.0000
  C   C65       1.0  0.89210  0.09934  0.32922  1.0000
  C   C66       1.0  0.91138  0.10721  0.27511  1.0000
  C   C67       1.0  0.92440  0.09671  0.27719  1.0000
  C   C68       1.0  0.91856  0.07803  0.33328  1.0000
  H   H42       1.0  0.91598  0.12056  0.23321  1.0000
  H   H43       1.0  0.93794  0.10255  0.23548  1.0000
  H   H44       1.0  0.84511  0.12018  0.19639  1.0000
  N   N2        1.0  0.86512  0.09738  0.17434  1.0000
  H   H45       1.0  0.85612  0.09682  0.12323  1.0000
  H   H46       1.0  0.87237  0.08842  0.17044  1.0000
  C   C69       1.0  0.85846  0.72164  0.32780  1.0000
  C   C70       1.0  0.87078  0.73394  0.25219  1.0000
  C   C71       1.0  0.88224  0.75768  0.24976  1.0000
  C   C72       1.0  0.88123  0.76949  0.32613  1.0000
  C   C73       1.0  0.89170  0.79325  0.32897  1.0000
  C   C74       1.0  0.88406  0.80468  0.27381  1.0000
  C   C75       1.0  0.89458  0.82822  0.27584  1.0000
  C   C76       1.0  0.91305  0.84104  0.33291  1.0000
  H   H47       1.0  0.87087  0.79595  0.23122  1.0000
  H   H48       1.0  0.88891  0.83593  0.23339  1.0000
  H   H49       1.0  0.87124  0.72540  0.19702  1.0000
  N   N3        1.0  0.89414  0.76821  0.17509  1.0000
  H   H50       1.0  0.89482  0.75976  0.12424  1.0000
  H   H51       1.0  0.90309  0.78442  0.17119  1.0000
  C   C77       1.0  0.54458  0.14357  0.27821  1.0000
  C   C78       1.0  0.52521  0.14544  0.28296  1.0000
  H   H52       1.0  0.54783  0.13795  0.21990  1.0000
  H   H53       1.0  0.51519  0.14144  0.22769  1.0000
  C   C79       1.0  0.61842  0.17352  0.26504  1.0000
  C   C80       1.0  0.59618  0.16886  0.27257  1.0000
  H   H54       1.0  0.62882  0.18586  0.22174  1.0000
  H   H55       1.0  0.59130  0.17828  0.23625  1.0000
  C   C81       1.0  0.84738  0.40138  0.27805  1.0000
  C   C82       1.0  0.84552  0.38015  0.28285  1.0000
  H   H56       1.0  0.85299  0.41025  0.21974  1.0000
  H   H57       1.0  0.84952  0.37412  0.22761  1.0000
  C   C83       1.0  0.81744  0.44531  0.26489  1.0000
  C   C84       1.0  0.82208  0.42772  0.27245  1.0000
  H   H58       1.0  0.80512  0.44340  0.22156  1.0000
  H   H59       1.0  0.81270  0.41344  0.23594  1.0000
  C   C85       1.0  0.58958  0.44638  0.27823  1.0000
  C   C86       1.0  0.61080  0.46577  0.28301  1.0000
  H   H60       1.0  0.58072  0.44310  0.21987  1.0000
  H   H61       1.0  0.61685  0.47575  0.22763  1.0000
  C   C87       1.0  0.54566  0.37253  0.26501  1.0000
  C   C88       1.0  0.56325  0.39476  0.27261  1.0000
  H   H62       1.0  0.54759  0.36211  0.22174  1.0000
  H   H63       1.0  0.57755  0.39964  0.23628  1.0000
  C   C89       1.0  0.94769  0.87815  0.33099  1.0000
  C   C90       1.0  0.95852  0.90172  0.32920  1.0000
  C   C91       1.0  0.97290  0.95015  0.38015  1.0000
  C   C92       1.0  0.98309  0.97338  0.37576  1.0000
  C   C93       1.0  0.97038  0.98436  0.37640  1.0000
  C   C94       1.0  0.98087  0.00801  0.37587  1.0000
  C   C95       1.0  0.00456  0.02073  0.37662  1.0000
  C   C96       1.0  0.01772  0.01023  0.37600  1.0000
  C   C97       1.0  0.00673  0.98654  0.37652  1.0000
  C   C98       1.0  0.04094  0.02327  0.38047  1.0000
  C   C99       1.0  0.07823  0.03362  0.33105  1.0000
  C   C100      1.0  0.08938  0.05731  0.32947  1.0000
  C   C101      1.0  0.11294  0.07004  0.33131  1.0000
  C   C102      1.0  0.96783  0.01820  0.38026  1.0000
  C   C103      1.0  0.95752  0.04518  0.33107  1.0000
  C   C104      1.0  0.96804  0.06880  0.33454  1.0000
  C   C105      1.0  0.95525  0.07956  0.33609  1.0000
  H   H64       1.0  0.95732  0.87070  0.32809  1.0000
  H   H65       1.0  0.97564  0.91065  0.32549  1.0000
  H   H66       1.0  0.01610  0.97875  0.37864  1.0000
  H   H67       1.0  0.95323  0.97499  0.37841  1.0000
  H   H68       1.0  0.01235  0.03788  0.37878  1.0000
  H   H69       1.0  0.12040  0.08713  0.32815  1.0000
  H   H70       1.0  0.08046  0.06551  0.32557  1.0000
  H   H71       1.0  0.96349  0.09668  0.33970  1.0000
  H   H72       1.0  0.98516  0.07842  0.33613  1.0000
  H   H73       1.0  0.04730  0.03543  0.42600  1.0000
  H   H74       1.0  0.97867  0.94378  0.42571  1.0000
  H   H75       1.0  0.95559  0.01232  0.42542  1.0000
  C   C106      1.0  0.48657  0.33326  0.31569  1.0000
  C   C107      1.0  0.47080  0.31013  0.31363  1.0000
  C   C108      1.0  0.44764  0.25956  0.37208  1.0000
  C   C109      1.0  0.43639  0.23630  0.37521  1.0000
  C   C110      1.0  0.44860  0.22495  0.38493  1.0000
  C   C111      1.0  0.43759  0.20138  0.39252  1.0000
  C   C112      1.0  0.41395  0.18904  0.39228  1.0000
  C   C113      1.0  0.40135  0.20003  0.38347  1.0000
  C   C114      1.0  0.41273  0.22369  0.37583  1.0000
  C   C115      1.0  0.37817  0.18766  0.38856  1.0000
  C   C116      1.0  0.34126  0.17475  0.32721  1.0000
  C   C117      1.0  0.32959  0.15214  0.35578  1.0000
  C   C118      1.0  0.30601  0.13993  0.35704  1.0000
  C   C119      1.0  0.45027  0.19119  0.40615  1.0000
  C   C120      1.0  0.47018  0.17341  0.34997  1.0000
  C   C121      1.0  0.46500  0.15147  0.32633  1.0000
  C   C122      1.0  0.48150  0.14510  0.33027  1.0000
  H   H76       1.0  0.48090  0.34442  0.31228  1.0000
  H   H77       1.0  0.45410  0.30506  0.30929  1.0000
  H   H78       1.0  0.40372  0.23182  0.37171  1.0000
  H   H79       1.0  0.46578  0.23400  0.38754  1.0000
  H   H80       1.0  0.40588  0.17197  0.39997  1.0000
  H   H81       1.0  0.29819  0.12351  0.37678  1.0000
  H   H82       1.0  0.33815  0.14424  0.37487  1.0000
  H   H83       1.0  0.47720  0.12907  0.31294  1.0000
  H   H84       1.0  0.44918  0.13996  0.30565  1.0000
  H   H85       1.0  0.37158  0.17853  0.44339  1.0000
  H   H86       1.0  0.44523  0.26756  0.42234  1.0000
  H   H87       1.0  0.45852  0.19441  0.46376  1.0000
  C   C123      1.0  0.65769  0.15371  0.31579  1.0000
  C   C124      1.0  0.68082  0.16107  0.31379  1.0000
  C   C125      1.0  0.73138  0.18845  0.37220  1.0000
  C   C126      1.0  0.75463  0.20045  0.37534  1.0000
  C   C127      1.0  0.76599  0.22402  0.38499  1.0000
  C   C128      1.0  0.78955  0.23655  0.39260  1.0000
  C   C129      1.0  0.80188  0.22524  0.39239  1.0000
  C   C130      1.0  0.79088  0.20165  0.38363  1.0000
  C   C131      1.0  0.76723  0.18938  0.37594  1.0000
  C   C132      1.0  0.80323  0.19083  0.38873  1.0000
  C   C133      1.0  0.81621  0.16689  0.32716  1.0000
  C   C134      1.0  0.83876  0.17778  0.35639  1.0000
  C   C135      1.0  0.85098  0.16642  0.35760  1.0000
  C   C136      1.0  0.79974  0.25943  0.40610  1.0000
  C   C137      1.0  0.81755  0.29714  0.34996  1.0000
  C   C138      1.0  0.83949  0.31389  0.32635  1.0000
  C   C139      1.0  0.84587  0.33677  0.33029  1.0000
  H   H88       1.0  0.64654  0.13687  0.31251  1.0000
  H   H89       1.0  0.68589  0.14945  0.30964  1.0000
  H   H90       1.0  0.75909  0.17224  0.37187  1.0000
  H   H91       1.0  0.75694  0.23215  0.38760  1.0000
  H   H92       1.0  0.81895  0.23424  0.40005  1.0000
  H   H93       1.0  0.86735  0.17497  0.37788  1.0000
  H   H94       1.0  0.84663  0.19421  0.37596  1.0000
  H   H95       1.0  0.86189  0.34850  0.31294  1.0000
  H   H96       1.0  0.85100  0.30958  0.30567  1.0000
  H   H97       1.0  0.81229  0.19329  0.44371  1.0000
  H   H98       1.0  0.72337  0.17800  0.42239  1.0000
  H   H99       1.0  0.79662  0.26450  0.46384  1.0000
  C   C140      1.0  0.83720  0.50438  0.31595  1.0000
  C   C141      1.0  0.82981  0.52013  0.31403  1.0000
  C   C142      1.0  0.80242  0.54331  0.37234  1.0000
  C   C143      1.0  0.79045  0.55460  0.37534  1.0000
  C   C144      1.0  0.76688  0.54241  0.38501  1.0000
  C   C145      1.0  0.75436  0.55345  0.39253  1.0000
  C   C146      1.0  0.76569  0.57710  0.39227  1.0000
  C   C147      1.0  0.78928  0.58967  0.38353  1.0000
  C   C148      1.0  0.80152  0.57826  0.37595  1.0000
  C   C149      1.0  0.80011  0.61286  0.38862  1.0000
  C   C150      1.0  0.82414  0.64978  0.32725  1.0000
  C   C151      1.0  0.81317  0.66144  0.35553  1.0000
  C   C152      1.0  0.82453  0.68502  0.35676  1.0000
  C   C153      1.0  0.73149  0.54078  0.40611  1.0000
  C   C154      1.0  0.69380  0.52083  0.35000  1.0000
  C   C155      1.0  0.67705  0.52599  0.32615  1.0000
  C   C156      1.0  0.65417  0.50948  0.33014  1.0000
  H   H100      1.0  0.85403  0.51008  0.31251  1.0000
  H   H101      1.0  0.84142  0.53684  0.30977  1.0000
  H   H102      1.0  0.81867  0.58726  0.37190  1.0000
  H   H103      1.0  0.75874  0.52522  0.38766  1.0000
  H   H104      1.0  0.75670  0.58518  0.39992  1.0000
  H   H105      1.0  0.81592  0.69284  0.37625  1.0000
  H   H106      1.0  0.79670  0.65287  0.37444  1.0000
  H   H107      1.0  0.64245  0.51377  0.31264  1.0000
  H   H108      1.0  0.68136  0.54180  0.30529  1.0000
  H   H109      1.0  0.79755  0.61945  0.44337  1.0000
  H   H110      1.0  0.81297  0.54586  0.42225  1.0000
  H   H111      1.0  0.72645  0.53262  0.46391  1.0000
  C   C157      1.0  0.23379  0.11230  0.40236  1.0000
  C   C158      1.0  0.25732  0.12454  0.40297  1.0000
  H   H112      1.0  0.22564  0.10320  0.45795  1.0000
  H   H113      1.0  0.26555  0.12432  0.45951  1.0000
  C   C159      1.0  0.16166  0.09155  0.38891  1.0000
  C   C160      1.0  0.18521  0.10450  0.38736  1.0000
  H   H114      1.0  0.15308  0.09607  0.43198  1.0000
  H   H115      1.0  0.19306  0.11823  0.42808  1.0000
  C   C161      1.0  0.87852  0.12173  0.40261  1.0000
  C   C162      1.0  0.86627  0.13301  0.40322  1.0000
  H   H116      1.0  0.88750  0.12256  0.45841  1.0000
  H   H117      1.0  0.86635  0.14132  0.45998  1.0000
  C   C163      1.0  0.89934  0.07039  0.38801  1.0000
  C   C164      1.0  0.88637  0.08097  0.38648  1.0000
  H   H118      1.0  0.89471  0.05715  0.43046  1.0000
  H   H119      1.0  0.87251  0.07493  0.42654  1.0000
  C   C165      1.0  0.86905  0.75728  0.40202  1.0000
  C   C166      1.0  0.85777  0.73374  0.40269  1.0000
  H   H120      1.0  0.86805  0.76543  0.45751  1.0000
  H   H121      1.0  0.84928  0.72551  0.45916  1.0000
  C   C167      1.0  0.92045  0.82943  0.38867  1.0000
  C   C168      1.0  0.90986  0.80588  0.38721  1.0000
  H   H122      1.0  0.93352  0.83802  0.43185  1.0000
  H   H123      1.0  0.91572  0.79804  0.42806  1.0000
  C   C169      1.0  0.52089  0.15479  0.35899  1.0000
  C   C170      1.0  0.53586  0.16093  0.43194  1.0000
  C   C171      1.0  0.55563  0.15946  0.42841  1.0000
  C   C172      1.0  0.56012  0.15080  0.34949  1.0000
  C   C173      1.0  0.58132  0.15263  0.33380  1.0000
  C   C174      1.0  0.58896  0.14038  0.38401  1.0000
  C   C175      1.0  0.61131  0.14516  0.37657  1.0000
  C   C176      1.0  0.62660  0.16225  0.31874  1.0000
  H   H124      1.0  0.57864  0.12879  0.42989  1.0000
  H   H125      1.0  0.61666  0.13693  0.41782  1.0000
  H   H126      1.0  0.53291  0.16780  0.48734  1.0000
  N   N4        1.0  0.56997  0.16759  0.49906  1.0000
  H   H127      1.0  0.56658  0.17376  0.55135  1.0000
  H   H128      1.0  0.58422  0.16795  0.49946  1.0000
  C   C177      1.0  0.83617  0.36647  0.35889  1.0000
  C   C178      1.0  0.83003  0.37531  0.43181  1.0000
  C   C179      1.0  0.83150  0.39656  0.42829  1.0000
  C   C180      1.0  0.84013  0.40970  0.34930  1.0000
  C   C181      1.0  0.83831  0.42908  0.33366  1.0000
  C   C182      1.0  0.85056  0.44896  0.38388  1.0000
  C   C183      1.0  0.84579  0.46655  0.37650  1.0000
  C   C184      1.0  0.82870  0.46475  0.31869  1.0000
  H   H129      1.0  0.86212  0.45022  0.42988  1.0000
  H   H130      1.0  0.85397  0.48009  0.41794  1.0000
  H   H131      1.0  0.82319  0.36551  0.48728  1.0000
  N   N5        1.0  0.82337  0.40278  0.49892  1.0000
  H   H132      1.0  0.81717  0.39320  0.55116  1.0000
  H   H133      1.0  0.82295  0.41663  0.49923  1.0000
  C   C185      1.0  0.62448  0.47009  0.35902  1.0000
  C   C186      1.0  0.61564  0.45513  0.43201  1.0000
  C   C187      1.0  0.59440  0.43536  0.42850  1.0000
  C   C188      1.0  0.58125  0.43084  0.34953  1.0000
  C   C189      1.0  0.56189  0.40962  0.33385  1.0000
  C   C190      1.0  0.54200  0.40200  0.38394  1.0000
  C   C191      1.0  0.52439  0.37965  0.37643  1.0000
  C   C192      1.0  0.52621  0.36435  0.31867  1.0000
  H   H134      1.0  0.54073  0.41231  0.42993  1.0000
  H   H135      1.0  0.51085  0.37429  0.41783  1.0000
  H   H136      1.0  0.62544  0.45810  0.48748  1.0000
  N   N6        1.0  0.58816  0.42103  0.49920  1.0000
  H   H137      1.0  0.59772  0.42442  0.55149  1.0000
  H   H138      1.0  0.57429  0.40677  0.49959  1.0000
