data_image0
_chemical_formula_structural       C8H8C4H2C16H4CN2C4NH2NC8H8C4H2C16H4CN2C4NH2NC8H8C4H2C16H4CN2C4NH2NC8H8C4H2C16H4CN2C4NH2N
_chemical_formula_sum              "C132 H64 N16"
_cell_length_a       25.2649
_cell_length_b       25.2648
_cell_length_c       14.9998
_cell_angle_alpha    90
_cell_angle_beta     90
_cell_angle_gamma    89.9977

_space_group_name_H-M_alt    "P 1"
_space_group_IT_number       1

loop_
  _space_group_symop_operation_xyz
  'x, y, z'

loop_
  _atom_site_type_symbol
  _atom_site_label
  _atom_site_symmetry_multiplicity
  _atom_site_fract_x
  _atom_site_fract_y
  _atom_site_fract_z
  _atom_site_occupancy
  C   C1        1.0  0.00619  0.47227  0.28688  1.0000
  C   C2        1.0  0.00628  0.02773  0.28686  1.0000
  C   C3        1.0  0.99988  0.13833  0.32202  1.0000
  C   C4        1.0  0.00199  0.11848  0.23354  1.0000
  C   C5        1.0  0.00523  0.06393  0.21582  1.0000
  C   C6        1.0  0.00526  0.43605  0.21589  1.0000
  C   C7        1.0  0.00201  0.38150  0.23366  1.0000
  C   C8        1.0  0.99981  0.36169  0.32216  1.0000
  H   H1        1.0  0.14644  0.99999  0.02879  1.0000
  H   H2        1.0  0.05492  0.99997  0.05571  1.0000
  H   H3        1.0  0.45545  0.49987  0.05577  1.0000
  H   H4        1.0  0.36387  0.49990  0.02883  1.0000
  H   H5        1.0  0.00077  0.14381  0.18028  1.0000
  H   H6        1.0  0.00559  0.05128  0.15163  1.0000
  H   H7        1.0  0.00574  0.44866  0.15169  1.0000
  H   H8        1.0  0.00085  0.35614  0.18044  1.0000
  C   C9        1.0  0.49305  0.30592  0.33508  1.0000
  C   C10       1.0  0.45376  0.27781  0.28756  1.0000
  C   C11       1.0  0.95376  0.22221  0.28750  1.0000
  C   C12       1.0  0.99314  0.19411  0.33485  1.0000
  H   H9        1.0  0.92634  0.20263  0.24960  1.0000
  H   H10       1.0  0.42631  0.29741  0.24974  1.0000
  C   C13       1.0  0.00522  0.45399  0.37488  1.0000
  C   C14       1.0  0.00526  0.04604  0.37484  1.0000
  C   C15       1.0  0.00285  0.10121  0.39311  1.0000
  C   C16       1.0  0.00282  0.39883  0.39322  1.0000
  C   C17       1.0  0.05067  0.00002  0.49887  1.0000
  C   C18       1.0  0.03252  0.99999  0.58667  1.0000
  C   C19       1.0  0.47780  0.49999  0.58667  1.0000
  C   C20       1.0  0.45965  0.50004  0.49886  1.0000
  C   C21       1.0  0.44248  0.49993  0.65839  1.0000
  C   C22       1.0  0.38813  0.49996  0.64092  1.0000
  C   C23       1.0  0.36755  0.50005  0.55236  1.0000
  C   C24       1.0  0.40471  0.50007  0.48106  1.0000
  C   C25       1.0  0.10561  0.00005  0.48106  1.0000
  C   C26       1.0  0.14278  0.00006  0.55234  1.0000
  C   C27       1.0  0.12220  0.00001  0.64089  1.0000
  C   C28       1.0  0.06785  0.99998  0.65835  1.0000
  H   H11       1.0  0.39268  0.50013  0.41613  1.0000
  H   H12       1.0  0.11765  0.00010  0.41614  1.0000
  H   H13       1.0  0.00073  0.11388  0.45776  1.0000
  H   H14       1.0  0.00065  0.38619  0.45788  1.0000
  C   C29       1.0  0.00519  0.00003  0.43660  1.0000
  N   N1        1.0  0.02875  0.22388  0.38138  1.0000
  N   N2        1.0  0.52871  0.27611  0.38145  1.0000
  C   C30       1.0  0.19906  0.50012  0.53953  1.0000
  C   C31       1.0  0.22718  0.49988  0.45775  1.0000
  C   C32       1.0  0.28315  0.49988  0.45776  1.0000
  C   C33       1.0  0.31127  0.50011  0.53954  1.0000
  N   N3        1.0  0.28074  0.50039  0.61387  1.0000
  H   H15       1.0  0.30251  0.49965  0.39804  1.0000
  H   H16       1.0  0.20783  0.49966  0.39804  1.0000
  N   N4        1.0  0.22959  0.50039  0.61386  1.0000
  C   C34       1.0  0.00619  0.97227  0.28688  1.0000
  C   C35       1.0  0.00628  0.52773  0.28686  1.0000
  C   C36       1.0  0.99988  0.63833  0.32202  1.0000
  C   C37       1.0  0.00199  0.61848  0.23354  1.0000
  C   C38       1.0  0.00523  0.56393  0.21582  1.0000
  C   C39       1.0  0.00526  0.93604  0.21589  1.0000
  C   C40       1.0  0.00201  0.88150  0.23366  1.0000
  C   C41       1.0  0.99981  0.86170  0.32216  1.0000
  H   H17       1.0  0.14646  0.50000  0.02880  1.0000
  H   H18       1.0  0.05492  0.49997  0.05570  1.0000
  H   H19       1.0  0.45545  0.99987  0.05577  1.0000
  H   H20       1.0  0.36387  0.99990  0.02883  1.0000
  H   H21       1.0  0.00077  0.64382  0.18028  1.0000
  H   H22       1.0  0.00559  0.55128  0.15163  1.0000
  H   H23       1.0  0.00574  0.94866  0.15169  1.0000
  H   H24       1.0  0.00085  0.85614  0.18044  1.0000
  C   C42       1.0  0.49305  0.80592  0.33508  1.0000
  C   C43       1.0  0.45376  0.77781  0.28756  1.0000
  C   C44       1.0  0.95376  0.72221  0.28750  1.0000
  C   C45       1.0  0.99314  0.69411  0.33485  1.0000
  H   H25       1.0  0.92634  0.70263  0.24960  1.0000
  H   H26       1.0  0.42631  0.79741  0.24974  1.0000
  C   C46       1.0  0.00522  0.95400  0.37488  1.0000
  C   C47       1.0  0.00526  0.54604  0.37484  1.0000
  C   C48       1.0  0.00285  0.60122  0.39311  1.0000
  C   C49       1.0  0.00282  0.89883  0.39322  1.0000
  C   C50       1.0  0.05067  0.50002  0.49887  1.0000
  C   C51       1.0  0.03252  0.49999  0.58667  1.0000
  C   C52       1.0  0.47780  0.99999  0.58667  1.0000
  C   C53       1.0  0.45965  0.00004  0.49886  1.0000
  C   C54       1.0  0.44248  0.99993  0.65839  1.0000
  C   C55       1.0  0.38813  0.99996  0.64092  1.0000
  C   C56       1.0  0.36755  0.00005  0.55236  1.0000
  C   C57       1.0  0.40471  0.00007  0.48106  1.0000
  C   C58       1.0  0.10561  0.50005  0.48106  1.0000
  C   C59       1.0  0.14278  0.50006  0.55234  1.0000
  C   C60       1.0  0.12221  0.50001  0.64089  1.0000
  C   C61       1.0  0.06786  0.49998  0.65834  1.0000
  H   H27       1.0  0.39268  0.00014  0.41613  1.0000
  H   H28       1.0  0.11765  0.50010  0.41614  1.0000
  H   H29       1.0  0.00073  0.61388  0.45777  1.0000
  H   H30       1.0  0.00065  0.88619  0.45788  1.0000
  C   C62       1.0  0.00519  0.50003  0.43660  1.0000
  N   N5        1.0  0.02875  0.72388  0.38138  1.0000
  N   N6        1.0  0.52871  0.77611  0.38145  1.0000
  C   C63       1.0  0.19906  0.00012  0.53953  1.0000
  C   C64       1.0  0.22718  0.99988  0.45775  1.0000
  C   C65       1.0  0.28315  0.99987  0.45776  1.0000
  C   C66       1.0  0.31127  0.00011  0.53954  1.0000
  N   N7        1.0  0.28074  0.00039  0.61387  1.0000
  H   H31       1.0  0.30251  0.99964  0.39804  1.0000
  H   H32       1.0  0.20783  0.99965  0.39804  1.0000
  N   N8        1.0  0.22959  0.00040  0.61386  1.0000
  C   C67       1.0  0.50619  0.47227  0.28688  1.0000
  C   C68       1.0  0.50628  0.02773  0.28686  1.0000
  C   C69       1.0  0.49988  0.13833  0.32202  1.0000
  C   C70       1.0  0.50199  0.11848  0.23354  1.0000
  C   C71       1.0  0.50523  0.06393  0.21582  1.0000
  C   C72       1.0  0.50526  0.43605  0.21589  1.0000
  C   C73       1.0  0.50201  0.38150  0.23366  1.0000
  C   C74       1.0  0.49981  0.36169  0.32216  1.0000
  H   H33       1.0  0.64645  0.99999  0.02879  1.0000
  H   H34       1.0  0.55492  0.99997  0.05571  1.0000
  H   H35       1.0  0.95545  0.49987  0.05577  1.0000
  H   H36       1.0  0.86387  0.49990  0.02883  1.0000
  H   H37       1.0  0.50076  0.14381  0.18028  1.0000
  H   H38       1.0  0.50559  0.05128  0.15163  1.0000
  H   H39       1.0  0.50574  0.44866  0.15169  1.0000
  H   H40       1.0  0.50085  0.35614  0.18044  1.0000
  C   C75       1.0  0.99305  0.30592  0.33508  1.0000
  C   C76       1.0  0.95375  0.27781  0.28756  1.0000
  C   C77       1.0  0.45377  0.22221  0.28750  1.0000
  C   C78       1.0  0.49313  0.19411  0.33485  1.0000
  H   H41       1.0  0.42635  0.20263  0.24960  1.0000
  H   H42       1.0  0.92631  0.29741  0.24974  1.0000
  C   C79       1.0  0.50522  0.45399  0.37488  1.0000
  C   C80       1.0  0.50526  0.04604  0.37484  1.0000
  C   C81       1.0  0.50284  0.10121  0.39311  1.0000
  C   C82       1.0  0.50282  0.39883  0.39322  1.0000
  C   C83       1.0  0.55067  0.00002  0.49887  1.0000
  C   C84       1.0  0.53252  0.99999  0.58667  1.0000
  C   C85       1.0  0.97779  0.49999  0.58667  1.0000
  C   C86       1.0  0.95965  0.50004  0.49886  1.0000
  C   C87       1.0  0.94248  0.49993  0.65839  1.0000
  C   C88       1.0  0.88812  0.49996  0.64092  1.0000
  C   C89       1.0  0.86755  0.50005  0.55236  1.0000
  C   C90       1.0  0.90471  0.50007  0.48106  1.0000
  C   C91       1.0  0.60561  0.00005  0.48106  1.0000
  C   C92       1.0  0.64278  0.00006  0.55234  1.0000
  C   C93       1.0  0.62220  0.00001  0.64089  1.0000
  C   C94       1.0  0.56785  0.99998  0.65835  1.0000
  H   H43       1.0  0.89268  0.50013  0.41613  1.0000
  H   H44       1.0  0.61765  0.00010  0.41614  1.0000
  H   H45       1.0  0.50073  0.11388  0.45776  1.0000
  H   H46       1.0  0.50065  0.38619  0.45788  1.0000
  C   C95       1.0  0.50519  0.00003  0.43660  1.0000
  N   N9        1.0  0.52875  0.22388  0.38138  1.0000
  N   N10       1.0  0.02871  0.27611  0.38145  1.0000
  C   C96       1.0  0.69906  0.50012  0.53953  1.0000
  C   C97       1.0  0.72718  0.49988  0.45775  1.0000
  C   C98       1.0  0.78315  0.49988  0.45776  1.0000
  C   C99       1.0  0.81127  0.50011  0.53954  1.0000
  N   N11       1.0  0.78074  0.50039  0.61387  1.0000
  H   H47       1.0  0.80251  0.49965  0.39804  1.0000
  H   H48       1.0  0.70782  0.49966  0.39804  1.0000
  N   N12       1.0  0.72959  0.50039  0.61386  1.0000
  C   C100      1.0  0.50619  0.97227  0.28688  1.0000
  C   C101      1.0  0.50628  0.52773  0.28686  1.0000
  C   C102      1.0  0.49988  0.63833  0.32202  1.0000
  C   C103      1.0  0.50199  0.61848  0.23354  1.0000
  C   C104      1.0  0.50523  0.56393  0.21582  1.0000
  C   C105      1.0  0.50526  0.93604  0.21589  1.0000
  C   C106      1.0  0.50201  0.88150  0.23366  1.0000
  C   C107      1.0  0.49981  0.86170  0.32216  1.0000
  H   H49       1.0  0.64646  0.50000  0.02880  1.0000
  H   H50       1.0  0.55492  0.49997  0.05570  1.0000
  H   H51       1.0  0.95545  0.99987  0.05577  1.0000
  H   H52       1.0  0.86387  0.99990  0.02883  1.0000
  H   H53       1.0  0.50076  0.64382  0.18028  1.0000
  H   H54       1.0  0.50559  0.55128  0.15163  1.0000
  H   H55       1.0  0.50574  0.94866  0.15169  1.0000
  H   H56       1.0  0.50085  0.85614  0.18044  1.0000
  C   C108      1.0  0.99306  0.80592  0.33508  1.0000
  C   C109      1.0  0.95375  0.77781  0.28756  1.0000
  C   C110      1.0  0.45376  0.72221  0.28750  1.0000
  C   C111      1.0  0.49314  0.69411  0.33485  1.0000
  H   H57       1.0  0.42634  0.70263  0.24960  1.0000
  H   H58       1.0  0.92631  0.79741  0.24974  1.0000
  C   C112      1.0  0.50522  0.95400  0.37488  1.0000
  C   C113      1.0  0.50526  0.54604  0.37484  1.0000
  C   C114      1.0  0.50285  0.60122  0.39311  1.0000
  C   C115      1.0  0.50282  0.89883  0.39322  1.0000
  C   C116      1.0  0.55067  0.50002  0.49887  1.0000
  C   C117      1.0  0.53252  0.49999  0.58667  1.0000
  C   C118      1.0  0.97779  0.99999  0.58667  1.0000
  C   C119      1.0  0.95965  0.00004  0.49886  1.0000
  C   C120      1.0  0.94248  0.99993  0.65839  1.0000
  C   C121      1.0  0.88812  0.99996  0.64092  1.0000
  C   C122      1.0  0.86755  0.00005  0.55236  1.0000
  C   C123      1.0  0.90471  0.00007  0.48106  1.0000
  C   C124      1.0  0.60561  0.50005  0.48106  1.0000
  C   C125      1.0  0.64278  0.50006  0.55234  1.0000
  C   C126      1.0  0.62221  0.50001  0.64089  1.0000
  C   C127      1.0  0.56786  0.49998  0.65834  1.0000
  H   H59       1.0  0.89268  0.00014  0.41613  1.0000
  H   H60       1.0  0.61765  0.50010  0.41614  1.0000
  H   H61       1.0  0.50073  0.61388  0.45777  1.0000
  H   H62       1.0  0.50065  0.88619  0.45788  1.0000
  C   C128      1.0  0.50519  0.50003  0.43660  1.0000
  N   N13       1.0  0.52875  0.72388  0.38138  1.0000
  N   N14       1.0  0.02871  0.77611  0.38145  1.0000
  C   C129      1.0  0.69906  0.00012  0.53953  1.0000
  C   C130      1.0  0.72718  0.99988  0.45775  1.0000
  C   C131      1.0  0.78315  0.99987  0.45776  1.0000
  C   C132      1.0  0.81127  0.00011  0.53954  1.0000
  N   N15       1.0  0.78074  0.00039  0.61387  1.0000
  H   H63       1.0  0.80251  0.99964  0.39804  1.0000
  H   H64       1.0  0.70783  0.99965  0.39804  1.0000
  N   N16       1.0  0.72959  0.00040  0.61386  1.0000
