data_image0
_chemical_formula_structural       C2HNC2HCHC6H2CHC2HC6H3CHC2HC6H3CHC2NC2HNHCHC2NC2HNHCHC2NC2HNHCHC2NC2HNHCHC2NC2HNHCHC2NC2HNHCHC6H3N3C6H3N3C6H3N3C6H3N3C6H3N3C6H3N3CNHCHC2NC2HNHCHC2NC2HNHCHC2HC6H3CHC2HC6H3CHC2HC6H3CHC2HC6H3CHC2HC6H3CHC2HC6H3CH
_chemical_formula_sum              "C162 H90 N36"
_cell_length_a       61.0759
_cell_length_b       61.076
_cell_length_c       14.964
_cell_angle_alpha    90
_cell_angle_beta     90
_cell_angle_gamma    120

_space_group_name_H-M_alt    "P 1"
_space_group_IT_number       1

loop_
  _space_group_symop_operation_xyz
  'x, y, z'

loop_
  _atom_site_type_symbol
  _atom_site_label
  _atom_site_symmetry_multiplicity
  _atom_site_fract_x
  _atom_site_fract_y
  _atom_site_fract_z
  _atom_site_occupancy
  C   C1        1.0  0.03141  0.51766  0.27269  1.0000
  C   C2        1.0  0.02112  0.51886  0.18960  1.0000
  H   H1        1.0  0.03265  0.52748  0.13589  1.0000
  N   N1        1.0  0.02511  0.50434  0.42564  1.0000
  C   C3        1.0  0.01498  0.50554  0.34616  1.0000
  C   C4        1.0  0.05028  0.51415  0.43896  1.0000
  H   H2        1.0  0.05631  0.51232  0.50085  1.0000
  C   C5        1.0  0.05772  0.52812  0.28514  1.0000
  H   H3        1.0  0.06971  0.53661  0.23230  1.0000
  C   C6        1.0  0.06767  0.52658  0.36886  1.0000
  C   C7        1.0  0.98855  0.49489  0.33595  1.0000
  C   C8        1.0  0.93573  0.47395  0.31797  1.0000
  C   C9        1.0  0.95197  0.48591  0.24446  1.0000
  C   C10       1.0  0.97841  0.49638  0.25220  1.0000
  C   C11       1.0  0.99486  0.50834  0.17947  1.0000
  H   H4        1.0  0.98786  0.50956  0.11862  1.0000
  H   H5        1.0  0.94449  0.48707  0.18448  1.0000
  C   C12       1.0  0.90992  0.46469  0.30992  1.0000
  H   H6        1.0  0.90407  0.47353  0.26870  1.0000
  C   C13       1.0  0.48534  0.51435  0.27265  1.0000
  C   C14       1.0  0.47489  0.53021  0.28511  1.0000
  H   H7        1.0  0.46639  0.53371  0.23227  1.0000
  C   C15       1.0  0.50811  0.49427  0.33588  1.0000
  C   C16       1.0  0.52906  0.46239  0.31786  1.0000
  C   C17       1.0  0.51709  0.46667  0.24436  1.0000
  C   C18       1.0  0.50662  0.48264  0.25212  1.0000
  C   C19       1.0  0.49467  0.48713  0.17940  1.0000
  C   C20       1.0  0.48414  0.50287  0.18955  1.0000
  H   H8        1.0  0.49345  0.47893  0.11854  1.0000
  H   H9        1.0  0.47553  0.50579  0.13584  1.0000
  H   H10       1.0  0.51594  0.45804  0.18437  1.0000
  C   C21       1.0  0.53833  0.44584  0.30977  1.0000
  H   H11       1.0  0.52949  0.43116  0.26854  1.0000
  C   C22       1.0  0.48866  0.97159  0.27269  1.0000
  C   C23       1.0  0.47280  0.94528  0.28513  1.0000
  H   H12       1.0  0.46930  0.93329  0.23229  1.0000
  C   C24       1.0  0.50874  0.01445  0.33595  1.0000
  C   C25       1.0  0.54063  0.06728  0.31797  1.0000
  C   C26       1.0  0.53635  0.05103  0.24446  1.0000
  C   C27       1.0  0.52037  0.02459  0.25219  1.0000
  C   C28       1.0  0.51589  0.00815  0.17947  1.0000
  C   C29       1.0  0.50015  0.98189  0.18960  1.0000
  H   H13       1.0  0.52410  0.01514  0.11862  1.0000
  H   H14       1.0  0.49723  0.97035  0.13589  1.0000
  H   H15       1.0  0.54499  0.05851  0.18448  1.0000
  C   C30       1.0  0.55718  0.09309  0.30992  1.0000
  H   H16       1.0  0.57186  0.09894  0.26869  1.0000
  C   C31       1.0  0.22077  0.54777  0.30566  1.0000
  C   C32       1.0  0.23361  0.54494  0.23183  1.0000
  N   N2        1.0  0.25280  0.54016  0.24438  1.0000
  C   C33       1.0  0.26059  0.53728  0.32633  1.0000
  C   C34       1.0  0.31686  0.53333  0.26691  1.0000
  H   H17       1.0  0.22962  0.54773  0.16785  1.0000
  N   N3        1.0  0.29525  0.53442  0.26221  1.0000
  H   H18       1.0  0.32620  0.53436  0.20892  1.0000
  C   C35       1.0  0.20470  0.55746  0.29243  1.0000
  H   H19       1.0  0.20726  0.56777  0.23758  1.0000
  C   C36       1.0  0.45523  0.67360  0.30571  1.0000
  C   C37       1.0  0.45805  0.68927  0.23187  1.0000
  N   N4        1.0  0.46283  0.71323  0.24442  1.0000
  C   C38       1.0  0.46572  0.72391  0.32636  1.0000
  C   C39       1.0  0.46966  0.78412  0.26692  1.0000
  H   H20       1.0  0.45526  0.68248  0.16789  1.0000
  N   N5        1.0  0.46858  0.76143  0.26222  1.0000
  H   H21       1.0  0.46864  0.79244  0.20892  1.0000
  C   C40       1.0  0.44553  0.64783  0.29249  1.0000
  H   H22       1.0  0.43523  0.64009  0.23764  1.0000
  C   C41       1.0  0.32940  0.78223  0.30565  1.0000
  C   C42       1.0  0.31373  0.76939  0.23181  1.0000
  N   N6        1.0  0.28977  0.75020  0.24436  1.0000
  C   C43       1.0  0.27909  0.74241  0.32631  1.0000
  C   C44       1.0  0.21888  0.68614  0.26688  1.0000
  H   H23       1.0  0.32052  0.77338  0.16783  1.0000
  N   N7        1.0  0.24157  0.70775  0.26218  1.0000
  H   H24       1.0  0.21056  0.67680  0.20889  1.0000
  C   C45       1.0  0.35517  0.79830  0.29242  1.0000
  H   H25       1.0  0.36291  0.79574  0.23757  1.0000
  C   C46       1.0  0.78322  0.45398  0.30258  1.0000
  C   C47       1.0  0.77011  0.45673  0.22948  1.0000
  N   N8        1.0  0.75111  0.46174  0.24313  1.0000
  C   C48       1.0  0.74378  0.46492  0.32550  1.0000
  C   C49       1.0  0.68749  0.46916  0.26926  1.0000
  H   H26       1.0  0.77375  0.45370  0.16530  1.0000
  N   N9        1.0  0.70899  0.46791  0.26334  1.0000
  H   H27       1.0  0.67794  0.46808  0.21177  1.0000
  C   C50       1.0  0.79899  0.44397  0.28859  1.0000
  H   H28       1.0  0.79584  0.43319  0.23464  1.0000
  C   C51       1.0  0.54902  0.32983  0.30253  1.0000
  C   C52       1.0  0.54626  0.31397  0.22944  1.0000
  N   N10       1.0  0.54125  0.28996  0.24310  1.0000
  C   C53       1.0  0.53808  0.27945  0.32548  1.0000
  C   C54       1.0  0.53384  0.21893  0.26928  1.0000
  H   H29       1.0  0.54929  0.32063  0.16525  1.0000
  N   N11       1.0  0.53508  0.24167  0.26335  1.0000
  H   H30       1.0  0.53492  0.21045  0.21180  1.0000
  C   C55       1.0  0.55902  0.35561  0.28851  1.0000
  H   H31       1.0  0.56979  0.36324  0.23455  1.0000
  C   C56       1.0  0.67317  0.21978  0.30258  1.0000
  C   C57       1.0  0.68903  0.23290  0.22948  1.0000
  N   N12       1.0  0.71303  0.25189  0.24313  1.0000
  C   C58       1.0  0.72355  0.25922  0.32550  1.0000
  C   C59       1.0  0.78407  0.31551  0.26928  1.0000
  H   H32       1.0  0.68236  0.22926  0.16530  1.0000
  N   N13       1.0  0.76133  0.29401  0.26336  1.0000
  H   H33       1.0  0.79255  0.32507  0.21179  1.0000
  C   C60       1.0  0.64739  0.20401  0.28858  1.0000
  H   H34       1.0  0.63975  0.20716  0.23464  1.0000
  C   C61       1.0  0.17577  0.56835  0.34857  1.0000
  C   C62       1.0  0.14912  0.55505  0.35139  1.0000
  C   C63       1.0  0.13541  0.56814  0.34914  1.0000
  C   C64       1.0  0.14887  0.59485  0.34467  1.0000
  C   C65       1.0  0.17560  0.60849  0.34472  1.0000
  C   C66       1.0  0.18873  0.59501  0.34652  1.0000
  H   H35       1.0  0.13915  0.60447  0.34148  1.0000
  H   H36       1.0  0.20812  0.60474  0.34654  1.0000
  H   H37       1.0  0.13969  0.53571  0.35239  1.0000
  N   N14       1.0  0.18897  0.55642  0.35198  1.0000
  N   N15       1.0  0.11026  0.55642  0.34551  1.0000
  N   N16       1.0  0.18989  0.63343  0.34122  1.0000
  C   C67       1.0  0.43465  0.60802  0.34865  1.0000
  C   C68       1.0  0.44795  0.59467  0.35154  1.0000
  C   C69       1.0  0.43486  0.56787  0.34908  1.0000
  C   C70       1.0  0.40814  0.55461  0.34460  1.0000
  C   C71       1.0  0.39451  0.56771  0.34465  1.0000
  C   C72       1.0  0.40798  0.59431  0.34649  1.0000
  H   H38       1.0  0.39853  0.53528  0.34134  1.0000
  H   H39       1.0  0.39825  0.60397  0.34648  1.0000
  H   H40       1.0  0.46729  0.60458  0.35246  1.0000
  N   N17       1.0  0.44658  0.63315  0.35205  1.0000
  N   N18       1.0  0.44659  0.55444  0.34549  1.0000
  N   N19       1.0  0.36957  0.55705  0.34104  1.0000
  C   C73       1.0  0.39498  0.82723  0.34857  1.0000
  C   C74       1.0  0.40833  0.85388  0.35139  1.0000
  C   C75       1.0  0.43513  0.86759  0.34914  1.0000
  C   C76       1.0  0.44839  0.85413  0.34468  1.0000
  C   C77       1.0  0.43529  0.82741  0.34473  1.0000
  C   C78       1.0  0.40869  0.81428  0.34652  1.0000
  H   H41       1.0  0.46772  0.86385  0.34150  1.0000
  H   H42       1.0  0.39902  0.79488  0.34654  1.0000
  H   H43       1.0  0.39842  0.86332  0.35238  1.0000
  N   N20       1.0  0.36985  0.81404  0.35196  1.0000
  N   N21       1.0  0.44856  0.89274  0.34551  1.0000
  N   N22       1.0  0.44594  0.81312  0.34124  1.0000
  C   C79       1.0  0.82813  0.43316  0.34374  1.0000
  C   C80       1.0  0.85476  0.44623  0.34815  1.0000
  C   C81       1.0  0.86826  0.43292  0.34800  1.0000
  C   C82       1.0  0.85459  0.40618  0.34805  1.0000
  C   C83       1.0  0.82788  0.39279  0.34515  1.0000
  C   C84       1.0  0.81497  0.40648  0.34267  1.0000
  H   H44       1.0  0.86415  0.39639  0.34825  1.0000
  H   H45       1.0  0.79558  0.39689  0.34157  1.0000
  H   H46       1.0  0.86435  0.46557  0.35081  1.0000
  N   N23       1.0  0.81515  0.44532  0.34686  1.0000
  N   N24       1.0  0.89343  0.44444  0.34996  1.0000
  N   N25       1.0  0.81343  0.36786  0.34247  1.0000
  C   C85       1.0  0.56983  0.39557  0.34362  1.0000
  C   C86       1.0  0.55676  0.40913  0.34800  1.0000
  C   C87       1.0  0.57008  0.43594  0.34787  1.0000
  C   C88       1.0  0.59682  0.44900  0.34800  1.0000
  C   C89       1.0  0.61021  0.43568  0.34517  1.0000
  C   C90       1.0  0.59651  0.40908  0.34265  1.0000
  H   H47       1.0  0.60661  0.46835  0.34829  1.0000
  H   H48       1.0  0.60610  0.39927  0.34164  1.0000
  H   H49       1.0  0.53743  0.39939  0.35065  1.0000
  N   N26       1.0  0.55768  0.37043  0.34679  1.0000
  N   N27       1.0  0.55857  0.44959  0.34984  1.0000
  N   N28       1.0  0.63514  0.44615  0.34262  1.0000
  C   C91       1.0  0.60744  0.17488  0.34374  1.0000
  C   C92       1.0  0.59388  0.14824  0.34814  1.0000
  C   C93       1.0  0.56707  0.13475  0.34799  1.0000
  C   C94       1.0  0.55400  0.14841  0.34805  1.0000
  C   C95       1.0  0.56732  0.17513  0.34515  1.0000
  C   C96       1.0  0.59392  0.18803  0.34266  1.0000
  H   H50       1.0  0.53465  0.13886  0.34826  1.0000
  H   H51       1.0  0.60372  0.20742  0.34158  1.0000
  H   H52       1.0  0.60362  0.13865  0.35081  1.0000
  N   N29       1.0  0.63257  0.18785  0.34686  1.0000
  N   N30       1.0  0.55342  0.10958  0.34996  1.0000
  N   N31       1.0  0.55685  0.18958  0.34247  1.0000
  C   C97       1.0  0.94700  0.47292  0.39922  1.0000
  N   N32       1.0  0.97246  0.48327  0.40534  1.0000
  H   H53       1.0  0.93631  0.46484  0.45506  1.0000
  C   C98       1.0  0.09331  0.53573  0.38191  1.0000
  H   H54       1.0  0.09857  0.52626  0.42237  1.0000
  C   C99       1.0  0.47642  0.54169  0.36884  1.0000
  C   C100      1.0  0.48885  0.53673  0.43894  1.0000
  N   N33       1.0  0.49866  0.52137  0.42560  1.0000
  C   C101      1.0  0.49747  0.51004  0.34612  1.0000
  C   C102      1.0  0.53009  0.47468  0.39913  1.0000
  H   H55       1.0  0.49068  0.54458  0.50084  1.0000
  N   N34       1.0  0.51974  0.48980  0.40527  1.0000
  H   H56       1.0  0.53816  0.47207  0.45495  1.0000
  C   C103      1.0  0.46727  0.55818  0.38190  1.0000
  H   H57       1.0  0.47674  0.57291  0.42238  1.0000
  C   C104      1.0  0.46131  0.93533  0.36885  1.0000
  C   C105      1.0  0.46627  0.95272  0.43896  1.0000
  N   N35       1.0  0.48163  0.97789  0.42563  1.0000
  C   C106      1.0  0.49296  0.98803  0.34616  1.0000
  C   C107      1.0  0.52832  0.05600  0.39922  1.0000
  H   H58       1.0  0.45841  0.94670  0.50085  1.0000
  N   N36       1.0  0.51321  0.03054  0.40534  1.0000
  H   H59       1.0  0.53094  0.06669  0.45506  1.0000
  C   C108      1.0  0.44483  0.90969  0.38190  1.0000
  H   H60       1.0  0.43009  0.90443  0.42237  1.0000
  C   C109      1.0  0.24799  0.53903  0.40347  1.0000
  C   C110      1.0  0.22805  0.54422  0.39199  1.0000
  H   H61       1.0  0.21979  0.54687  0.44739  1.0000
  C   C111      1.0  0.28198  0.53430  0.33534  1.0000
  C   C112      1.0  0.32687  0.53232  0.35086  1.0000
  C   C113      1.0  0.31336  0.53169  0.42841  1.0000
  C   C114      1.0  0.29087  0.53285  0.42171  1.0000
  C   C115      1.0  0.27775  0.53378  0.49800  1.0000
  C   C116      1.0  0.25653  0.53688  0.48896  1.0000
  H   H62       1.0  0.28402  0.53304  0.56077  1.0000
  H   H63       1.0  0.24785  0.53835  0.54537  1.0000
  H   H64       1.0  0.32061  0.53173  0.49024  1.0000
  C   C117      1.0  0.35064  0.53511  0.35745  1.0000
  H   H65       1.0  0.35288  0.52127  0.38234  1.0000
  C   C118      1.0  0.46397  0.70956  0.40351  1.0000
  C   C119      1.0  0.45878  0.68443  0.39203  1.0000
  H   H66       1.0  0.45614  0.67352  0.44743  1.0000
  C   C120      1.0  0.46870  0.74828  0.33536  1.0000
  C   C121      1.0  0.47068  0.79515  0.35085  1.0000
  C   C122      1.0  0.47131  0.78227  0.42842  1.0000
  C   C123      1.0  0.47015  0.75862  0.42172  1.0000
  C   C124      1.0  0.46923  0.74457  0.49802  1.0000
  C   C125      1.0  0.46613  0.72025  0.48899  1.0000
  H   H67       1.0  0.46998  0.75160  0.56078  1.0000
  H   H68       1.0  0.46466  0.71011  0.54541  1.0000
  H   H69       1.0  0.47128  0.78949  0.49024  1.0000
  C   C126      1.0  0.46790  0.81614  0.35744  1.0000
  H   H70       1.0  0.48178  0.83225  0.38187  1.0000
  C   C127      1.0  0.29344  0.75501  0.40345  1.0000
  C   C128      1.0  0.31857  0.77495  0.39197  1.0000
  H   H71       1.0  0.32949  0.78322  0.44736  1.0000
  C   C129      1.0  0.25472  0.72102  0.33531  1.0000
  C   C130      1.0  0.20786  0.67614  0.35082  1.0000
  C   C131      1.0  0.22074  0.68964  0.42838  1.0000
  C   C132      1.0  0.24439  0.71213  0.42168  1.0000
  C   C133      1.0  0.25844  0.72525  0.49797  1.0000
  C   C134      1.0  0.28276  0.74648  0.48894  1.0000
  H   H72       1.0  0.25141  0.71898  0.56074  1.0000
  H   H73       1.0  0.29290  0.75515  0.54535  1.0000
  H   H74       1.0  0.21351  0.68239  0.49021  1.0000
  C   C135      1.0  0.18687  0.65236  0.35741  1.0000
  H   H75       1.0  0.17075  0.65012  0.38183  1.0000
  C   C136      1.0  0.75667  0.46325  0.40192  1.0000
  C   C137      1.0  0.77642  0.45783  0.38930  1.0000
  H   H76       1.0  0.78487  0.45522  0.44423  1.0000
  C   C138      1.0  0.72255  0.46811  0.33573  1.0000
  C   C139      1.0  0.67788  0.47040  0.35375  1.0000
  C   C140      1.0  0.69171  0.47114  0.43054  1.0000
  C   C141      1.0  0.71409  0.46982  0.42259  1.0000
  C   C142      1.0  0.72750  0.46898  0.49811  1.0000
  C   C143      1.0  0.74858  0.46569  0.48788  1.0000
  H   H77       1.0  0.72154  0.46992  0.56123  1.0000
  H   H78       1.0  0.75747  0.46427  0.54378  1.0000
  H   H79       1.0  0.68475  0.47130  0.49277  1.0000
  C   C144      1.0  0.65419  0.46779  0.36155  1.0000
  H   H80       1.0  0.65208  0.48153  0.38814  1.0000
  C   C145      1.0  0.53975  0.29402  0.40188  1.0000
  C   C146      1.0  0.54516  0.31919  0.38925  1.0000
  H   H81       1.0  0.54778  0.33025  0.44418  1.0000
  C   C147      1.0  0.53489  0.25503  0.33572  1.0000
  C   C148      1.0  0.53260  0.20808  0.35378  1.0000
  C   C149      1.0  0.53186  0.22116  0.43056  1.0000
  C   C150      1.0  0.53318  0.24487  0.42259  1.0000
  C   C151      1.0  0.53403  0.25913  0.49811  1.0000
  C   C152      1.0  0.53732  0.28350  0.48786  1.0000
  H   H82       1.0  0.53309  0.25224  0.56123  1.0000
  H   H83       1.0  0.53873  0.29380  0.54376  1.0000
  H   H84       1.0  0.53171  0.21406  0.49279  1.0000
  C   C153      1.0  0.53521  0.18700  0.36159  1.0000
  H   H85       1.0  0.52153  0.17120  0.38861  1.0000
  C   C154      1.0  0.70900  0.24633  0.40191  1.0000
  C   C155      1.0  0.68382  0.22657  0.38929  1.0000
  H   H86       1.0  0.67276  0.21813  0.44422  1.0000
  C   C156      1.0  0.74797  0.28045  0.33573  1.0000
  C   C157      1.0  0.79493  0.32512  0.35377  1.0000
  C   C158      1.0  0.78185  0.31129  0.43056  1.0000
  C   C159      1.0  0.75814  0.28891  0.42259  1.0000
  C   C160      1.0  0.74389  0.27549  0.49812  1.0000
  C   C161      1.0  0.71952  0.25441  0.48788  1.0000
  H   H87       1.0  0.75079  0.28144  0.56123  1.0000
  H   H88       1.0  0.70922  0.24552  0.54378  1.0000
  H   H89       1.0  0.78895  0.31824  0.49278  1.0000
  C   C162      1.0  0.81601  0.34881  0.36159  1.0000
  H   H90       1.0  0.83180  0.35092  0.38860  1.0000
