data_image0
_chemical_formula_structural       SiC12H9C5HOHNH2OHC12H6CHCO4C3H2NHC5H2CNHNHSiC12H9C5HOHNH2OHC12H6CHCO4C3H2NHC5H2CNHNHSiC12H9C5HOHNH2OHC12H6CHCO4C3H2NHC5H2CNHNHSiC12H9C5HOHNH2OHC12H6CHCO4C3H2NHC5H2CNHNH
_chemical_formula_sum              "Si4 C160 H112 O24 N16"
_cell_length_a       29.43
_cell_length_b       29.4282
_cell_length_c       15.0362
_cell_angle_alpha    90
_cell_angle_beta     90
_cell_angle_gamma    90.2383

_space_group_name_H-M_alt    "P 1"
_space_group_IT_number       1

loop_
  _space_group_symop_operation_xyz
  'x, y, z'

loop_
  _atom_site_type_symbol
  _atom_site_label
  _atom_site_symmetry_multiplicity
  _atom_site_fract_x
  _atom_site_fract_y
  _atom_site_fract_z
  _atom_site_occupancy
  Si  Si1       1.0  0.50852  0.50565  0.05492  1.0000
  C   C1        1.0  0.49969  0.45803  0.11230  1.0000
  C   C2        1.0  0.02043  0.04244  0.13617  1.0000
  C   C3        1.0  0.48667  0.05173  0.20088  1.0000
  C   C4        1.0  0.49674  0.07654  0.27828  1.0000
  C   C5        1.0  0.04080  0.09409  0.29374  1.0000
  C   C6        1.0  0.07457  0.08495  0.22918  1.0000
  C   C7        1.0  0.06481  0.05907  0.15271  1.0000
  C   C8        1.0  0.03705  0.43626  0.15292  1.0000
  C   C9        1.0  0.03071  0.39874  0.20934  1.0000
  C   C10       1.0  0.48681  0.38117  0.22757  1.0000
  C   C11       1.0  0.44946  0.40340  0.18754  1.0000
  C   C12       1.0  0.45566  0.44122  0.13161  1.0000
  H   H1        1.0  0.47159  0.08046  0.32463  1.0000
  H   H2        1.0  0.45439  0.03896  0.19462  1.0000
  H   H3        1.0  0.10741  0.09535  0.23892  1.0000
  H   H4        1.0  0.09131  0.05093  0.11189  1.0000
  H   H5        1.0  0.06954  0.44809  0.14395  1.0000
  H   H6        1.0  0.05892  0.38576  0.23930  1.0000
  H   H7        1.0  0.41694  0.39241  0.19883  1.0000
  H   H8        1.0  0.42724  0.45679  0.10737  1.0000
  H   H9        1.0  0.45594  0.08885  0.03778  1.0000
  C   C13       1.0  0.05149  0.11636  0.37540  1.0000
  C   C14       1.0  0.47958  0.34245  0.28344  1.0000
  C   C15       1.0  0.00536  0.27110  0.34455  1.0000
  C   C16       1.0  0.97950  0.23637  0.30322  1.0000
  C   C17       1.0  0.48215  0.19147  0.33526  1.0000
  H   H10       1.0  0.46578  0.16632  0.30093  1.0000
  O   O1        1.0  0.95750  0.24436  0.22516  1.0000
  H   H11       1.0  0.92484  0.24343  0.23861  1.0000
  N   N1        1.0  0.01248  0.31170  0.30344  1.0000
  H   H12       1.0  0.04277  0.31553  0.27889  1.0000
  H   H13       1.0  0.27884  0.06554  0.37009  1.0000
  O   O2        1.0  0.20256  0.06806  0.28724  1.0000
  H   H14       1.0  0.21448  0.05406  0.23270  1.0000
  C   C18       1.0  0.08907  0.49004  0.47239  1.0000
  C   C19       1.0  0.07054  0.45159  0.51493  1.0000
  C   C20       1.0  0.05180  0.45521  0.60055  1.0000
  C   C21       1.0  0.04831  0.49791  0.64403  1.0000
  C   C22       1.0  0.06819  0.03602  0.60132  1.0000
  C   C23       1.0  0.09022  0.03163  0.51878  1.0000
  C   C24       1.0  0.46340  0.02030  0.66101  1.0000
  C   C25       1.0  0.44328  0.06391  0.66399  1.0000
  C   C26       1.0  0.40426  0.07388  0.61332  1.0000
  C   C27       1.0  0.38454  0.04090  0.55660  1.0000
  C   C28       1.0  0.40721  0.49893  0.54747  1.0000
  C   C29       1.0  0.44529  0.48862  0.59943  1.0000
  H   H15       1.0  0.45843  0.45666  0.59312  1.0000
  H   H16       1.0  0.39540  0.47452  0.50476  1.0000
  H   H17       1.0  0.38931  0.10497  0.62115  1.0000
  H   H18       1.0  0.06438  0.06811  0.62644  1.0000
  H   H19       1.0  0.03610  0.42686  0.62545  1.0000
  H   H20       1.0  0.06840  0.42115  0.48209  1.0000
  C   C30       1.0  0.34201  0.04811  0.51319  1.0000
  H   H21       1.0  0.10299  0.06003  0.48905  1.0000
  C   C31       1.0  0.09970  0.48818  0.38085  1.0000
  O   O3        1.0  0.43748  0.33536  0.31753  1.0000
  O   O4        1.0  0.09498  0.12962  0.39078  1.0000
  O   O5        1.0  0.32961  0.09138  0.49501  1.0000
  O   O6        1.0  0.06343  0.48288  0.32654  1.0000
  C   C32       1.0  0.51016  0.18042  0.40838  1.0000
  C   C33       1.0  0.53328  0.21603  0.45292  1.0000
  C   C34       1.0  0.03163  0.26067  0.42021  1.0000
  H   H22       1.0  0.05183  0.28504  0.44874  1.0000
  H   H23       1.0  0.55513  0.20887  0.50393  1.0000
  N   N2        1.0  0.51943  0.13584  0.42784  1.0000
  H   H24       1.0  0.52631  0.13204  0.49100  1.0000
  C   C35       1.0  0.26851  0.01417  0.46708  1.0000
  C   C36       1.0  0.23659  0.98106  0.49507  1.0000
  C   C37       1.0  0.19380  0.97723  0.45487  1.0000
  C   C38       1.0  0.18070  0.00685  0.38560  1.0000
  C   C39       1.0  0.21293  0.03919  0.35492  1.0000
  H   H25       1.0  0.17291  0.95138  0.47494  1.0000
  H   H26       1.0  0.24467  0.95855  0.54445  1.0000
  C   C40       1.0  0.25598  0.04289  0.39577  1.0000
  N   N3        1.0  0.31115  0.01356  0.50470  1.0000
  H   H27       1.0  0.31928  0.98496  0.53325  1.0000
  N   N4        1.0  0.13957  0.00183  0.34350  1.0000
  H   H28       1.0  0.13961  0.00522  0.27897  1.0000
  Si  Si2       1.0  0.50852  0.00565  0.05492  1.0000
  C   C41       1.0  0.49969  0.95803  0.11230  1.0000
  C   C42       1.0  0.02043  0.54243  0.13617  1.0000
  C   C43       1.0  0.48667  0.55173  0.20088  1.0000
  C   C44       1.0  0.49674  0.57654  0.27828  1.0000
  C   C45       1.0  0.04080  0.59409  0.29374  1.0000
  C   C46       1.0  0.07457  0.58495  0.22917  1.0000
  C   C47       1.0  0.06481  0.55907  0.15270  1.0000
  C   C48       1.0  0.03705  0.93627  0.15292  1.0000
  C   C49       1.0  0.03071  0.89875  0.20934  1.0000
  C   C50       1.0  0.48681  0.88117  0.22757  1.0000
  C   C51       1.0  0.44946  0.90341  0.18754  1.0000
  C   C52       1.0  0.45566  0.94122  0.13161  1.0000
  H   H29       1.0  0.47159  0.58046  0.32463  1.0000
  H   H30       1.0  0.45439  0.53896  0.19462  1.0000
  H   H31       1.0  0.10741  0.59535  0.23892  1.0000
  H   H32       1.0  0.09131  0.55093  0.11189  1.0000
  H   H33       1.0  0.06954  0.94809  0.14396  1.0000
  H   H34       1.0  0.05892  0.88576  0.23930  1.0000
  H   H35       1.0  0.41694  0.89241  0.19883  1.0000
  H   H36       1.0  0.42724  0.95679  0.10737  1.0000
  H   H37       1.0  0.45594  0.58885  0.03778  1.0000
  C   C53       1.0  0.05149  0.61636  0.37540  1.0000
  C   C54       1.0  0.47958  0.84246  0.28344  1.0000
  C   C55       1.0  0.00536  0.77110  0.34455  1.0000
  C   C56       1.0  0.97950  0.73637  0.30322  1.0000
  C   C57       1.0  0.48215  0.69147  0.33526  1.0000
  H   H38       1.0  0.46578  0.66632  0.30093  1.0000
  O   O7        1.0  0.95750  0.74436  0.22516  1.0000
  H   H39       1.0  0.92484  0.74342  0.23861  1.0000
  N   N5        1.0  0.01248  0.81171  0.30344  1.0000
  H   H40       1.0  0.04277  0.81553  0.27889  1.0000
  H   H41       1.0  0.27884  0.56554  0.37009  1.0000
  O   O8        1.0  0.20256  0.56806  0.28723  1.0000
  H   H42       1.0  0.21448  0.55406  0.23270  1.0000
  C   C58       1.0  0.08907  0.99004  0.47239  1.0000
  C   C59       1.0  0.07054  0.95159  0.51493  1.0000
  C   C60       1.0  0.05180  0.95522  0.60055  1.0000
  C   C61       1.0  0.04831  0.99791  0.64403  1.0000
  C   C62       1.0  0.06819  0.53602  0.60132  1.0000
  C   C63       1.0  0.09022  0.53163  0.51878  1.0000
  C   C64       1.0  0.46340  0.52030  0.66101  1.0000
  C   C65       1.0  0.44328  0.56391  0.66399  1.0000
  C   C66       1.0  0.40425  0.57388  0.61332  1.0000
  C   C67       1.0  0.38454  0.54090  0.55660  1.0000
  C   C68       1.0  0.40721  0.99893  0.54747  1.0000
  C   C69       1.0  0.44529  0.98862  0.59943  1.0000
  H   H43       1.0  0.45843  0.95667  0.59312  1.0000
  H   H44       1.0  0.39540  0.97452  0.50476  1.0000
  H   H45       1.0  0.38931  0.60497  0.62115  1.0000
  H   H46       1.0  0.06438  0.56811  0.62644  1.0000
  H   H47       1.0  0.03610  0.92685  0.62546  1.0000
  H   H48       1.0  0.06840  0.92115  0.48209  1.0000
  C   C70       1.0  0.34201  0.54811  0.51319  1.0000
  H   H49       1.0  0.10299  0.56003  0.48905  1.0000
  C   C71       1.0  0.09970  0.98818  0.38085  1.0000
  O   O9        1.0  0.43748  0.83536  0.31753  1.0000
  O   O10       1.0  0.09498  0.62962  0.39078  1.0000
  O   O11       1.0  0.32961  0.59138  0.49501  1.0000
  O   O12       1.0  0.06343  0.98288  0.32654  1.0000
  C   C72       1.0  0.51016  0.68042  0.40838  1.0000
  C   C73       1.0  0.53328  0.71603  0.45293  1.0000
  C   C74       1.0  0.03163  0.76067  0.42021  1.0000
  H   H50       1.0  0.05183  0.78504  0.44874  1.0000
  H   H51       1.0  0.55513  0.70888  0.50393  1.0000
  N   N6        1.0  0.51943  0.63585  0.42784  1.0000
  H   H52       1.0  0.52631  0.63204  0.49100  1.0000
  C   C75       1.0  0.26851  0.51417  0.46708  1.0000
  C   C76       1.0  0.23659  0.48106  0.49507  1.0000
  C   C77       1.0  0.19380  0.47723  0.45487  1.0000
  C   C78       1.0  0.18070  0.50685  0.38560  1.0000
  C   C79       1.0  0.21293  0.53919  0.35492  1.0000
  H   H53       1.0  0.17291  0.45138  0.47494  1.0000
  H   H54       1.0  0.24467  0.45855  0.54445  1.0000
  C   C80       1.0  0.25598  0.54289  0.39577  1.0000
  N   N7        1.0  0.31115  0.51356  0.50470  1.0000
  H   H55       1.0  0.31928  0.48496  0.53325  1.0000
  N   N8        1.0  0.13957  0.50183  0.34350  1.0000
  H   H56       1.0  0.13961  0.50522  0.27897  1.0000
  Si  Si3       1.0  0.00851  0.50565  0.05492  1.0000
  C   C81       1.0  0.99969  0.45803  0.11230  1.0000
  C   C82       1.0  0.52043  0.04244  0.13617  1.0000
  C   C83       1.0  0.98667  0.05173  0.20088  1.0000
  C   C84       1.0  0.99674  0.07654  0.27828  1.0000
  C   C85       1.0  0.54080  0.09409  0.29374  1.0000
  C   C86       1.0  0.57457  0.08495  0.22918  1.0000
  C   C87       1.0  0.56481  0.05907  0.15271  1.0000
  C   C88       1.0  0.53705  0.43626  0.15292  1.0000
  C   C89       1.0  0.53071  0.39874  0.20934  1.0000
  C   C90       1.0  0.98681  0.38117  0.22757  1.0000
  C   C91       1.0  0.94946  0.40340  0.18754  1.0000
  C   C92       1.0  0.95566  0.44122  0.13161  1.0000
  H   H57       1.0  0.97159  0.08046  0.32463  1.0000
  H   H58       1.0  0.95439  0.03896  0.19462  1.0000
  H   H59       1.0  0.60741  0.09535  0.23892  1.0000
  H   H60       1.0  0.59131  0.05093  0.11189  1.0000
  H   H61       1.0  0.56955  0.44809  0.14395  1.0000
  H   H62       1.0  0.55892  0.38576  0.23930  1.0000
  H   H63       1.0  0.91694  0.39241  0.19883  1.0000
  H   H64       1.0  0.92724  0.45679  0.10737  1.0000
  H   H65       1.0  0.95594  0.08885  0.03778  1.0000
  C   C93       1.0  0.55149  0.11636  0.37540  1.0000
  C   C94       1.0  0.97958  0.34245  0.28344  1.0000
  C   C95       1.0  0.50536  0.27110  0.34455  1.0000
  C   C96       1.0  0.47950  0.23637  0.30322  1.0000
  C   C97       1.0  0.98215  0.19147  0.33526  1.0000
  H   H66       1.0  0.96578  0.16632  0.30093  1.0000
  O   O13       1.0  0.45750  0.24436  0.22516  1.0000
  H   H67       1.0  0.42484  0.24343  0.23861  1.0000
  N   N9        1.0  0.51248  0.31170  0.30344  1.0000
  H   H68       1.0  0.54277  0.31553  0.27889  1.0000
  H   H69       1.0  0.77885  0.06554  0.37009  1.0000
  O   O14       1.0  0.70257  0.06806  0.28724  1.0000
  H   H70       1.0  0.71448  0.05406  0.23270  1.0000
  C   C98       1.0  0.58907  0.49004  0.47239  1.0000
  C   C99       1.0  0.57054  0.45159  0.51493  1.0000
  C   C100      1.0  0.55180  0.45521  0.60055  1.0000
  C   C101      1.0  0.54831  0.49791  0.64403  1.0000
  C   C102      1.0  0.56819  0.03602  0.60132  1.0000
  C   C103      1.0  0.59022  0.03163  0.51878  1.0000
  C   C104      1.0  0.96340  0.02030  0.66101  1.0000
  C   C105      1.0  0.94328  0.06391  0.66399  1.0000
  C   C106      1.0  0.90426  0.07388  0.61332  1.0000
  C   C107      1.0  0.88454  0.04090  0.55660  1.0000
  C   C108      1.0  0.90721  0.49893  0.54747  1.0000
  C   C109      1.0  0.94529  0.48862  0.59943  1.0000
  H   H71       1.0  0.95843  0.45666  0.59312  1.0000
  H   H72       1.0  0.89540  0.47452  0.50476  1.0000
  H   H73       1.0  0.88931  0.10497  0.62115  1.0000
  H   H74       1.0  0.56438  0.06811  0.62644  1.0000
  H   H75       1.0  0.53609  0.42686  0.62545  1.0000
  H   H76       1.0  0.56840  0.42115  0.48209  1.0000
  C   C110      1.0  0.84201  0.04811  0.51319  1.0000
  H   H77       1.0  0.60299  0.06003  0.48905  1.0000
  C   C111      1.0  0.59970  0.48818  0.38085  1.0000
  O   O15       1.0  0.93748  0.33536  0.31753  1.0000
  O   O16       1.0  0.59498  0.12962  0.39078  1.0000
  O   O17       1.0  0.82961  0.09138  0.49501  1.0000
  O   O18       1.0  0.56344  0.48288  0.32654  1.0000
  C   C112      1.0  0.01016  0.18042  0.40838  1.0000
  C   C113      1.0  0.03328  0.21603  0.45292  1.0000
  C   C114      1.0  0.53163  0.26067  0.42021  1.0000
  H   H78       1.0  0.55183  0.28504  0.44874  1.0000
  H   H79       1.0  0.05513  0.20887  0.50393  1.0000
  N   N10       1.0  0.01943  0.13584  0.42784  1.0000
  H   H80       1.0  0.02632  0.13204  0.49100  1.0000
  C   C115      1.0  0.76851  0.01417  0.46708  1.0000
  C   C116      1.0  0.73659  0.98106  0.49507  1.0000
  C   C117      1.0  0.69380  0.97723  0.45487  1.0000
  C   C118      1.0  0.68071  0.00685  0.38560  1.0000
  C   C119      1.0  0.71293  0.03919  0.35492  1.0000
  H   H81       1.0  0.67291  0.95138  0.47494  1.0000
  H   H82       1.0  0.74467  0.95855  0.54445  1.0000
  C   C120      1.0  0.75598  0.04289  0.39577  1.0000
  N   N11       1.0  0.81115  0.01356  0.50470  1.0000
  H   H83       1.0  0.81928  0.98496  0.53325  1.0000
  N   N12       1.0  0.63957  0.00183  0.34350  1.0000
  H   H84       1.0  0.63961  0.00522  0.27897  1.0000
  Si  Si4       1.0  0.00851  0.00565  0.05492  1.0000
  C   C121      1.0  0.99969  0.95803  0.11230  1.0000
  C   C122      1.0  0.52043  0.54243  0.13617  1.0000
  C   C123      1.0  0.98667  0.55173  0.20088  1.0000
  C   C124      1.0  0.99674  0.57654  0.27828  1.0000
  C   C125      1.0  0.54080  0.59409  0.29374  1.0000
  C   C126      1.0  0.57457  0.58495  0.22917  1.0000
  C   C127      1.0  0.56481  0.55907  0.15270  1.0000
  C   C128      1.0  0.53705  0.93627  0.15292  1.0000
  C   C129      1.0  0.53071  0.89875  0.20934  1.0000
  C   C130      1.0  0.98681  0.88117  0.22757  1.0000
  C   C131      1.0  0.94947  0.90341  0.18754  1.0000
  C   C132      1.0  0.95566  0.94122  0.13161  1.0000
  H   H85       1.0  0.97159  0.58046  0.32463  1.0000
  H   H86       1.0  0.95439  0.53896  0.19462  1.0000
  H   H87       1.0  0.60741  0.59535  0.23892  1.0000
  H   H88       1.0  0.59131  0.55093  0.11189  1.0000
  H   H89       1.0  0.56955  0.94809  0.14396  1.0000
  H   H90       1.0  0.55892  0.88576  0.23930  1.0000
  H   H91       1.0  0.91694  0.89241  0.19883  1.0000
  H   H92       1.0  0.92724  0.95679  0.10737  1.0000
  H   H93       1.0  0.95594  0.58885  0.03778  1.0000
  C   C133      1.0  0.55149  0.61636  0.37540  1.0000
  C   C134      1.0  0.97958  0.84246  0.28344  1.0000
  C   C135      1.0  0.50536  0.77110  0.34455  1.0000
  C   C136      1.0  0.47950  0.73637  0.30322  1.0000
  C   C137      1.0  0.98215  0.69147  0.33526  1.0000
  H   H94       1.0  0.96578  0.66632  0.30093  1.0000
  O   O19       1.0  0.45750  0.74436  0.22516  1.0000
  H   H95       1.0  0.42484  0.74342  0.23861  1.0000
  N   N13       1.0  0.51248  0.81171  0.30344  1.0000
  H   H96       1.0  0.54277  0.81553  0.27889  1.0000
  H   H97       1.0  0.77885  0.56554  0.37009  1.0000
  O   O20       1.0  0.70257  0.56806  0.28723  1.0000
  H   H98       1.0  0.71447  0.55406  0.23270  1.0000
  C   C138      1.0  0.58907  0.99004  0.47239  1.0000
  C   C139      1.0  0.57054  0.95159  0.51493  1.0000
  C   C140      1.0  0.55180  0.95522  0.60055  1.0000
  C   C141      1.0  0.54832  0.99791  0.64403  1.0000
  C   C142      1.0  0.56819  0.53602  0.60132  1.0000
  C   C143      1.0  0.59022  0.53163  0.51878  1.0000
  C   C144      1.0  0.96340  0.52030  0.66101  1.0000
  C   C145      1.0  0.94328  0.56391  0.66399  1.0000
  C   C146      1.0  0.90426  0.57388  0.61332  1.0000
  C   C147      1.0  0.88454  0.54090  0.55660  1.0000
  C   C148      1.0  0.90721  0.99893  0.54747  1.0000
  C   C149      1.0  0.94529  0.98862  0.59943  1.0000
  H   H99       1.0  0.95843  0.95667  0.59312  1.0000
  H   H100      1.0  0.89540  0.97452  0.50476  1.0000
  H   H101      1.0  0.88931  0.60497  0.62115  1.0000
  H   H102      1.0  0.56438  0.56811  0.62644  1.0000
  H   H103      1.0  0.53610  0.92685  0.62546  1.0000
  H   H104      1.0  0.56840  0.92115  0.48209  1.0000
  C   C150      1.0  0.84201  0.54811  0.51319  1.0000
  H   H105      1.0  0.60299  0.56003  0.48905  1.0000
  C   C151      1.0  0.59970  0.98818  0.38085  1.0000
  O   O21       1.0  0.93748  0.83536  0.31753  1.0000
  O   O22       1.0  0.59498  0.62962  0.39078  1.0000
  O   O23       1.0  0.82961  0.59138  0.49501  1.0000
  O   O24       1.0  0.56344  0.98288  0.32654  1.0000
  C   C152      1.0  0.01016  0.68042  0.40838  1.0000
  C   C153      1.0  0.03328  0.71603  0.45293  1.0000
  C   C154      1.0  0.53163  0.76067  0.42021  1.0000
  H   H106      1.0  0.55183  0.78504  0.44874  1.0000
  H   H107      1.0  0.05513  0.70888  0.50393  1.0000
  N   N14       1.0  0.01943  0.63585  0.42784  1.0000
  H   H108      1.0  0.02632  0.63204  0.49100  1.0000
  C   C155      1.0  0.76851  0.51417  0.46708  1.0000
  C   C156      1.0  0.73659  0.48106  0.49507  1.0000
  C   C157      1.0  0.69380  0.47723  0.45487  1.0000
  C   C158      1.0  0.68070  0.50685  0.38560  1.0000
  C   C159      1.0  0.71293  0.53919  0.35492  1.0000
  H   H109      1.0  0.67291  0.45138  0.47494  1.0000
  H   H110      1.0  0.74467  0.45855  0.54445  1.0000
  C   C160      1.0  0.75598  0.54289  0.39577  1.0000
  N   N15       1.0  0.81115  0.51356  0.50470  1.0000
  H   H111      1.0  0.81928  0.48496  0.53325  1.0000
  N   N16       1.0  0.63957  0.50183  0.34350  1.0000
  H   H112      1.0  0.63961  0.50522  0.27897  1.0000
