data_image0
_chemical_formula_structural       C3HNO2COC3HNO2COC3HNO2COC3HNO2COC3HNO2COC3HNO2COC3HNO2COC3HNO2COC3HNO2COC6H3NHNHNHC6H3NHNHNHC6H3NHNHNHC6H3NHNHNHC6H3NHNHNHC6H3NHNHNHC3HNO2COC3HNO2COC3HNO2COC3HNO2COC3HNO2COC3HNO2COC3HNO2COC3HNO2COC3HNO2CO
_chemical_formula_sum              "C108 H54 N36 O54"
_cell_length_a       45.4982
_cell_length_b       45.4982
_cell_length_c       15.0166
_cell_angle_alpha    90
_cell_angle_beta     90
_cell_angle_gamma    120

_space_group_name_H-M_alt    "P 1"
_space_group_IT_number       1

loop_
  _space_group_symop_operation_xyz
  'x, y, z'

loop_
  _atom_site_type_symbol
  _atom_site_label
  _atom_site_symmetry_multiplicity
  _atom_site_fract_x
  _atom_site_fract_y
  _atom_site_fract_z
  _atom_site_occupancy
  C   C1        1.0  0.03553  0.51142  0.23817  1.0000
  C   C2        1.0  0.01146  0.50337  0.16918  1.0000
  C   C3        1.0  0.97693  0.49043  0.19195  1.0000
  H   H1        1.0  0.95999  0.48626  0.14199  1.0000
  N   N1        1.0  0.02256  0.51006  0.07953  1.0000
  O   O1        1.0  0.01638  0.53153  0.04481  1.0000
  O   O2        1.0  0.00861  0.48347  0.03339  1.0000
  C   C4        1.0  0.07091  0.52667  0.22213  1.0000
  O   O3        1.0  0.08173  0.51078  0.16601  1.0000
  C   C5        1.0  0.48718  0.52382  0.23829  1.0000
  C   C6        1.0  0.49523  0.50778  0.16938  1.0000
  C   C7        1.0  0.50810  0.48614  0.19227  1.0000
  H   H2        1.0  0.51232  0.47337  0.14239  1.0000
  N   N2        1.0  0.48864  0.51222  0.07967  1.0000
  O   O4        1.0  0.46717  0.48460  0.04484  1.0000
  O   O5        1.0  0.51527  0.52483  0.03369  1.0000
  C   C8        1.0  0.47197  0.54398  0.22218  1.0000
  O   O6        1.0  0.48779  0.57061  0.16578  1.0000
  C   C9        1.0  0.47482  0.96310  0.23821  1.0000
  C   C10       1.0  0.49089  0.98720  0.16930  1.0000
  C   C11       1.0  0.51253  0.02170  0.19221  1.0000
  H   H3        1.0  0.52531  0.03869  0.14232  1.0000
  N   N3        1.0  0.48645  0.97616  0.07960  1.0000
  O   O7        1.0  0.51407  0.98230  0.04482  1.0000
  O   O8        1.0  0.47385  0.99019  0.03359  1.0000
  C   C12       1.0  0.45465  0.92774  0.22205  1.0000
  O   O9        1.0  0.42795  0.91698  0.16591  1.0000
  C   C13       1.0  0.29119  0.52483  0.34599  1.0000
  C   C14       1.0  0.26392  0.51495  0.28498  1.0000
  C   C15       1.0  0.23437  0.51545  0.31259  1.0000
  H   H4        1.0  0.21696  0.51165  0.26451  1.0000
  N   N4        1.0  0.26761  0.50885  0.19418  1.0000
  O   O10       1.0  0.26712  0.53058  0.14339  1.0000
  O   O11       1.0  0.24503  0.47978  0.16991  1.0000
  C   C16       1.0  0.32415  0.53145  0.32094  1.0000
  O   O12       1.0  0.32792  0.51814  0.24396  1.0000
  C   C17       1.0  0.47366  0.76605  0.34569  1.0000
  C   C18       1.0  0.48355  0.74866  0.28468  1.0000
  C   C19       1.0  0.48314  0.71867  0.31233  1.0000
  H   H5        1.0  0.48685  0.70501  0.26419  1.0000
  N   N5        1.0  0.48958  0.75842  0.19386  1.0000
  O   O13       1.0  0.46785  0.73616  0.14315  1.0000
  O   O14       1.0  0.51866  0.76496  0.16948  1.0000
  C   C20       1.0  0.46702  0.79237  0.32065  1.0000
  O   O15       1.0  0.48032  0.80946  0.24365  1.0000
  C   C21       1.0  0.23255  0.70738  0.34601  1.0000
  C   C22       1.0  0.24992  0.73464  0.28497  1.0000
  C   C23       1.0  0.27991  0.76425  0.31258  1.0000
  H   H6        1.0  0.29354  0.78161  0.26440  1.0000
  N   N6        1.0  0.24014  0.73091  0.19416  1.0000
  O   O16       1.0  0.26239  0.73144  0.14343  1.0000
  O   O17       1.0  0.23358  0.75343  0.16979  1.0000
  C   C24       1.0  0.20622  0.67441  0.32102  1.0000
  O   O18       1.0  0.18911  0.67062  0.24406  1.0000
  C   C25       1.0  0.70381  0.47475  0.34848  1.0000
  C   C26       1.0  0.73048  0.48406  0.28578  1.0000
  C   C27       1.0  0.76013  0.48346  0.31171  1.0000
  H   H7        1.0  0.77699  0.48678  0.26249  1.0000
  N   N7        1.0  0.72606  0.48972  0.19514  1.0000
  O   O19       1.0  0.72592  0.46763  0.14450  1.0000
  O   O20       1.0  0.74857  0.51859  0.16932  1.0000
  C   C28       1.0  0.67059  0.46782  0.32504  1.0000
  O   O21       1.0  0.66626  0.48066  0.24792  1.0000
  C   C29       1.0  0.52385  0.22876  0.34844  1.0000
  C   C30       1.0  0.51454  0.24614  0.28582  1.0000
  C   C31       1.0  0.51516  0.27640  0.31183  1.0000
  H   H8        1.0  0.51184  0.28995  0.26267  1.0000
  N   N8        1.0  0.50890  0.23612  0.19513  1.0000
  O   O22       1.0  0.53100  0.25809  0.14456  1.0000
  O   O23       1.0  0.48003  0.22977  0.16932  1.0000
  C   C32       1.0  0.53081  0.20250  0.32488  1.0000
  O   O24       1.0  0.51798  0.18536  0.24772  1.0000
  C   C33       1.0  0.76994  0.29486  0.34843  1.0000
  C   C34       1.0  0.75256  0.26817  0.28581  1.0000
  C   C35       1.0  0.72232  0.23850  0.31182  1.0000
  H   H9        1.0  0.70872  0.22168  0.26260  1.0000
  N   N9        1.0  0.76256  0.27257  0.19510  1.0000
  O   O25       1.0  0.74057  0.27270  0.14459  1.0000
  O   O26       1.0  0.76892  0.25007  0.16922  1.0000
  C   C36       1.0  0.79623  0.32807  0.32489  1.0000
  O   O27       1.0  0.81336  0.33236  0.24774  1.0000
  C   C37       1.0  0.12664  0.56553  0.28653  1.0000
  C   C38       1.0  0.14874  0.60035  0.30469  1.0000
  C   C39       1.0  0.18149  0.61244  0.34078  1.0000
  C   C40       1.0  0.19081  0.58793  0.36272  1.0000
  C   C41       1.0  0.16994  0.55288  0.34432  1.0000
  C   C42       1.0  0.13823  0.54242  0.30348  1.0000
  H   H10       1.0  0.21482  0.59637  0.38616  1.0000
  H   H11       1.0  0.12202  0.51700  0.29500  1.0000
  H   H12       1.0  0.13979  0.61678  0.29651  1.0000
  N   N10       1.0  0.09314  0.55465  0.26918  1.0000
  H   H13       1.0  0.08361  0.56677  0.30075  1.0000
  N   N11       1.0  0.18062  0.52999  0.35899  1.0000
  H   H14       1.0  0.16983  0.50908  0.32431  1.0000
  N   N12       1.0  0.20386  0.64590  0.35893  1.0000
  H   H15       1.0  0.22289  0.64992  0.39709  1.0000
  C   C43       1.0  0.43304  0.56082  0.28627  1.0000
  C   C44       1.0  0.39822  0.54809  0.30437  1.0000
  C   C45       1.0  0.38612  0.56873  0.34056  1.0000
  C   C46       1.0  0.41063  0.60258  0.36246  1.0000
  C   C47       1.0  0.44568  0.61676  0.34406  1.0000
  C   C48       1.0  0.45615  0.59551  0.30339  1.0000
  H   H16       1.0  0.40217  0.61814  0.38588  1.0000
  H   H17       1.0  0.48157  0.60476  0.29461  1.0000
  H   H18       1.0  0.38180  0.52270  0.29624  1.0000
  N   N13       1.0  0.44391  0.53819  0.26891  1.0000
  H   H19       1.0  0.43179  0.51655  0.30051  1.0000
  N   N14       1.0  0.46856  0.65035  0.35868  1.0000
  H   H20       1.0  0.48947  0.66048  0.32401  1.0000
  N   N15       1.0  0.35266  0.55762  0.35877  1.0000
  H   H21       1.0  0.34866  0.57263  0.39698  1.0000
  C   C49       1.0  0.43774  0.87196  0.28620  1.0000
  C   C50       1.0  0.45043  0.84983  0.30421  1.0000
  C   C51       1.0  0.42977  0.81709  0.34038  1.0000
  C   C52       1.0  0.39594  0.80778  0.36235  1.0000
  C   C53       1.0  0.38178  0.82867  0.34400  1.0000
  C   C54       1.0  0.40304  0.86040  0.30333  1.0000
  H   H22       1.0  0.38037  0.78377  0.38578  1.0000
  H   H23       1.0  0.39385  0.87661  0.29473  1.0000
  H   H24       1.0  0.47581  0.85878  0.29608  1.0000
  N   N16       1.0  0.46038  0.90546  0.26889  1.0000
  H   H25       1.0  0.48202  0.91495  0.30053  1.0000
  N   N17       1.0  0.34821  0.81801  0.35877  1.0000
  H   H26       1.0  0.33809  0.82881  0.32415  1.0000
  N   N18       1.0  0.44086  0.79473  0.35853  1.0000
  H   H27       1.0  0.42585  0.77570  0.39673  1.0000
  C   C55       1.0  0.87193  0.43790  0.28509  1.0000
  C   C56       1.0  0.85159  0.40299  0.30467  1.0000
  C   C57       1.0  0.81924  0.38980  0.34449  1.0000
  C   C58       1.0  0.80848  0.41326  0.36663  1.0000
  C   C59       1.0  0.82715  0.44809  0.34356  1.0000
  C   C60       1.0  0.85839  0.45951  0.29929  1.0000
  H   H28       1.0  0.78460  0.40387  0.39210  1.0000
  H   H29       1.0  0.87261  0.48458  0.28215  1.0000
  H   H30       1.0  0.86175  0.38762  0.29589  1.0000
  N   N19       1.0  0.90472  0.45051  0.25681  1.0000
  H   H31       1.0  0.90906  0.43645  0.21593  1.0000
  N   N20       1.0  0.81471  0.46970  0.35596  1.0000
  H   H32       1.0  0.82438  0.49013  0.31941  1.0000
  N   N21       1.0  0.79814  0.35619  0.36415  1.0000
  H   H33       1.0  0.77932  0.35163  0.40377  1.0000
  C   C61       1.0  0.56078  0.43381  0.28592  1.0000
  C   C62       1.0  0.59570  0.44833  0.30530  1.0000
  C   C63       1.0  0.60889  0.42911  0.34482  1.0000
  C   C64       1.0  0.58541  0.39489  0.36695  1.0000
  C   C65       1.0  0.55056  0.37878  0.34402  1.0000
  C   C66       1.0  0.53915  0.39865  0.30001  1.0000
  H   H34       1.0  0.59482  0.38038  0.39208  1.0000
  H   H35       1.0  0.51407  0.38783  0.28300  1.0000
  H   H36       1.0  0.61110  0.47387  0.29664  1.0000
  N   N22       1.0  0.54822  0.45408  0.25821  1.0000
  H   H37       1.0  0.56219  0.47241  0.21698  1.0000
  N   N23       1.0  0.52895  0.34473  0.35628  1.0000
  H   H38       1.0  0.50851  0.33401  0.31977  1.0000
  N   N24       1.0  0.64250  0.44158  0.36432  1.0000
  H   H39       1.0  0.64705  0.42731  0.40392  1.0000
  C   C67       1.0  0.56486  0.12672  0.28582  1.0000
  C   C68       1.0  0.55035  0.14714  0.30501  1.0000
  C   C69       1.0  0.56956  0.17954  0.34457  1.0000
  C   C70       1.0  0.60377  0.19029  0.36674  1.0000
  C   C71       1.0  0.61990  0.17156  0.34386  1.0000
  C   C72       1.0  0.60002  0.14025  0.29994  1.0000
  H   H40       1.0  0.61828  0.21422  0.39186  1.0000
  H   H41       1.0  0.61084  0.12599  0.28300  1.0000
  H   H42       1.0  0.52480  0.13698  0.29644  1.0000
  N   N25       1.0  0.54459  0.09390  0.25811  1.0000
  H   H43       1.0  0.52623  0.08947  0.21692  1.0000
  N   N26       1.0  0.65394  0.18401  0.35619  1.0000
  H   H44       1.0  0.66468  0.17429  0.31974  1.0000
  N   N27       1.0  0.55706  0.20065  0.36411  1.0000
  H   H45       1.0  0.57132  0.21947  0.40372  1.0000
  C   C73       1.0  0.96593  0.48526  0.28165  1.0000
  C   C74       1.0  0.98991  0.49188  0.35028  1.0000
  C   C75       1.0  0.02429  0.50478  0.32745  1.0000
  H   H46       1.0  0.04136  0.50959  0.37762  1.0000
  N   N28       1.0  0.97944  0.48499  0.44054  1.0000
  O   O28       1.0  0.98517  0.46292  0.47333  1.0000
  O   O29       1.0  0.99389  0.51128  0.48781  1.0000
  C   C76       1.0  0.93170  0.47543  0.30192  1.0000
  O   O30       1.0  0.92661  0.49141  0.37137  1.0000
  C   C77       1.0  0.51319  0.48027  0.28202  1.0000
  C   C78       1.0  0.50656  0.49765  0.35057  1.0000
  C   C79       1.0  0.49372  0.51917  0.32762  1.0000
  H   H47       1.0  0.48890  0.53145  0.37773  1.0000
  N   N29       1.0  0.51337  0.49405  0.44088  1.0000
  O   O31       1.0  0.53544  0.52182  0.47374  1.0000
  O   O32       1.0  0.48706  0.48225  0.48802  1.0000
  C   C80       1.0  0.52297  0.45587  0.30236  1.0000
  O   O33       1.0  0.50697  0.43478  0.37179  1.0000
  C   C81       1.0  0.51838  0.03266  0.28195  1.0000
  C   C82       1.0  0.50099  0.00865  0.35050  1.0000
  C   C83       1.0  0.47946  0.97429  0.32754  1.0000
  H   H48       1.0  0.46716  0.95720  0.37765  1.0000
  N   N30       1.0  0.50458  0.01908  0.44080  1.0000
  O   O34       1.0  0.47680  0.01339  0.47361  1.0000
  O   O35       1.0  0.51636  0.00455  0.48798  1.0000
  C   C84       1.0  0.54279  0.06686  0.30230  1.0000
  O   O36       1.0  0.56387  0.07193  0.37171  1.0000
  C   C85       1.0  0.23042  0.52488  0.39989  1.0000
  C   C86       1.0  0.25553  0.52965  0.46381  1.0000
  C   C87       1.0  0.28526  0.52980  0.43579  1.0000
  H   H49       1.0  0.30321  0.53413  0.48300  1.0000
  N   N31       1.0  0.25151  0.53464  0.55529  1.0000
  O   O37       1.0  0.25050  0.51146  0.60303  1.0000
  O   O38       1.0  0.27468  0.56281  0.58343  1.0000
  C   C88       1.0  0.20507  0.53369  0.41793  1.0000
  O   O39       1.0  0.20708  0.55080  0.49383  1.0000
  C   C89       1.0  0.47369  0.70527  0.39962  1.0000
  C   C90       1.0  0.46891  0.72561  0.46352  1.0000
  C   C91       1.0  0.46873  0.75517  0.43551  1.0000
  H   H50       1.0  0.46439  0.76879  0.48272  1.0000
  N   N32       1.0  0.46393  0.71659  0.55501  1.0000
  O   O40       1.0  0.48710  0.73878  0.60274  1.0000
  O   O41       1.0  0.43575  0.71158  0.58316  1.0000
  C   C92       1.0  0.46482  0.67109  0.41758  1.0000
  O   O42       1.0  0.44773  0.65601  0.49350  1.0000
  C   C93       1.0  0.29332  0.76821  0.39986  1.0000
  C   C94       1.0  0.27301  0.74309  0.46379  1.0000
  C   C95       1.0  0.24346  0.71334  0.43581  1.0000
  H   H51       1.0  0.22985  0.69539  0.48305  1.0000
  N   N33       1.0  0.28204  0.74716  0.55526  1.0000
  O   O43       1.0  0.25985  0.74814  0.60300  1.0000
  O   O44       1.0  0.28708  0.72401  0.58343  1.0000
  C   C96       1.0  0.32748  0.79358  0.41778  1.0000
  O   O45       1.0  0.34262  0.79154  0.49358  1.0000
  C   C97       1.0  0.76484  0.47448  0.39886  1.0000
  C   C98       1.0  0.74037  0.47027  0.46425  1.0000
  C   C99       1.0  0.71055  0.47029  0.43798  1.0000
  H   H52       1.0  0.69307  0.46636  0.48625  1.0000
  N   N34       1.0  0.74510  0.46563  0.55550  1.0000
  O   O46       1.0  0.74672  0.48911  0.60317  1.0000
  O   O47       1.0  0.72203  0.43767  0.58500  1.0000
  C   C100      1.0  0.79032  0.46570  0.41554  1.0000
  O   O48       1.0  0.78932  0.44958  0.49247  1.0000
  C   C101      1.0  0.52415  0.29005  0.39902  1.0000
  C   C102      1.0  0.52834  0.26976  0.46433  1.0000
  C   C103      1.0  0.52831  0.23993  0.43797  1.0000
  H   H53       1.0  0.53225  0.22636  0.48618  1.0000
  N   N35       1.0  0.53298  0.27909  0.55560  1.0000
  O   O49       1.0  0.50950  0.25723  0.60324  1.0000
  O   O50       1.0  0.56095  0.28397  0.58508  1.0000
  C   C104      1.0  0.53293  0.32430  0.41578  1.0000
  O   O51       1.0  0.54913  0.33940  0.49266  1.0000
  C   C105      1.0  0.70864  0.23386  0.39898  1.0000
  C   C106      1.0  0.72892  0.25835  0.46428  1.0000
  C   C107      1.0  0.75877  0.28815  0.43796  1.0000
  H   H54       1.0  0.77233  0.30564  0.48619  1.0000
  N   N36       1.0  0.71956  0.25366  0.55554  1.0000
  O   O52       1.0  0.74141  0.25204  0.60323  1.0000
  O   O53       1.0  0.71469  0.27675  0.58498  1.0000
  C   C108      1.0  0.67436  0.20844  0.41566  1.0000
  O   O54       1.0  0.65925  0.20954  0.49251  1.0000
