data_image0
_chemical_formula_structural       C8H3NO2C8H3NO2C2H2C2H2C2H2C2H2C2H2C2H2C2H2C2H2C8H3NO2C8H3NO2C8H3NO2C8H3NO2C2H2C2H2C2H2C2H2C2H2C2H2C2H2C2H2C8H3NO2C8H3NO2C8H3NO2C8H3NO2CNCNCNCNCNCNCNCNCNCNCNCNCNCNCNCNCNCNCNCNCNCNCNCNCNCNCNCNCNCNCNCNCNCNCNCNC2H2C2H2C2H2C2H2C8H3NO2C8H3NO2C8H3NO2C8H3NO2C2H2C2H2C2H2C2H2C2H2C2H2C2H2C2H2C8H3NO2C8H3NO2C8H3NO2C8H3NO2C2H2C2H2C2H2C2H2C2H2C2H2C2H2C2H2
_chemical_formula_sum              "C252 H126 N54 O36"
_cell_length_a       51.6785
_cell_length_b       51.5178
_cell_length_c       14.8639
_cell_angle_alpha    90
_cell_angle_beta     90
_cell_angle_gamma    90.1835

_space_group_name_H-M_alt    "P 1"
_space_group_IT_number       1

loop_
  _space_group_symop_operation_xyz
  'x, y, z'

loop_
  _atom_site_type_symbol
  _atom_site_label
  _atom_site_symmetry_multiplicity
  _atom_site_fract_x
  _atom_site_fract_y
  _atom_site_fract_z
  _atom_site_occupancy
  C   C1        1.0  0.05241  0.45372  0.33500  1.0000
  C   C2        1.0  0.02856  0.45010  0.28873  1.0000
  C   C3        1.0  0.00957  0.46997  0.29016  1.0000
  C   C4        1.0  0.01316  0.49361  0.33732  1.0000
  C   C5        1.0  0.99340  0.51334  0.33889  1.0000
  C   C6        1.0  0.96673  0.50686  0.34261  1.0000
  C   C7        1.0  0.94737  0.52608  0.34311  1.0000
  C   C8        1.0  0.95364  0.55287  0.34058  1.0000
  H   H1        1.0  0.96100  0.48787  0.34658  1.0000
  H   H2        1.0  0.92848  0.52014  0.34619  1.0000
  H   H3        1.0  0.99295  0.46709  0.25414  1.0000
  N   N1        1.0  0.02423  0.42715  0.23834  1.0000
  O   O1        1.0  0.02149  0.43190  0.15596  1.0000
  O   O2        1.0  0.00463  0.41501  0.26580  1.0000
  C   C9        1.0  0.55309  0.05223  0.33541  1.0000
  C   C10       1.0  0.55653  0.02818  0.28992  1.0000
  C   C11       1.0  0.53649  0.00927  0.29117  1.0000
  C   C12       1.0  0.51283  0.01313  0.33738  1.0000
  C   C13       1.0  0.49291  0.99345  0.33886  1.0000
  C   C14       1.0  0.49906  0.96668  0.34372  1.0000
  C   C15       1.0  0.47968  0.94737  0.34417  1.0000
  C   C16       1.0  0.45306  0.95378  0.34045  1.0000
  H   H4        1.0  0.51792  0.96084  0.34859  1.0000
  H   H5        1.0  0.48539  0.92840  0.34810  1.0000
  H   H6        1.0  0.53924  0.99250  0.25570  1.0000
  N   N2        1.0  0.57950  0.02359  0.24046  1.0000
  O   O3        1.0  0.57497  0.02071  0.15799  1.0000
  O   O4        1.0  0.59125  0.00389  0.26880  1.0000
  C   C17       1.0  0.08841  0.31736  0.31019  1.0000
  C   C18       1.0  0.09429  0.34405  0.30882  1.0000
  H   H7        1.0  0.10082  0.30493  0.27854  1.0000
  H   H8        1.0  0.11086  0.34979  0.27662  1.0000
  C   C19       1.0  0.07255  0.23467  0.36395  1.0000
  C   C20       1.0  0.07871  0.26136  0.36422  1.0000
  H   H9        1.0  0.08729  0.22170  0.37257  1.0000
  H   H10       1.0  0.09760  0.26661  0.37431  1.0000
  C   C21       1.0  0.91782  0.68960  0.31475  1.0000
  C   C22       1.0  0.91194  0.66292  0.31290  1.0000
  H   H11       1.0  0.90544  0.70206  0.28310  1.0000
  H   H12       1.0  0.89542  0.65725  0.28030  1.0000
  C   C23       1.0  0.93352  0.77223  0.36851  1.0000
  C   C24       1.0  0.92742  0.74553  0.36915  1.0000
  H   H13       1.0  0.91875  0.78518  0.37686  1.0000
  H   H14       1.0  0.90854  0.74025  0.37925  1.0000
  C   C25       1.0  0.68929  0.08877  0.31041  1.0000
  C   C26       1.0  0.66269  0.09460  0.30910  1.0000
  H   H15       1.0  0.70173  0.10130  0.27899  1.0000
  H   H16       1.0  0.65705  0.11124  0.27710  1.0000
  C   C27       1.0  0.77170  0.07283  0.36367  1.0000
  C   C28       1.0  0.74513  0.07902  0.36395  1.0000
  H   H17       1.0  0.78474  0.08760  0.37253  1.0000
  H   H18       1.0  0.74001  0.09795  0.37430  1.0000
  C   C29       1.0  0.31647  0.91805  0.31348  1.0000
  C   C30       1.0  0.34303  0.91210  0.31179  1.0000
  H   H19       1.0  0.30397  0.90571  0.28149  1.0000
  H   H20       1.0  0.34857  0.89555  0.27901  1.0000
  C   C31       1.0  0.23416  0.93404  0.36669  1.0000
  C   C32       1.0  0.26072  0.92780  0.36732  1.0000
  H   H21       1.0  0.22109  0.91926  0.37472  1.0000
  H   H22       1.0  0.26578  0.90883  0.37711  1.0000
  C   C33       1.0  0.42816  0.86228  0.33097  1.0000
  C   C34       1.0  0.45111  0.85332  0.28812  1.0000
  C   C35       1.0  0.45677  0.82637  0.28651  1.0000
  C   C36       1.0  0.44045  0.80758  0.32699  1.0000
  C   C37       1.0  0.44684  0.78039  0.32622  1.0000
  C   C38       1.0  0.47270  0.77190  0.33711  1.0000
  C   C39       1.0  0.47906  0.74533  0.33730  1.0000
  C   C40       1.0  0.45987  0.72583  0.32714  1.0000
  H   H23       1.0  0.48729  0.78503  0.34753  1.0000
  H   H24       1.0  0.49804  0.74046  0.34676  1.0000
  H   H25       1.0  0.47307  0.82047  0.25335  1.0000
  N   N3        1.0  0.46790  0.87113  0.24462  1.0000
  O   O5        1.0  0.46967  0.86666  0.16173  1.0000
  O   O6        1.0  0.49018  0.87087  0.27860  1.0000
  C   C41       1.0  0.57727  0.14391  0.33387  1.0000
  C   C42       1.0  0.55417  0.15301  0.29239  1.0000
  C   C43       1.0  0.54859  0.17998  0.29150  1.0000
  C   C44       1.0  0.56517  0.19867  0.33129  1.0000
  C   C45       1.0  0.55894  0.22590  0.33077  1.0000
  C   C46       1.0  0.53318  0.23456  0.34260  1.0000
  C   C47       1.0  0.52697  0.26115  0.34267  1.0000
  C   C48       1.0  0.54622  0.28054  0.33147  1.0000
  H   H26       1.0  0.51854  0.22151  0.35369  1.0000
  H   H27       1.0  0.50804  0.26614  0.35279  1.0000
  H   H28       1.0  0.53220  0.18598  0.25914  1.0000
  N   N4        1.0  0.53713  0.13533  0.24942  1.0000
  O   O7        1.0  0.53499  0.13995  0.16672  1.0000
  O   O8        1.0  0.51502  0.13556  0.28467  1.0000
  C   C49       1.0  0.86226  0.57747  0.33210  1.0000
  C   C50       1.0  0.85306  0.55441  0.28983  1.0000
  C   C51       1.0  0.82612  0.54892  0.28792  1.0000
  C   C52       1.0  0.80754  0.56554  0.32750  1.0000
  C   C53       1.0  0.78033  0.55940  0.32637  1.0000
  C   C54       1.0  0.77141  0.53358  0.33760  1.0000
  C   C55       1.0  0.74482  0.52748  0.33773  1.0000
  C   C56       1.0  0.72569  0.54692  0.32729  1.0000
  H   H29       1.0  0.78424  0.51881  0.34825  1.0000
  H   H30       1.0  0.73964  0.50851  0.34750  1.0000
  H   H31       1.0  0.82005  0.53255  0.25509  1.0000
  N   N5        1.0  0.87066  0.53733  0.24719  1.0000
  O   O9        1.0  0.86630  0.53537  0.16429  1.0000
  O   O10       1.0  0.87006  0.51509  0.28188  1.0000
  C   C57       1.0  0.14386  0.42965  0.33498  1.0000
  C   C58       1.0  0.15324  0.45273  0.29330  1.0000
  C   C59       1.0  0.18020  0.45813  0.29227  1.0000
  C   C60       1.0  0.19863  0.44139  0.33211  1.0000
  C   C61       1.0  0.22588  0.44738  0.33137  1.0000
  C   C62       1.0  0.23491  0.47317  0.34267  1.0000
  C   C63       1.0  0.26152  0.47914  0.34279  1.0000
  C   C64       1.0  0.28057  0.45963  0.33219  1.0000
  H   H32       1.0  0.22214  0.48799  0.35331  1.0000
  H   H33       1.0  0.26678  0.49811  0.35246  1.0000
  H   H34       1.0  0.18640  0.47449  0.25970  1.0000
  N   N6        1.0  0.13582  0.46990  0.25024  1.0000
  O   O11       1.0  0.14042  0.47194  0.16752  1.0000
  O   O12       1.0  0.13636  0.49210  0.28527  1.0000
  C   C65       1.0  0.12536  0.05274  0.25594  1.0000
  C   C66       1.0  0.13934  0.02947  0.25859  1.0000
  H   H35       1.0  0.11270  0.05550  0.20393  1.0000
  H   H36       1.0  0.13613  0.01605  0.20890  1.0000
  C   C67       1.0  0.06494  0.10816  0.31810  1.0000
  C   C68       1.0  0.08298  0.08790  0.31473  1.0000
  H   H37       1.0  0.04603  0.10350  0.30571  1.0000
  H   H38       1.0  0.07626  0.06957  0.30180  1.0000
  C   C69       1.0  0.87999  0.95372  0.25496  1.0000
  C   C70       1.0  0.86604  0.97703  0.25725  1.0000
  H   H39       1.0  0.89227  0.95066  0.20207  1.0000
  H   H40       1.0  0.86892  0.99019  0.20650  1.0000
  C   C71       1.0  0.94076  0.89849  0.31576  1.0000
  C   C72       1.0  0.92272  0.91875  0.31204  1.0000
  H   H41       1.0  0.95959  0.90300  0.30126  1.0000
  H   H42       1.0  0.92938  0.93696  0.29691  1.0000
  C   C73       1.0  0.95408  0.12480  0.25519  1.0000
  C   C74       1.0  0.97745  0.13870  0.25781  1.0000
  H   H43       1.0  0.95123  0.11203  0.20341  1.0000
  H   H44       1.0  0.99083  0.13531  0.20836  1.0000
  C   C75       1.0  0.89788  0.06475  0.31734  1.0000
  C   C76       1.0  0.91832  0.08270  0.31381  1.0000
  H   H45       1.0  0.90228  0.04574  0.30513  1.0000
  H   H46       1.0  0.93650  0.07580  0.30106  1.0000
  C   C77       1.0  0.05171  0.88244  0.25815  1.0000
  C   C78       1.0  0.02832  0.86859  0.26078  1.0000
  H   H47       1.0  0.05447  0.89539  0.20685  1.0000
  H   H48       1.0  0.01486  0.87214  0.21171  1.0000
  C   C79       1.0  0.10799  0.94224  0.32138  1.0000
  C   C80       1.0  0.08755  0.92431  0.31784  1.0000
  H   H49       1.0  0.10354  0.96130  0.31013  1.0000
  H   H50       1.0  0.06933  0.93125  0.30597  1.0000
  C   C81       1.0  0.35079  0.52308  0.35534  1.0000
  C   C82       1.0  0.34672  0.54212  0.28779  1.0000
  C   C83       1.0  0.36122  0.56561  0.29026  1.0000
  C   C84       1.0  0.37986  0.57048  0.35810  1.0000
  C   C85       1.0  0.39755  0.59187  0.35283  1.0000
  C   C86       1.0  0.38968  0.61755  0.33313  1.0000
  C   C87       1.0  0.40780  0.63814  0.32954  1.0000
  C   C88       1.0  0.43454  0.63378  0.34393  1.0000
  H   H51       1.0  0.37051  0.62158  0.32321  1.0000
  H   H52       1.0  0.40120  0.65643  0.31582  1.0000
  H   H53       1.0  0.35936  0.57844  0.23811  1.0000
  N   N7        1.0  0.32968  0.53652  0.21575  1.0000
  O   O13       1.0  0.34135  0.53612  0.14158  1.0000
  O   O14       1.0  0.31176  0.55290  0.21150  1.0000
  C   C89       1.0  0.65562  0.48335  0.35279  1.0000
  C   C90       1.0  0.65955  0.46419  0.28555  1.0000
  C   C91       1.0  0.64509  0.44068  0.28897  1.0000
  C   C92       1.0  0.62662  0.43591  0.35743  1.0000
  C   C93       1.0  0.60890  0.41452  0.35308  1.0000
  C   C94       1.0  0.61671  0.38880  0.33364  1.0000
  C   C95       1.0  0.59857  0.36821  0.33095  1.0000
  C   C96       1.0  0.57187  0.37260  0.34601  1.0000
  H   H54       1.0  0.63586  0.38474  0.32322  1.0000
  H   H55       1.0  0.60512  0.34989  0.31736  1.0000
  H   H56       1.0  0.64682  0.42777  0.23701  1.0000
  N   N8        1.0  0.67641  0.46969  0.21290  1.0000
  O   O15       1.0  0.66456  0.46993  0.13906  1.0000
  O   O16       1.0  0.69434  0.45333  0.20851  1.0000
  C   C97       1.0  0.52388  0.65650  0.35088  1.0000
  C   C98       1.0  0.54247  0.65970  0.28143  1.0000
  C   C99       1.0  0.56595  0.64542  0.28498  1.0000
  C   C100      1.0  0.57122  0.62778  0.35569  1.0000
  C   C101      1.0  0.59252  0.61009  0.35195  1.0000
  C   C102      1.0  0.61798  0.61779  0.32849  1.0000
  C   C103      1.0  0.63845  0.59966  0.32577  1.0000
  C   C104      1.0  0.63416  0.57303  0.34475  1.0000
  H   H57       1.0  0.62193  0.63686  0.31470  1.0000
  H   H58       1.0  0.65655  0.60610  0.30877  1.0000
  H   H59       1.0  0.57842  0.64659  0.23167  1.0000
  N   N9        1.0  0.53642  0.67564  0.20683  1.0000
  O   O17       1.0  0.53564  0.66283  0.13491  1.0000
  O   O18       1.0  0.55267  0.69366  0.19821  1.0000
  C   C105      1.0  0.48249  0.35007  0.35519  1.0000
  C   C106      1.0  0.46372  0.34658  0.28650  1.0000
  C   C107      1.0  0.44024  0.36085  0.29017  1.0000
  C   C108      1.0  0.43513  0.37872  0.36031  1.0000
  C   C109      1.0  0.41379  0.39637  0.35652  1.0000
  C   C110      1.0  0.38829  0.38859  0.33402  1.0000
  C   C111      1.0  0.36780  0.40671  0.33119  1.0000
  C   C112      1.0  0.37211  0.43339  0.34912  1.0000
  H   H60       1.0  0.38431  0.36947  0.32105  1.0000
  H   H61       1.0  0.34966  0.40020  0.31497  1.0000
  H   H62       1.0  0.42762  0.35947  0.23732  1.0000
  N   N10       1.0  0.46960  0.33037  0.21241  1.0000
  O   O19       1.0  0.47017  0.34292  0.13991  1.0000
  O   O20       1.0  0.45336  0.31231  0.20509  1.0000
  C   C113      1.0  0.11697  0.42272  0.33756  1.0000
  N   N11       1.0  0.09775  0.44078  0.33609  1.0000
  C   C114      1.0  0.07217  0.43434  0.33719  1.0000
  N   N12       1.0  0.06614  0.40863  0.34118  1.0000
  C   C115      1.0  0.08436  0.38962  0.34377  1.0000
  N   N13       1.0  0.10956  0.39735  0.34144  1.0000
  C   C116      1.0  0.88914  0.58435  0.33653  1.0000
  N   N14       1.0  0.90831  0.56625  0.33657  1.0000
  C   C117      1.0  0.93395  0.57243  0.34106  1.0000
  N   N15       1.0  0.93996  0.59816  0.34597  1.0000
  C   C118      1.0  0.92183  0.61727  0.34687  1.0000
  N   N16       1.0  0.89663  0.60966  0.34187  1.0000
  C   C119      1.0  0.58426  0.11701  0.33681  1.0000
  N   N17       1.0  0.56623  0.09766  0.33576  1.0000
  C   C120      1.0  0.57257  0.07203  0.33729  1.0000
  N   N18       1.0  0.59818  0.06609  0.34125  1.0000
  C   C121      1.0  0.61719  0.08444  0.34353  1.0000
  N   N19       1.0  0.60955  0.10970  0.34080  1.0000
  C   C122      1.0  0.42125  0.88917  0.33566  1.0000
  N   N20       1.0  0.43937  0.90841  0.33604  1.0000
  C   C123      1.0  0.43337  0.93410  0.34077  1.0000
  N   N21       1.0  0.40775  0.94012  0.34561  1.0000
  C   C124      1.0  0.38860  0.92190  0.34630  1.0000
  N   N22       1.0  0.39604  0.89661  0.34107  1.0000
  C   C125      1.0  0.00877  0.16528  0.33721  1.0000
  N   N23       1.0  0.01525  0.19074  0.34452  1.0000
  C   C126      1.0  0.04044  0.19876  0.34957  1.0000
  N   N24       1.0  0.05919  0.18005  0.34765  1.0000
  C   C127      1.0  0.05357  0.15423  0.34084  1.0000
  N   N25       1.0  0.02817  0.14775  0.33529  1.0000
  C   C128      1.0  0.99712  0.84171  0.33965  1.0000
  N   N26       1.0  0.99069  0.81626  0.34789  1.0000
  C   C129      1.0  0.96552  0.80819  0.35311  1.0000
  N   N27       1.0  0.94671  0.82684  0.35042  1.0000
  C   C130      1.0  0.95227  0.85264  0.34263  1.0000
  N   N28       1.0  0.97767  0.85917  0.33701  1.0000
  C   C131      1.0  0.84040  0.00874  0.33766  1.0000
  N   N29       1.0  0.81507  0.01530  0.34477  1.0000
  C   C132      1.0  0.80730  0.04060  0.34929  1.0000
  N   N30       1.0  0.82612  0.05937  0.34706  1.0000
  C   C133      1.0  0.85182  0.05365  0.34040  1.0000
  N   N31       1.0  0.85804  0.02814  0.33540  1.0000
  C   C134      1.0  0.16557  0.99819  0.33881  1.0000
  N   N32       1.0  0.19088  0.99163  0.34663  1.0000
  C   C135      1.0  0.19864  0.96634  0.35209  1.0000
  N   N33       1.0  0.17982  0.94756  0.35010  1.0000
  C   C136      1.0  0.15414  0.95327  0.34288  1.0000
  N   N34       1.0  0.14795  0.97876  0.33696  1.0000
  C   C137      1.0  0.49817  0.66569  0.34317  1.0000
  N   N35       1.0  0.49159  0.69107  0.33546  1.0000
  C   C138      1.0  0.46635  0.69881  0.33054  1.0000
  N   N36       1.0  0.44769  0.67990  0.33299  1.0000
  C   C139      1.0  0.45341  0.65415  0.34015  1.0000
  N   N37       1.0  0.47885  0.64795  0.34558  1.0000
  C   C140      1.0  0.50817  0.34083  0.34722  1.0000
  N   N38       1.0  0.51468  0.31542  0.33986  1.0000
  C   C141      1.0  0.53988  0.30760  0.33459  1.0000
  N   N39       1.0  0.55861  0.32646  0.33627  1.0000
  C   C142      1.0  0.55296  0.35224  0.34308  1.0000
  N   N40       1.0  0.52754  0.35851  0.34890  1.0000
  C   C143      1.0  0.66519  0.50905  0.34466  1.0000
  N   N41       1.0  0.69057  0.51547  0.33646  1.0000
  C   C144      1.0  0.69864  0.54072  0.33094  1.0000
  N   N42       1.0  0.68005  0.55961  0.33328  1.0000
  C   C145      1.0  0.65431  0.55405  0.34097  1.0000
  N   N43       1.0  0.64781  0.52859  0.34687  1.0000
  C   C146      1.0  0.34115  0.49738  0.34804  1.0000
  N   N44       1.0  0.31576  0.49099  0.34031  1.0000
  C   C147      1.0  0.30764  0.46575  0.33548  1.0000
  N   N45       1.0  0.32619  0.44683  0.33800  1.0000
  C   C148      1.0  0.35195  0.45236  0.34524  1.0000
  N   N46       1.0  0.35849  0.47782  0.35047  1.0000
  C   C149      1.0  0.03710  0.49687  0.38235  1.0000
  C   C150      1.0  0.05632  0.47754  0.38058  1.0000
  H   H63       1.0  0.04066  0.51329  0.41901  1.0000
  H   H64       1.0  0.07305  0.48080  0.41574  1.0000
  C   C151      1.0  0.98030  0.55939  0.33749  1.0000
  C   C152      1.0  0.99964  0.54014  0.33644  1.0000
  H   H65       1.0  0.98605  0.57840  0.33484  1.0000
  H   H66       1.0  0.01851  0.54605  0.33181  1.0000
  C   C153      1.0  0.50974  0.03725  0.38172  1.0000
  C   C154      1.0  0.52927  0.05639  0.38015  1.0000
  H   H67       1.0  0.49332  0.04101  0.41769  1.0000
  H   H68       1.0  0.52610  0.07328  0.41464  1.0000
  C   C155      1.0  0.44686  0.98053  0.33628  1.0000
  C   C156      1.0  0.46627  0.99984  0.33529  1.0000
  H   H69       1.0  0.42798  0.98637  0.33278  1.0000
  H   H70       1.0  0.46062  0.01878  0.32984  1.0000
  C   C157      1.0  0.07755  0.36268  0.34777  1.0000
  C   C158      1.0  0.05456  0.35345  0.38994  1.0000
  C   C159      1.0  0.04909  0.32643  0.39156  1.0000
  C   C160      1.0  0.06563  0.30784  0.35163  1.0000
  C   C161      1.0  0.05944  0.28058  0.35256  1.0000
  C   C162      1.0  0.03366  0.27173  0.34118  1.0000
  C   C163      1.0  0.02747  0.24509  0.34142  1.0000
  C   C164      1.0  0.04676  0.22585  0.35248  1.0000
  H   H71       1.0  0.01900  0.28466  0.33018  1.0000
  H   H72       1.0  0.00853  0.23997  0.33163  1.0000
  H   H73       1.0  0.03278  0.32032  0.42440  1.0000
  N   N47       1.0  0.03758  0.37106  0.43300  1.0000
  O   O21       1.0  0.03586  0.36668  0.51597  1.0000
  O   O22       1.0  0.01530  0.37030  0.39917  1.0000
  C   C165      1.0  0.92864  0.64422  0.35167  1.0000
  C   C166      1.0  0.95161  0.65341  0.39414  1.0000
  C   C167      1.0  0.95710  0.68042  0.39618  1.0000
  C   C168      1.0  0.94056  0.69907  0.35651  1.0000
  C   C169      1.0  0.94673  0.72633  0.35766  1.0000
  C   C170      1.0  0.97250  0.73522  0.34632  1.0000
  C   C171      1.0  0.97863  0.76187  0.34619  1.0000
  C   C172      1.0  0.95929  0.78109  0.35683  1.0000
  H   H74       1.0  0.98717  0.72231  0.33542  1.0000
  H   H75       1.0  0.99755  0.76703  0.33624  1.0000
  H   H76       1.0  0.97341  0.68649  0.42911  1.0000
  N   N48       1.0  0.96861  0.63573  0.43680  1.0000
  O   O23       1.0  0.97053  0.64007  0.51974  1.0000
  O   O24       1.0  0.99080  0.63633  0.40226  1.0000
  C   C173      1.0  0.64404  0.07770  0.34760  1.0000
  C   C174      1.0  0.65316  0.05460  0.38942  1.0000
  C   C175      1.0  0.68008  0.04919  0.39103  1.0000
  C   C176      1.0  0.69869  0.06588  0.35140  1.0000
  C   C177      1.0  0.72584  0.05969  0.35213  1.0000
  C   C178      1.0  0.73450  0.03385  0.34040  1.0000
  C   C179      1.0  0.76102  0.02764  0.34070  1.0000
  C   C180      1.0  0.78033  0.04697  0.35202  1.0000
  H   H77       1.0  0.72153  0.01915  0.32931  1.0000
  H   H78       1.0  0.76600  0.00865  0.33073  1.0000
  H   H79       1.0  0.68610  0.03280  0.42360  1.0000
  N   N49       1.0  0.63555  0.03744  0.43210  1.0000
  O   O25       1.0  0.63987  0.03562  0.51506  1.0000
  O   O26       1.0  0.63628  0.01514  0.39792  1.0000
  C   C181      1.0  0.36177  0.92874  0.35109  1.0000
  C   C182      1.0  0.35278  0.95173  0.39395  1.0000
  C   C183      1.0  0.32589  0.95730  0.39576  1.0000
  C   C184      1.0  0.30719  0.94083  0.35551  1.0000
  C   C185      1.0  0.28006  0.94712  0.35642  1.0000
  C   C186      1.0  0.27148  0.97301  0.34547  1.0000
  C   C187      1.0  0.24497  0.97927  0.34529  1.0000
  C   C188      1.0  0.22560  0.95995  0.35552  1.0000
  H   H80       1.0  0.28451  0.98771  0.33508  1.0000
  H   H81       1.0  0.24004  0.99830  0.33587  1.0000
  H   H82       1.0  0.31996  0.97362  0.42895  1.0000
  N   N50       1.0  0.37050  0.96865  0.43723  1.0000
  O   O27       1.0  0.36610  0.97043  0.52016  1.0000
  O   O28       1.0  0.37014  0.99098  0.40319  1.0000
  C   C189      1.0  0.41770  0.81681  0.36896  1.0000
  C   C190      1.0  0.41165  0.84343  0.37043  1.0000
  H   H83       1.0  0.40546  0.80424  0.40108  1.0000
  H   H84       1.0  0.39514  0.84894  0.40320  1.0000
  C   C191      1.0  0.43401  0.73430  0.31603  1.0000
  C   C192      1.0  0.42767  0.76091  0.31537  1.0000
  H   H85       1.0  0.41933  0.72113  0.30805  1.0000
  H   H86       1.0  0.40873  0.76590  0.30565  1.0000
  C   C193      1.0  0.58802  0.18929  0.37215  1.0000
  C   C194      1.0  0.59398  0.16265  0.37293  1.0000
  H   H87       1.0  0.60045  0.20179  0.40377  1.0000
  H   H88       1.0  0.61062  0.15705  0.40473  1.0000
  C   C195      1.0  0.57200  0.27192  0.31955  1.0000
  C   C196      1.0  0.57819  0.24527  0.31899  1.0000
  H   H89       1.0  0.58672  0.28500  0.31078  1.0000
  H   H90       1.0  0.59706  0.24016  0.30850  1.0000
  C   C197      1.0  0.81702  0.58835  0.36917  1.0000
  C   C198      1.0  0.84363  0.59422  0.37092  1.0000
  H   H91       1.0  0.80462  0.60080  0.40078  1.0000
  H   H92       1.0  0.84929  0.61082  0.40338  1.0000
  C   C199      1.0  0.73458  0.57275  0.31576  1.0000
  C   C200      1.0  0.76122  0.57882  0.31508  1.0000
  H   H93       1.0  0.72170  0.58760  0.30752  1.0000
  H   H94       1.0  0.76651  0.59775  0.30507  1.0000
  C   C201      1.0  0.18897  0.41859  0.37335  1.0000
  C   C202      1.0  0.16233  0.41282  0.37429  1.0000
  H   H95       1.0  0.20126  0.40605  0.40505  1.0000
  H   H96       1.0  0.15654  0.39618  0.40620  1.0000
  C   C203      1.0  0.27157  0.43383  0.32074  1.0000
  C   C204      1.0  0.24491  0.42788  0.32012  1.0000
  H   H97       1.0  0.28439  0.41894  0.31241  1.0000
  H   H98       1.0  0.23952  0.40898  0.31002  1.0000
  C   C205      1.0  0.15627  0.02391  0.33067  1.0000
  C   C206      1.0  0.15983  0.04283  0.39906  1.0000
  C   C207      1.0  0.14541  0.06627  0.39566  1.0000
  C   C208      1.0  0.12735  0.07119  0.32610  1.0000
  C   C209      1.0  0.10961  0.09244  0.33030  1.0000
  C   C210      1.0  0.11732  0.11814  0.35138  1.0000
  C   C211      1.0  0.09915  0.13858  0.35413  1.0000
  C   C212      1.0  0.07252  0.13404  0.33757  1.0000
  H   H99       1.0  0.13641  0.12228  0.36307  1.0000
  H   H100      1.0  0.10562  0.15688  0.36905  1.0000
  H   H101      1.0  0.14686  0.07899  0.44831  1.0000
  N   N51       1.0  0.17623  0.03712  0.47266  1.0000
  O   O29       1.0  0.16393  0.03653  0.54560  1.0000
  O   O30       1.0  0.19415  0.05355  0.47917  1.0000
  C   C213      1.0  0.84964  0.98298  0.33038  1.0000
  C   C214      1.0  0.84662  0.96450  0.40046  1.0000
  C   C215      1.0  0.86097  0.94102  0.39733  1.0000
  C   C216      1.0  0.87848  0.93566  0.32647  1.0000
  C   C217      1.0  0.89622  0.91439  0.33057  1.0000
  C   C218      1.0  0.88864  0.88888  0.35463  1.0000
  C   C219      1.0  0.90679  0.86842  0.35766  1.0000
  C   C220      1.0  0.93331  0.87279  0.33849  1.0000
  H   H102      1.0  0.86964  0.88486  0.36853  1.0000
  H   H103      1.0  0.90043  0.85027  0.37507  1.0000
  H   H104      1.0  0.85995  0.92863  0.45102  1.0000
  N   N52       1.0  0.83081  0.97068  0.47517  1.0000
  O   O31       1.0  0.84370  0.97171  0.54681  1.0000
  O   O32       1.0  0.81295  0.95431  0.48464  1.0000
  C   C221      1.0  0.98308  0.15585  0.32943  1.0000
  C   C222      1.0  0.96419  0.15964  0.39748  1.0000
  C   C223      1.0  0.94065  0.14531  0.39411  1.0000
  C   C224      1.0  0.93560  0.12709  0.32493  1.0000
  C   C225      1.0  0.91415  0.10945  0.32916  1.0000
  C   C226      1.0  0.88864  0.11737  0.35011  1.0000
  C   C227      1.0  0.86801  0.09930  0.35307  1.0000
  C   C228      1.0  0.87217  0.07253  0.33678  1.0000
  H   H105      1.0  0.88476  0.13656  0.36172  1.0000
  H   H106      1.0  0.84986  0.10591  0.36801  1.0000
  H   H107      1.0  0.92793  0.14693  0.44654  1.0000
  N   N53       1.0  0.96998  0.17623  0.47072  1.0000
  O   O33       1.0  0.97035  0.16405  0.54398  1.0000
  O   O34       1.0  0.95380  0.19429  0.47654  1.0000
  C   C229      1.0  0.02280  0.85119  0.33183  1.0000
  C   C230      1.0  0.04184  0.84708  0.39912  1.0000
  C   C231      1.0  0.06539  0.86140  0.39582  1.0000
  C   C232      1.0  0.07030  0.87989  0.32739  1.0000
  C   C233      1.0  0.09176  0.89751  0.33186  1.0000
  C   C234      1.0  0.11733  0.88951  0.35170  1.0000
  C   C235      1.0  0.13796  0.90759  0.35474  1.0000
  C   C236      1.0  0.13376  0.93440  0.33957  1.0000
  H   H108      1.0  0.12124  0.87029  0.36231  1.0000
  H   H109      1.0  0.15616  0.90092  0.36866  1.0000
  H   H110      1.0  0.07822  0.85956  0.44783  1.0000
  N   N54       1.0  0.03621  0.83020  0.47169  1.0000
  O   O35       1.0  0.03604  0.84206  0.54557  1.0000
  O   O36       1.0  0.05237  0.81208  0.47608  1.0000
  C   C237      1.0  0.38238  0.55191  0.42760  1.0000
  C   C238      1.0  0.36833  0.52859  0.42582  1.0000
  H   H111      1.0  0.39544  0.55465  0.47849  1.0000
  H   H112      1.0  0.37186  0.51513  0.47503  1.0000
  C   C239      1.0  0.44227  0.60790  0.36189  1.0000
  C   C240      1.0  0.42429  0.58749  0.36604  1.0000
  H   H113      1.0  0.46127  0.60336  0.37259  1.0000
  H   H114      1.0  0.43112  0.56918  0.37787  1.0000
  C   C241      1.0  0.62423  0.45461  0.42658  1.0000
  C   C242      1.0  0.63826  0.47795  0.42392  1.0000
  H   H115      1.0  0.61128  0.45197  0.47784  1.0000
  H   H116      1.0  0.63479  0.49150  0.47285  1.0000
  C   C243      1.0  0.56420  0.39852  0.36372  1.0000
  C   C244      1.0  0.58220  0.41892  0.36699  1.0000
  H   H117      1.0  0.54522  0.40309  0.37487  1.0000
  H   H118      1.0  0.57540  0.43725  0.37863  1.0000
  C   C245      1.0  0.55304  0.62609  0.42662  1.0000
  C   C246      1.0  0.52973  0.63996  0.42388  1.0000
  H   H119      1.0  0.55603  0.61374  0.47946  1.0000
  H   H120      1.0  0.51653  0.63694  0.47425  1.0000
  C   C247      1.0  0.60852  0.56547  0.36687  1.0000
  C   C248      1.0  0.58825  0.58348  0.37020  1.0000
  H   H121      1.0  0.60405  0.54656  0.38118  1.0000
  H   H122      1.0  0.57009  0.57671  0.38486  1.0000
  C   C249      1.0  0.45348  0.38067  0.43065  1.0000
  C   C250      1.0  0.47681  0.36685  0.42770  1.0000
  H   H123      1.0  0.45059  0.39318  0.48312  1.0000
  H   H124      1.0  0.49012  0.37002  0.47763  1.0000
  C   C251      1.0  0.39780  0.44102  0.37028  1.0000
  C   C252      1.0  0.41809  0.42304  0.37369  1.0000
  H   H125      1.0  0.40231  0.45997  0.38379  1.0000
  H   H126      1.0  0.43628  0.42986  0.38757  1.0000
