data_image0
_chemical_formula_structural       C2HC2HN2C4H3CH3CHC4H3CH3CHC4OC4OH4N2C3H2CHC3H2CHC2HC2HN2C4H3CH3CHC4H3CH3CHC4OC4OH4N2C3H2CHC3H2CHC2HC2HN2C4H3CH3CHC4H3CH3CHC4OC4OH4N2C3H2CHC3H2CHC2HC2HN2C4H3CH3CHC4H3CH3CHC4OC4OH4N2C3H2CHC3H2CH
_chemical_formula_sum              "C128 H104 N16 O8"
_cell_length_a       31.5864
_cell_length_b       31.5864
_cell_length_c       14.9439
_cell_angle_alpha    90
_cell_angle_beta     90
_cell_angle_gamma    90

_space_group_name_H-M_alt    "P 1"
_space_group_IT_number       1

loop_
  _space_group_symop_operation_xyz
  'x, y, z'

loop_
  _atom_site_type_symbol
  _atom_site_label
  _atom_site_symmetry_multiplicity
  _atom_site_fract_x
  _atom_site_fract_y
  _atom_site_fract_z
  _atom_site_occupancy
  C   C1        1.0  0.48875  0.45294  0.31736  1.0000
  C   C2        1.0  0.45793  0.42052  0.31873  1.0000
  H   H1        1.0  0.01910  0.44280  0.31644  1.0000
  C   C3        1.0  0.03413  0.10553  0.31480  1.0000
  C   C4        1.0  0.00235  0.07392  0.31521  1.0000
  H   H2        1.0  0.47202  0.08453  0.31317  1.0000
  N   N1        1.0  0.02688  0.14771  0.30931  1.0000
  N   N2        1.0  0.46665  0.37843  0.31710  1.0000
  C   C5        1.0  0.00268  0.31026  0.30844  1.0000
  C   C6        1.0  0.04041  0.28600  0.29464  1.0000
  C   C7        1.0  0.03765  0.24103  0.28192  1.0000
  C   C8        1.0  0.08258  0.30790  0.29655  1.0000
  H   H3        1.0  0.08495  0.32775  0.35613  1.0000
  H   H4        1.0  0.08616  0.32764  0.23707  1.0000
  H   H5        1.0  0.10956  0.28650  0.30002  1.0000
  C   C9        1.0  0.07346  0.21859  0.23650  1.0000
  H   H6        1.0  0.06253  0.19248  0.19479  1.0000
  H   H7        1.0  0.09564  0.20682  0.28657  1.0000
  H   H8        1.0  0.59040  0.23931  0.19033  1.0000
  C   C10       1.0  0.00252  0.35521  0.31133  1.0000
  H   H9        1.0  0.03013  0.37145  0.30373  1.0000
  C   C11       1.0  0.19845  0.00564  0.30899  1.0000
  C   C12       1.0  0.22289  0.96811  0.29416  1.0000
  C   C13       1.0  0.26785  0.97117  0.28143  1.0000
  C   C14       1.0  0.20115  0.92585  0.29429  1.0000
  H   H10       1.0  0.18146  0.92280  0.35396  1.0000
  H   H11       1.0  0.22264  0.89891  0.29616  1.0000
  H   H12       1.0  0.18126  0.92285  0.23487  1.0000
  C   C15       1.0  0.29048  0.93580  0.23481  1.0000
  H   H13       1.0  0.31689  0.94704  0.19433  1.0000
  H   H14       1.0  0.26991  0.91953  0.18728  1.0000
  H   H15       1.0  0.30190  0.41299  0.28394  1.0000
  C   C16       1.0  0.15350  0.00559  0.31228  1.0000
  H   H16       1.0  0.13730  0.97794  0.30488  1.0000
  C   C17       1.0  0.47900  0.49718  0.31717  1.0000
  C   C18       1.0  0.41493  0.43187  0.32026  1.0000
  C   C19       1.0  0.40296  0.47478  0.31687  1.0000
  C   C20       1.0  0.43466  0.50647  0.31632  1.0000
  O   O1        1.0  0.38486  0.40081  0.31938  1.0000
  C   C21       1.0  0.01148  0.02955  0.31686  1.0000
  C   C22       1.0  0.05568  0.01962  0.31796  1.0000
  C   C23       1.0  0.08819  0.05033  0.31794  1.0000
  C   C24       1.0  0.07702  0.09339  0.31649  1.0000
  O   O2        1.0  0.10807  0.12349  0.31696  1.0000
  H   H17       1.0  0.37792  0.39506  0.38237  1.0000
  H   H18       1.0  0.11793  0.12618  0.25476  1.0000
  H   H19       1.0  0.42414  0.03682  0.31396  1.0000
  H   H20       1.0  0.06574  0.48925  0.31976  1.0000
  N   N3        1.0  0.13023  0.04146  0.31685  1.0000
  N   N4        1.0  0.36082  0.48211  0.31099  1.0000
  C   C25       1.0  0.49878  0.21918  0.29982  1.0000
  C   C26       1.0  0.46231  0.24389  0.31605  1.0000
  C   C27       1.0  0.46397  0.28819  0.31761  1.0000
  H   H21       1.0  0.43623  0.30404  0.32899  1.0000
  H   H22       1.0  0.43355  0.22984  0.32732  1.0000
  C   C28       1.0  0.49370  0.17452  0.30526  1.0000
  H   H23       1.0  0.46415  0.16176  0.31318  1.0000
  C   C29       1.0  0.28947  0.51008  0.30016  1.0000
  C   C30       1.0  0.26460  0.54636  0.31699  1.0000
  C   C31       1.0  0.22032  0.54444  0.31863  1.0000
  H   H24       1.0  0.20435  0.57204  0.33086  1.0000
  H   H25       1.0  0.27851  0.57513  0.32892  1.0000
  C   C32       1.0  0.33408  0.51530  0.30601  1.0000
  H   H26       1.0  0.34680  0.54487  0.31398  1.0000
  C   C33       1.0  0.48875  0.95294  0.31736  1.0000
  C   C34       1.0  0.45793  0.92052  0.31873  1.0000
  H   H27       1.0  0.01910  0.94280  0.31644  1.0000
  C   C35       1.0  0.03413  0.60553  0.31480  1.0000
  C   C36       1.0  0.00235  0.57392  0.31521  1.0000
  H   H28       1.0  0.47202  0.58453  0.31317  1.0000
  N   N5        1.0  0.02688  0.64771  0.30931  1.0000
  N   N6        1.0  0.46665  0.87843  0.31710  1.0000
  C   C37       1.0  0.00268  0.81026  0.30844  1.0000
  C   C38       1.0  0.04041  0.78600  0.29464  1.0000
  C   C39       1.0  0.03765  0.74103  0.28192  1.0000
  C   C40       1.0  0.08258  0.80790  0.29655  1.0000
  H   H29       1.0  0.08495  0.82775  0.35613  1.0000
  H   H30       1.0  0.08616  0.82764  0.23707  1.0000
  H   H31       1.0  0.10956  0.78650  0.30002  1.0000
  C   C41       1.0  0.07346  0.71859  0.23650  1.0000
  H   H32       1.0  0.06253  0.69249  0.19479  1.0000
  H   H33       1.0  0.09564  0.70682  0.28657  1.0000
  H   H34       1.0  0.59040  0.73931  0.19033  1.0000
  C   C42       1.0  0.00252  0.85521  0.31133  1.0000
  H   H35       1.0  0.03013  0.87145  0.30373  1.0000
  C   C43       1.0  0.19845  0.50564  0.30899  1.0000
  C   C44       1.0  0.22289  0.46811  0.29416  1.0000
  C   C45       1.0  0.26785  0.47117  0.28143  1.0000
  C   C46       1.0  0.20115  0.42586  0.29429  1.0000
  H   H36       1.0  0.18146  0.42280  0.35396  1.0000
  H   H37       1.0  0.22264  0.39891  0.29616  1.0000
  H   H38       1.0  0.18126  0.42285  0.23487  1.0000
  C   C47       1.0  0.29048  0.43580  0.23481  1.0000
  H   H39       1.0  0.31689  0.44704  0.19433  1.0000
  H   H40       1.0  0.26991  0.41953  0.18728  1.0000
  H   H41       1.0  0.30190  0.91299  0.28394  1.0000
  C   C48       1.0  0.15350  0.50559  0.31228  1.0000
  H   H42       1.0  0.13730  0.47794  0.30488  1.0000
  C   C49       1.0  0.47900  0.99718  0.31717  1.0000
  C   C50       1.0  0.41493  0.93187  0.32026  1.0000
  C   C51       1.0  0.40296  0.97478  0.31687  1.0000
  C   C52       1.0  0.43466  0.00647  0.31632  1.0000
  O   O3        1.0  0.38486  0.90082  0.31938  1.0000
  C   C53       1.0  0.01148  0.52955  0.31686  1.0000
  C   C54       1.0  0.05568  0.51962  0.31796  1.0000
  C   C55       1.0  0.08819  0.55033  0.31794  1.0000
  C   C56       1.0  0.07702  0.59340  0.31649  1.0000
  O   O4        1.0  0.10807  0.62349  0.31696  1.0000
  H   H43       1.0  0.37792  0.89506  0.38237  1.0000
  H   H44       1.0  0.11793  0.62618  0.25476  1.0000
  H   H45       1.0  0.42414  0.53682  0.31396  1.0000
  H   H46       1.0  0.06574  0.98925  0.31976  1.0000
  N   N7        1.0  0.13023  0.54146  0.31685  1.0000
  N   N8        1.0  0.36082  0.98210  0.31099  1.0000
  C   C57       1.0  0.49878  0.71918  0.29982  1.0000
  C   C58       1.0  0.46231  0.74389  0.31605  1.0000
  C   C59       1.0  0.46397  0.78819  0.31761  1.0000
  H   H47       1.0  0.43623  0.80404  0.32899  1.0000
  H   H48       1.0  0.43355  0.72984  0.32732  1.0000
  C   C60       1.0  0.49370  0.67452  0.30526  1.0000
  H   H49       1.0  0.46415  0.66176  0.31318  1.0000
  C   C61       1.0  0.28947  0.01009  0.30016  1.0000
  C   C62       1.0  0.26460  0.04637  0.31699  1.0000
  C   C63       1.0  0.22032  0.04444  0.31863  1.0000
  H   H50       1.0  0.20435  0.07204  0.33086  1.0000
  H   H51       1.0  0.27851  0.07513  0.32892  1.0000
  C   C64       1.0  0.33408  0.01530  0.30601  1.0000
  H   H52       1.0  0.34680  0.04487  0.31398  1.0000
  C   C65       1.0  0.98875  0.45294  0.31736  1.0000
  C   C66       1.0  0.95793  0.42052  0.31873  1.0000
  H   H53       1.0  0.51910  0.44280  0.31644  1.0000
  C   C67       1.0  0.53413  0.10553  0.31480  1.0000
  C   C68       1.0  0.50235  0.07392  0.31521  1.0000
  H   H54       1.0  0.97202  0.08453  0.31317  1.0000
  N   N9        1.0  0.52688  0.14771  0.30931  1.0000
  N   N10       1.0  0.96665  0.37843  0.31710  1.0000
  C   C69       1.0  0.50268  0.31026  0.30844  1.0000
  C   C70       1.0  0.54041  0.28600  0.29464  1.0000
  C   C71       1.0  0.53765  0.24103  0.28192  1.0000
  C   C72       1.0  0.58258  0.30790  0.29655  1.0000
  H   H55       1.0  0.58495  0.32775  0.35613  1.0000
  H   H56       1.0  0.58616  0.32764  0.23707  1.0000
  H   H57       1.0  0.60956  0.28650  0.30002  1.0000
  C   C73       1.0  0.57346  0.21859  0.23650  1.0000
  H   H58       1.0  0.56253  0.19248  0.19479  1.0000
  H   H59       1.0  0.59564  0.20682  0.28657  1.0000
  H   H60       1.0  0.09040  0.23931  0.19033  1.0000
  C   C74       1.0  0.50251  0.35521  0.31133  1.0000
  H   H61       1.0  0.53012  0.37145  0.30373  1.0000
  C   C75       1.0  0.69845  0.00564  0.30899  1.0000
  C   C76       1.0  0.72289  0.96811  0.29416  1.0000
  C   C77       1.0  0.76784  0.97117  0.28143  1.0000
  C   C78       1.0  0.70115  0.92585  0.29429  1.0000
  H   H62       1.0  0.68146  0.92280  0.35396  1.0000
  H   H63       1.0  0.72264  0.89891  0.29616  1.0000
  H   H64       1.0  0.68126  0.92285  0.23487  1.0000
  C   C79       1.0  0.79048  0.93580  0.23481  1.0000
  H   H65       1.0  0.81689  0.94704  0.19433  1.0000
  H   H66       1.0  0.76991  0.91953  0.18728  1.0000
  H   H67       1.0  0.80190  0.41299  0.28394  1.0000
  C   C80       1.0  0.65349  0.00559  0.31228  1.0000
  H   H68       1.0  0.63730  0.97794  0.30488  1.0000
  C   C81       1.0  0.97899  0.49718  0.31717  1.0000
  C   C82       1.0  0.91493  0.43187  0.32026  1.0000
  C   C83       1.0  0.90296  0.47478  0.31687  1.0000
  C   C84       1.0  0.93466  0.50647  0.31632  1.0000
  O   O5        1.0  0.88486  0.40081  0.31938  1.0000
  C   C85       1.0  0.51148  0.02955  0.31686  1.0000
  C   C86       1.0  0.55568  0.01962  0.31796  1.0000
  C   C87       1.0  0.58819  0.05033  0.31794  1.0000
  C   C88       1.0  0.57702  0.09339  0.31649  1.0000
  O   O6        1.0  0.60807  0.12349  0.31696  1.0000
  H   H69       1.0  0.87792  0.39506  0.38237  1.0000
  H   H70       1.0  0.61793  0.12618  0.25476  1.0000
  H   H71       1.0  0.92414  0.03682  0.31396  1.0000
  H   H72       1.0  0.56573  0.48925  0.31976  1.0000
  N   N11       1.0  0.63023  0.04146  0.31685  1.0000
  N   N12       1.0  0.86082  0.48211  0.31099  1.0000
  C   C89       1.0  0.99877  0.21918  0.29982  1.0000
  C   C90       1.0  0.96231  0.24389  0.31605  1.0000
  C   C91       1.0  0.96397  0.28819  0.31761  1.0000
  H   H73       1.0  0.93623  0.30404  0.32899  1.0000
  H   H74       1.0  0.93355  0.22984  0.32732  1.0000
  C   C92       1.0  0.99370  0.17452  0.30526  1.0000
  H   H75       1.0  0.96415  0.16176  0.31318  1.0000
  C   C93       1.0  0.78947  0.51008  0.30016  1.0000
  C   C94       1.0  0.76460  0.54636  0.31699  1.0000
  C   C95       1.0  0.72032  0.54444  0.31863  1.0000
  H   H76       1.0  0.70435  0.57204  0.33086  1.0000
  H   H77       1.0  0.77851  0.57513  0.32892  1.0000
  C   C96       1.0  0.83408  0.51530  0.30601  1.0000
  H   H78       1.0  0.84680  0.54487  0.31398  1.0000
  C   C97       1.0  0.98875  0.95294  0.31736  1.0000
  C   C98       1.0  0.95793  0.92052  0.31873  1.0000
  H   H79       1.0  0.51910  0.94280  0.31644  1.0000
  C   C99       1.0  0.53413  0.60553  0.31480  1.0000
  C   C100      1.0  0.50235  0.57392  0.31521  1.0000
  H   H80       1.0  0.97202  0.58453  0.31317  1.0000
  N   N13       1.0  0.52688  0.64771  0.30931  1.0000
  N   N14       1.0  0.96665  0.87843  0.31710  1.0000
  C   C101      1.0  0.50268  0.81026  0.30844  1.0000
  C   C102      1.0  0.54041  0.78600  0.29464  1.0000
  C   C103      1.0  0.53765  0.74103  0.28192  1.0000
  C   C104      1.0  0.58258  0.80790  0.29655  1.0000
  H   H81       1.0  0.58495  0.82775  0.35613  1.0000
  H   H82       1.0  0.58616  0.82764  0.23707  1.0000
  H   H83       1.0  0.60956  0.78650  0.30002  1.0000
  C   C105      1.0  0.57346  0.71859  0.23650  1.0000
  H   H84       1.0  0.56253  0.69249  0.19479  1.0000
  H   H85       1.0  0.59564  0.70682  0.28657  1.0000
  H   H86       1.0  0.09040  0.73931  0.19033  1.0000
  C   C106      1.0  0.50251  0.85521  0.31133  1.0000
  H   H87       1.0  0.53012  0.87145  0.30373  1.0000
  C   C107      1.0  0.69845  0.50564  0.30899  1.0000
  C   C108      1.0  0.72289  0.46811  0.29416  1.0000
  C   C109      1.0  0.76784  0.47117  0.28143  1.0000
  C   C110      1.0  0.70115  0.42586  0.29429  1.0000
  H   H88       1.0  0.68146  0.42280  0.35396  1.0000
  H   H89       1.0  0.72264  0.39891  0.29616  1.0000
  H   H90       1.0  0.68126  0.42285  0.23487  1.0000
  C   C111      1.0  0.79048  0.43580  0.23481  1.0000
  H   H91       1.0  0.81689  0.44704  0.19433  1.0000
  H   H92       1.0  0.76991  0.41953  0.18728  1.0000
  H   H93       1.0  0.80190  0.91299  0.28394  1.0000
  C   C112      1.0  0.65349  0.50559  0.31228  1.0000
  H   H94       1.0  0.63730  0.47794  0.30488  1.0000
  C   C113      1.0  0.97899  0.99718  0.31717  1.0000
  C   C114      1.0  0.91493  0.93187  0.32026  1.0000
  C   C115      1.0  0.90296  0.97478  0.31687  1.0000
  C   C116      1.0  0.93466  0.00647  0.31632  1.0000
  O   O7        1.0  0.88486  0.90082  0.31938  1.0000
  C   C117      1.0  0.51148  0.52955  0.31686  1.0000
  C   C118      1.0  0.55568  0.51962  0.31796  1.0000
  C   C119      1.0  0.58819  0.55033  0.31794  1.0000
  C   C120      1.0  0.57702  0.59340  0.31649  1.0000
  O   O8        1.0  0.60807  0.62349  0.31696  1.0000
  H   H95       1.0  0.87792  0.89506  0.38237  1.0000
  H   H96       1.0  0.61793  0.62618  0.25476  1.0000
  H   H97       1.0  0.92414  0.53682  0.31396  1.0000
  H   H98       1.0  0.56573  0.98925  0.31976  1.0000
  N   N15       1.0  0.63023  0.54146  0.31685  1.0000
  N   N16       1.0  0.86082  0.98210  0.31099  1.0000
  C   C121      1.0  0.99877  0.71918  0.29982  1.0000
  C   C122      1.0  0.96231  0.74389  0.31605  1.0000
  C   C123      1.0  0.96397  0.78819  0.31761  1.0000
  H   H99       1.0  0.93623  0.80404  0.32899  1.0000
  H   H100      1.0  0.93355  0.72984  0.32732  1.0000
  C   C124      1.0  0.99370  0.67452  0.30526  1.0000
  H   H101      1.0  0.96415  0.66176  0.31318  1.0000
  C   C125      1.0  0.78947  0.01009  0.30016  1.0000
  C   C126      1.0  0.76460  0.04637  0.31699  1.0000
  C   C127      1.0  0.72032  0.04444  0.31863  1.0000
  H   H102      1.0  0.70435  0.07204  0.33086  1.0000
  H   H103      1.0  0.77851  0.07513  0.32892  1.0000
  C   C128      1.0  0.83408  0.01530  0.30601  1.0000
  H   H104      1.0  0.84680  0.04487  0.31398  1.0000
