data_image0
_chemical_formula_structural       C17H12C17H12CNC2O2HCNC2O2HCNC2O2HC13H9C13H9NC3O2HNC3O2HNC3O2H
_chemical_formula_sum              "C78 H48 N6 O12"
_cell_length_a       37.2947
_cell_length_b       37.2694
_cell_length_c       14.8587
_cell_angle_alpha    90
_cell_angle_beta     90
_cell_angle_gamma    120.036

_space_group_name_H-M_alt    "P 1"
_space_group_IT_number       1

loop_
  _space_group_symop_operation_xyz
  'x, y, z'

loop_
  _atom_site_type_symbol
  _atom_site_label
  _atom_site_symmetry_multiplicity
  _atom_site_fract_x
  _atom_site_fract_y
  _atom_site_fract_z
  _atom_site_occupancy
  C   C1        1.0  0.47371  0.89232  0.28820  1.0000
  C   C2        1.0  0.45159  0.84874  0.29380  1.0000
  C   C3        1.0  0.38832  0.75708  0.29211  1.0000
  C   C4        1.0  0.36470  0.71444  0.30278  1.0000
  C   C5        1.0  0.32096  0.69455  0.30333  1.0000
  C   C6        1.0  0.29637  0.65082  0.30400  1.0000
  C   C7        1.0  0.31627  0.62695  0.30267  1.0000
  C   C8        1.0  0.35997  0.64616  0.30222  1.0000
  C   C9        1.0  0.38387  0.68994  0.30149  1.0000
  C   C10       1.0  0.37890  0.62249  0.29122  1.0000
  C   C11       1.0  0.42268  0.59558  0.34595  1.0000
  C   C12       1.0  0.40763  0.55947  0.29211  1.0000
  C   C13       1.0  0.42908  0.53737  0.28627  1.0000
  C   C14       1.0  0.25365  0.63223  0.29494  1.0000
  C   C15       1.0  0.18322  0.58591  0.34562  1.0000
  C   C16       1.0  0.15822  0.54410  0.37247  1.0000
  C   C17       1.0  0.11472  0.52405  0.36693  1.0000
  H   H1        1.0  0.50009  0.90633  0.25002  1.0000
  H   H2        1.0  0.46275  0.83264  0.25923  1.0000
  H   H3        1.0  0.41552  0.70410  0.29693  1.0000
  H   H4        1.0  0.30687  0.71213  0.30031  1.0000
  H   H5        1.0  0.29874  0.59526  0.29892  1.0000
  H   H6        1.0  0.41662  0.51094  0.24818  1.0000
  H   H7        1.0  0.38033  0.54827  0.25770  1.0000
  H   H8        1.0  0.09782  0.49371  0.38675  1.0000
  H   H9        1.0  0.17152  0.52771  0.39655  1.0000
  H   H10       1.0  0.37545  0.60903  0.23161  1.0000
  H   H11       1.0  0.40146  0.76723  0.23227  1.0000
  H   H12       1.0  0.24327  0.63985  0.24069  1.0000
  C   C18       1.0  0.54023  0.11497  0.30142  1.0000
  C   C19       1.0  0.56249  0.15861  0.30469  1.0000
  C   C20       1.0  0.62546  0.25040  0.29636  1.0000
  C   C21       1.0  0.64926  0.29317  0.30516  1.0000
  C   C22       1.0  0.69297  0.31301  0.30808  1.0000
  C   C23       1.0  0.71792  0.35677  0.30781  1.0000
  C   C24       1.0  0.69791  0.38058  0.30349  1.0000
  C   C25       1.0  0.65423  0.36152  0.30167  1.0000
  C   C26       1.0  0.63025  0.31777  0.30149  1.0000
  C   C27       1.0  0.63541  0.38540  0.29186  1.0000
  C   C28       1.0  0.59014  0.41045  0.34769  1.0000
  C   C29       1.0  0.60631  0.44828  0.29965  1.0000
  C   C30       1.0  0.58513  0.47074  0.29706  1.0000
  C   C31       1.0  0.76097  0.37479  0.30386  1.0000
  C   C32       1.0  0.83101  0.42654  0.34226  1.0000
  C   C33       1.0  0.85632  0.46802  0.31392  1.0000
  C   C34       1.0  0.89976  0.48636  0.31243  1.0000
  H   H13       1.0  0.51269  0.10050  0.26725  1.0000
  H   H14       1.0  0.55023  0.17435  0.27277  1.0000
  H   H15       1.0  0.59862  0.30366  0.29651  1.0000
  H   H16       1.0  0.70685  0.29520  0.30797  1.0000
  H   H17       1.0  0.71537  0.41224  0.29949  1.0000
  H   H18       1.0  0.59824  0.49830  0.26290  1.0000
  H   H19       1.0  0.63422  0.46047  0.26737  1.0000
  H   H20       1.0  0.91711  0.51668  0.29272  1.0000
  H   H21       1.0  0.84332  0.48537  0.29453  1.0000
  H   H22       1.0  0.64045  0.40084  0.23435  1.0000
  H   H23       1.0  0.61036  0.23975  0.23857  1.0000
  H   H24       1.0  0.77211  0.36026  0.26681  1.0000
  C   C35       1.0  0.48696  0.52696  0.33313  1.0000
  N   N1        1.0  0.51869  0.49197  0.26471  1.0000
  C   C36       1.0  0.49891  0.51409  0.25423  1.0000
  C   C37       1.0  0.49365  0.52480  0.16775  1.0000
  O   O1        1.0  0.48374  0.49865  0.10870  1.0000
  O   O2        1.0  0.51283  0.56101  0.14075  1.0000
  H   H25       1.0  0.52515  0.58316  0.17580  1.0000
  C   C38       1.0  0.48416  0.96058  0.33562  1.0000
  N   N2        1.0  0.51932  0.02747  0.26783  1.0000
  C   C39       1.0  0.49715  0.98557  0.25695  1.0000
  C   C40       1.0  0.48660  0.96984  0.17026  1.0000
  O   O3        1.0  0.51252  0.98609  0.11083  1.0000
  O   O4        1.0  0.45035  0.95247  0.14340  1.0000
  H   H26       1.0  0.42821  0.94252  0.17848  1.0000
  C   C41       1.0  0.05042  0.52458  0.33077  1.0000
  N   N3        1.0  0.98440  0.50530  0.26808  1.0000
  C   C42       1.0  0.02632  0.52586  0.25816  1.0000
  C   C43       1.0  0.04272  0.54437  0.17576  1.0000
  O   O5        1.0  0.02757  0.56272  0.13763  1.0000
  O   O6        1.0  0.05936  0.53078  0.12476  1.0000
  H   H27       1.0  0.06850  0.51390  0.14093  1.0000
  C   C44       1.0  0.46094  0.91647  0.33732  1.0000
  C   C45       1.0  0.41555  0.82763  0.34775  1.0000
  C   C46       1.0  0.40307  0.85202  0.39724  1.0000
  C   C47       1.0  0.42550  0.89560  0.39269  1.0000
  C   C48       1.0  0.39325  0.78445  0.35686  1.0000
  C   C49       1.0  0.40185  0.61792  0.35529  1.0000
  C   C50       1.0  0.45960  0.60806  0.39522  1.0000
  C   C51       1.0  0.46605  0.55015  0.33520  1.0000
  C   C52       1.0  0.48070  0.58562  0.39052  1.0000
  C   C53       1.0  0.22623  0.60527  0.35460  1.0000
  C   C54       1.0  0.16299  0.60712  0.31435  1.0000
  C   C55       1.0  0.09456  0.54493  0.33357  1.0000
  C   C56       1.0  0.11949  0.58695  0.30813  1.0000
  H   H28       1.0  0.41543  0.91202  0.42975  1.0000
  H   H29       1.0  0.37746  0.83821  0.43792  1.0000
  H   H30       1.0  0.17973  0.63781  0.29723  1.0000
  H   H31       1.0  0.47150  0.63372  0.43582  1.0000
  H   H32       1.0  0.50726  0.59574  0.42738  1.0000
  H   H33       1.0  0.10614  0.60375  0.28735  1.0000
  H   H34       1.0  0.40516  0.63249  0.41360  1.0000
  H   H35       1.0  0.37899  0.77310  0.41543  1.0000
  H   H36       1.0  0.23720  0.59771  0.40805  1.0000
  C   C57       1.0  0.55433  0.09141  0.34841  1.0000
  C   C58       1.0  0.60026  0.18027  0.35288  1.0000
  C   C59       1.0  0.61461  0.15643  0.39828  1.0000
  C   C60       1.0  0.59207  0.11282  0.39620  1.0000
  C   C61       1.0  0.62269  0.22351  0.36025  1.0000
  C   C62       1.0  0.61082  0.38790  0.35496  1.0000
  C   C63       1.0  0.55208  0.39624  0.39357  1.0000
  C   C64       1.0  0.54761  0.45678  0.34454  1.0000
  C   C65       1.0  0.53121  0.41896  0.39211  1.0000
  C   C66       1.0  0.78830  0.40951  0.34745  1.0000
  C   C67       1.0  0.85037  0.40394  0.36926  1.0000
  C   C68       1.0  0.91933  0.46417  0.34123  1.0000
  C   C69       1.0  0.89383  0.42245  0.36837  1.0000
  H   H37       1.0  0.60357  0.09679  0.42988  1.0000
  H   H38       1.0  0.64171  0.17068  0.43416  1.0000
  H   H39       1.0  0.83298  0.37394  0.39096  1.0000
  H   H40       1.0  0.53916  0.36912  0.42940  1.0000
  H   H41       1.0  0.50375  0.40750  0.42611  1.0000
  H   H42       1.0  0.90670  0.40502  0.38773  1.0000
  H   H43       1.0  0.60618  0.37156  0.41122  1.0000
  H   H44       1.0  0.63872  0.23530  0.41681  1.0000
  H   H45       1.0  0.77792  0.42450  0.38495  1.0000
  N   N4        1.0  0.49619  0.51603  0.41344  1.0000
  C   C70       1.0  0.51536  0.49340  0.42398  1.0000
  C   C71       1.0  0.52731  0.48053  0.34513  1.0000
  C   C72       1.0  0.52407  0.48621  0.51076  1.0000
  O   O7        1.0  0.49782  0.47755  0.56898  1.0000
  O   O8        1.0  0.56000  0.50263  0.53941  1.0000
  H   H46       1.0  0.58255  0.51392  0.50547  1.0000
  N   N5        1.0  0.49504  0.98058  0.41615  1.0000
  C   C73       1.0  0.51773  0.02237  0.42710  1.0000
  C   C74       1.0  0.53069  0.04736  0.34848  1.0000
  C   C75       1.0  0.52475  0.03811  0.51407  1.0000
  O   O9        1.0  0.53392  0.02066  0.57160  1.0000
  O   O10       1.0  0.50804  0.05733  0.54267  1.0000
  H   H47       1.0  0.49660  0.06845  0.50876  1.0000
  N   N6        1.0  0.02940  0.50302  0.40511  1.0000
  C   C76       1.0  0.98750  0.48241  0.41518  1.0000
  C   C77       1.0  0.96342  0.48368  0.34245  1.0000
  C   C78       1.0  0.97140  0.46424  0.49759  1.0000
  O   O11       1.0  0.98799  0.44797  0.53894  1.0000
  O   O12       1.0  0.95199  0.47753  0.54026  1.0000
  H   H48       1.0  0.94262  0.46985  0.59581  1.0000
