data_image0
_chemical_formula_structural       C8HC7HCH4C4O3C2H2NHC2H2NHC2H2NHC2H2NHC2H2NHC2H2NHOC8HC7HCH4C4O4C8HC7HCH4C4O4C4N2O4NHC4N2O4NHC4N2O4NHC4N2O4NHC4N2O4NHC4N2O4NH
_chemical_formula_sum              "C96 H42 O36 N24"
_cell_length_a       30.0637
_cell_length_b       30.0636
_cell_length_c       15.1446
_cell_angle_alpha    89.9992
_cell_angle_beta     90.0008
_cell_angle_gamma    120

_space_group_name_H-M_alt    "P 1"
_space_group_IT_number       1

loop_
  _space_group_symop_operation_xyz
  'x, y, z'

loop_
  _atom_site_type_symbol
  _atom_site_label
  _atom_site_symmetry_multiplicity
  _atom_site_fract_x
  _atom_site_fract_y
  _atom_site_fract_z
  _atom_site_occupancy
  C   C1        1.0  0.02135  0.52927  0.32795  1.0000
  C   C2        1.0  0.97332  0.48213  0.32816  1.0000
  C   C3        1.0  0.97198  0.43406  0.33290  1.0000
  C   C4        1.0  0.01893  0.43430  0.33139  1.0000
  C   C5        1.0  0.06700  0.47970  0.32840  1.0000
  C   C6        1.0  0.06807  0.52766  0.32869  1.0000
  C   C7        1.0  0.92805  0.48534  0.32866  1.0000
  C   C8        1.0  0.11468  0.57486  0.32441  1.0000
  H   H1        1.0  0.01811  0.39979  0.33333  1.0000
  C   C9        1.0  0.02273  0.57784  0.32775  1.0000
  C   C10       1.0  0.97600  0.57945  0.32837  1.0000
  C   C11       1.0  0.97708  0.62742  0.32769  1.0000
  C   C12       1.0  0.02514  0.67282  0.33034  1.0000
  C   C13       1.0  0.07211  0.67307  0.33199  1.0000
  C   C14       1.0  0.07076  0.62499  0.32767  1.0000
  C   C15       1.0  0.92939  0.53224  0.32437  1.0000
  H   H2        1.0  0.02597  0.70733  0.33193  1.0000
  C   C16       1.0  0.11603  0.62177  0.32831  1.0000
  H   H3        1.0  0.89478  0.53035  0.31872  1.0000
  H   H4        1.0  0.89251  0.45376  0.33189  1.0000
  H   H5        1.0  0.15157  0.65334  0.33140  1.0000
  H   H6        1.0  0.14928  0.57674  0.31879  1.0000
  C   C17       1.0  0.11115  0.47427  0.32332  1.0000
  C   C18       1.0  0.92683  0.38590  0.34548  1.0000
  C   C19       1.0  0.93293  0.63282  0.32242  1.0000
  C   C20       1.0  0.11724  0.72132  0.34410  1.0000
  O   O1        1.0  0.10694  0.43186  0.28328  1.0000
  O   O2        1.0  0.93041  0.34885  0.39116  1.0000
  O   O3        1.0  0.11367  0.75839  0.38972  1.0000
  C   C21       1.0  0.26407  0.51057  0.25087  1.0000
  C   C22       1.0  0.21636  0.50580  0.26977  1.0000
  H   H7        1.0  0.19316  0.50212  0.21760  1.0000
  H   H8        1.0  0.27242  0.50676  0.18674  1.0000
  N   N1        1.0  0.33900  0.50999  0.29904  1.0000
  H   H9        1.0  0.35391  0.52093  0.24018  1.0000
  C   C23       1.0  0.56488  0.83849  0.25084  1.0000
  C   C24       1.0  0.56977  0.79563  0.26977  1.0000
  H   H10       1.0  0.57353  0.77616  0.21759  1.0000
  H   H11       1.0  0.56865  0.85064  0.18671  1.0000
  N   N2        1.0  0.56498  0.91378  0.29901  1.0000
  H   H12       1.0  0.55445  0.91796  0.23996  1.0000
  C   C25       1.0  0.23669  0.81185  0.25037  1.0000
  C   C26       1.0  0.27963  0.85955  0.26922  1.0000
  H   H13       1.0  0.29908  0.88277  0.21703  1.0000
  H   H14       1.0  0.22460  0.80336  0.18622  1.0000
  N   N3        1.0  0.16151  0.73652  0.29851  1.0000
  H   H15       1.0  0.15752  0.72178  0.23954  1.0000
  C   C27       1.0  0.78000  0.59680  0.25068  1.0000
  C   C28       1.0  0.82765  0.60139  0.26936  1.0000
  H   H16       1.0  0.85078  0.60503  0.21709  1.0000
  H   H17       1.0  0.77145  0.60032  0.18652  1.0000
  N   N4        1.0  0.70489  0.59695  0.29904  1.0000
  H   H18       1.0  0.69008  0.58635  0.24005  1.0000
  C   C29       1.0  0.47909  0.26863  0.25046  1.0000
  C   C30       1.0  0.47415  0.31145  0.26951  1.0000
  H   H19       1.0  0.47035  0.33092  0.21740  1.0000
  H   H20       1.0  0.47530  0.25651  0.18631  1.0000
  N   N5        1.0  0.47912  0.19337  0.29849  1.0000
  H   H21       1.0  0.48965  0.18922  0.23943  1.0000
  C   C31       1.0  0.80727  0.29536  0.25118  1.0000
  C   C32       1.0  0.76436  0.24761  0.26994  1.0000
  H   H22       1.0  0.74492  0.22444  0.21769  1.0000
  H   H23       1.0  0.81948  0.30377  0.18708  1.0000
  N   N6        1.0  0.88264  0.37039  0.29950  1.0000
  H   H24       1.0  0.88662  0.38527  0.24061  1.0000
  O   O4        1.0  0.93706  0.67524  0.28253  1.0000
  C   C33       1.0  0.54625  0.57711  0.32819  1.0000
  C   C34       1.0  0.59338  0.57620  0.32819  1.0000
  C   C35       1.0  0.64147  0.62293  0.33267  1.0000
  C   C36       1.0  0.64125  0.66966  0.33115  1.0000
  C   C37       1.0  0.59586  0.67234  0.32838  1.0000
  C   C38       1.0  0.54789  0.62546  0.32890  1.0000
  C   C39       1.0  0.59014  0.52771  0.32884  1.0000
  C   C40       1.0  0.50069  0.62488  0.32477  1.0000
  H   H25       1.0  0.67577  0.70333  0.33286  1.0000
  C   C41       1.0  0.49768  0.52993  0.32819  1.0000
  C   C42       1.0  0.49604  0.48158  0.32887  1.0000
  C   C43       1.0  0.44807  0.43469  0.32838  1.0000
  C   C44       1.0  0.40268  0.43738  0.33117  1.0000
  C   C45       1.0  0.40247  0.48411  0.33271  1.0000
  C   C46       1.0  0.45055  0.53083  0.32823  1.0000
  C   C47       1.0  0.54323  0.48215  0.32476  1.0000
  H   H26       1.0  0.36816  0.40371  0.33287  1.0000
  C   C48       1.0  0.45378  0.57932  0.32885  1.0000
  H   H27       1.0  0.54511  0.44943  0.31914  1.0000
  H   H28       1.0  0.62170  0.52372  0.33202  1.0000
  H   H29       1.0  0.42222  0.58330  0.33203  1.0000
  H   H30       1.0  0.49882  0.65760  0.31912  1.0000
  C   C49       1.0  0.60130  0.72192  0.32328  1.0000
  C   C50       1.0  0.68967  0.62596  0.34480  1.0000
  C   C51       1.0  0.44267  0.38513  0.32316  1.0000
  C   C52       1.0  0.35425  0.48105  0.34482  1.0000
  O   O5        1.0  0.64368  0.76010  0.28314  1.0000
  O   O6        1.0  0.72687  0.66666  0.39013  1.0000
  O   O7        1.0  0.40017  0.34688  0.28338  1.0000
  O   O8        1.0  0.31723  0.44052  0.39071  1.0000
  C   C53       1.0  0.49844  0.05432  0.32781  1.0000
  C   C54       1.0  0.49946  0.10241  0.32773  1.0000
  C   C55       1.0  0.45279  0.10388  0.33206  1.0000
  C   C56       1.0  0.40600  0.05698  0.33040  1.0000
  C   C57       1.0  0.40320  0.00885  0.32777  1.0000
  C   C58       1.0  0.45004  0.00766  0.32849  1.0000
  C   C59       1.0  0.54801  0.14760  0.32845  1.0000
  C   C60       1.0  0.45050  0.96099  0.32454  1.0000
  H   H31       1.0  0.37237  0.05791  0.33192  1.0000
  C   C61       1.0  0.54556  0.05281  0.32792  1.0000
  C   C62       1.0  0.59397  0.09946  0.32866  1.0000
  C   C63       1.0  0.64080  0.09827  0.32820  1.0000
  C   C64       1.0  0.63800  0.05014  0.33097  1.0000
  C   C65       1.0  0.59122  0.00325  0.33256  1.0000
  C   C66       1.0  0.54455  0.00471  0.32802  1.0000
  C   C67       1.0  0.59351  0.14613  0.32448  1.0000
  H   H32       1.0  0.67164  0.04922  0.33266  1.0000
  C   C68       1.0  0.49600  0.95952  0.32874  1.0000
  H   H33       1.0  0.62628  0.18069  0.31891  1.0000
  H   H34       1.0  0.55209  0.18318  0.33164  1.0000
  H   H35       1.0  0.49192  0.92395  0.33205  1.0000
  H   H36       1.0  0.41773  0.92642  0.31900  1.0000
  C   C69       1.0  0.35361  0.96476  0.32247  1.0000
  C   C70       1.0  0.44980  0.14910  0.34391  1.0000
  C   C71       1.0  0.69042  0.14235  0.32308  1.0000
  C   C72       1.0  0.59415  0.95801  0.34464  1.0000
  O   O9        1.0  0.31538  0.96905  0.28272  1.0000
  O   O10       1.0  0.40921  0.14565  0.38953  1.0000
  O   O11       1.0  0.72869  0.13813  0.28335  1.0000
  O   O12       1.0  0.63483  0.96144  0.38994  1.0000
  C   C73       1.0  0.29667  0.51333  0.31995  1.0000
  C   C74       1.0  0.20121  0.50794  0.35750  1.0000
  C   C75       1.0  0.23753  0.51893  0.42656  1.0000
  C   C76       1.0  0.28452  0.52006  0.40803  1.0000
  N   N7        1.0  0.22822  0.52567  0.51599  1.0000
  N   N8        1.0  0.32257  0.53223  0.47388  1.0000
  O   O13       1.0  0.18967  0.48700  0.54779  1.0000
  O   O14       1.0  0.30701  0.50061  0.53659  1.0000
  O   O15       1.0  0.22499  0.56532  0.52772  1.0000
  O   O16       1.0  0.33976  0.57682  0.50397  1.0000
  N   N9        1.0  0.15404  0.50270  0.37279  1.0000
  H   H37       1.0  0.14921  0.51784  0.42610  1.0000
  C   C77       1.0  0.56196  0.86825  0.31990  1.0000
  C   C78       1.0  0.56762  0.77833  0.35750  1.0000
  C   C79       1.0  0.55650  0.80358  0.42653  1.0000
  C   C80       1.0  0.55525  0.84936  0.40798  1.0000
  N   N10       1.0  0.54982  0.78757  0.51597  1.0000
  N   N11       1.0  0.54295  0.87517  0.47377  1.0000
  O   O17       1.0  0.58855  0.78781  0.54777  1.0000
  O   O18       1.0  0.57458  0.89136  0.53645  1.0000
  O   O19       1.0  0.51024  0.74464  0.52776  1.0000
  O   O20       1.0  0.49838  0.84766  0.50389  1.0000
  N   N12       1.0  0.57294  0.73644  0.37281  1.0000
  H   H38       1.0  0.55780  0.71647  0.42614  1.0000
  C   C81       1.0  0.20700  0.77910  0.31942  1.0000
  C   C82       1.0  0.29695  0.87472  0.35695  1.0000
  C   C83       1.0  0.27165  0.83839  0.42601  1.0000
  C   C84       1.0  0.22587  0.79132  0.40750  1.0000
  N   N13       1.0  0.28763  0.84775  0.51546  1.0000
  N   N14       1.0  0.20010  0.75322  0.47332  1.0000
  O   O21       1.0  0.28742  0.88627  0.54718  1.0000
  O   O22       1.0  0.18391  0.76864  0.53602  1.0000
  O   O23       1.0  0.33055  0.85106  0.52734  1.0000
  O   O24       1.0  0.22765  0.73620  0.50341  1.0000
  N   N15       1.0  0.33886  0.92192  0.37226  1.0000
  H   H39       1.0  0.35881  0.92673  0.42560  1.0000
  C   C85       1.0  0.74738  0.59388  0.31983  1.0000
  C   C86       1.0  0.84291  0.59932  0.35704  1.0000
  C   C87       1.0  0.80669  0.58843  0.42624  1.0000
  C   C88       1.0  0.75965  0.58722  0.40787  1.0000
  N   N16       1.0  0.81613  0.58181  0.51566  1.0000
  N   N17       1.0  0.72167  0.57506  0.47384  1.0000
  O   O25       1.0  0.85472  0.62051  0.54725  1.0000
  O   O26       1.0  0.73726  0.60675  0.53644  1.0000
  O   O27       1.0  0.81938  0.54217  0.52748  1.0000
  O   O28       1.0  0.70459  0.53051  0.50406  1.0000
  N   N18       1.0  0.89011  0.60458  0.37219  1.0000
  H   H40       1.0  0.89498  0.58949  0.42554  1.0000
  C   C89       1.0  0.48209  0.23887  0.31945  1.0000
  C   C90       1.0  0.47632  0.32870  0.35728  1.0000
  C   C91       1.0  0.48748  0.30344  0.42623  1.0000
  C   C92       1.0  0.48884  0.25772  0.40755  1.0000
  N   N19       1.0  0.49422  0.31943  0.51569  1.0000
  N   N20       1.0  0.50117  0.23189  0.47326  1.0000
  O   O29       1.0  0.45550  0.31914  0.54762  1.0000
  O   O30       1.0  0.46954  0.21564  0.53597  1.0000
  O   O31       1.0  0.53379  0.36238  0.52744  1.0000
  O   O32       1.0  0.54573  0.25941  0.50337  1.0000
  N   N21       1.0  0.47097  0.37056  0.37273  1.0000
  H   H41       1.0  0.48609  0.39050  0.42608  1.0000
  C   C93       1.0  0.83702  0.32797  0.32033  1.0000
  C   C94       1.0  0.74697  0.23239  0.35761  1.0000
  C   C95       1.0  0.77222  0.26868  0.42675  1.0000
  C   C96       1.0  0.81807  0.31571  0.40837  1.0000
  N   N22       1.0  0.75614  0.25929  0.51615  1.0000
  N   N23       1.0  0.84383  0.35374  0.47429  1.0000
  O   O33       1.0  0.75627  0.22073  0.54786  1.0000
  O   O34       1.0  0.85989  0.33821  0.53703  1.0000
  O   O35       1.0  0.71323  0.25601  0.52787  1.0000
  O   O36       1.0  0.81633  0.37084  0.50430  1.0000
  N   N24       1.0  0.70502  0.18520  0.37277  1.0000
  H   H42       1.0  0.68502  0.18036  0.42605  1.0000
