data_image0
_chemical_formula_structural       C5HC4H2CHC2H2NC3H2CHC6HCH2NCNC3H2C3H2CHNC6HCH2C3H2CHNC3H2CHC6HNC3H2CHNC3H2CHC3H2CHC7HCH2N2C3H2CHN2C3H2CHC9H3NC3H2CHC3H2CHN2C3H2CHC3H2CHC7HC7HCH4N2C3H2CHC3H2CH
_chemical_formula_sum              "C128 H72 N16"
_cell_length_a       31.6432
_cell_length_b       31.6432
_cell_length_c       14.8713
_cell_angle_alpha    90
_cell_angle_beta     90
_cell_angle_gamma    90

_space_group_name_H-M_alt    "P 1"
_space_group_IT_number       1

loop_
  _space_group_symop_operation_xyz
  'x, y, z'

loop_
  _atom_site_type_symbol
  _atom_site_label
  _atom_site_symmetry_multiplicity
  _atom_site_fract_x
  _atom_site_fract_y
  _atom_site_fract_z
  _atom_site_occupancy
  C   C1        1.0  0.02038  0.02038  0.34168  1.0000
  C   C2        1.0  0.09586  0.04068  0.33614  1.0000
  C   C3        1.0  0.08339  0.08340  0.34166  1.0000
  C   C4        1.0  0.04066  0.09587  0.34714  1.0000
  C   C5        1.0  0.00923  0.06375  0.35375  1.0000
  H   H1        1.0  0.10633  0.10635  0.34165  1.0000
  C   C6        1.0  0.06374  0.00925  0.32959  1.0000
  C   C7        1.0  0.27483  0.04113  0.31317  1.0000
  C   C8        1.0  0.23045  0.04040  0.32064  1.0000
  C   C9        1.0  0.29959  0.00512  0.33392  1.0000
  H   H2        1.0  0.21395  0.06717  0.30461  1.0000
  H   H3        1.0  0.28894  0.06856  0.29235  1.0000
  C   C10       1.0  0.34406  0.00721  0.32698  1.0000
  H   H4        1.0  0.35708  0.03460  0.30358  1.0000
  C   C11       1.0  0.46722  0.07270  0.37911  1.0000
  C   C12       1.0  0.43595  0.04143  0.37911  1.0000
  H   H5        1.0  0.40708  0.04963  0.40382  1.0000
  H   H6        1.0  0.45901  0.10157  0.40382  1.0000
  N   N1        1.0  0.13849  0.03462  0.34049  1.0000
  C   C13       1.0  0.77483  0.04113  0.31317  1.0000
  C   C14       1.0  0.73045  0.04040  0.32064  1.0000
  C   C15       1.0  0.79959  0.00512  0.33392  1.0000
  H   H7        1.0  0.71395  0.06717  0.30461  1.0000
  H   H8        1.0  0.78894  0.06856  0.29235  1.0000
  C   C16       1.0  0.84406  0.00721  0.32698  1.0000
  H   H9        1.0  0.85708  0.03460  0.30358  1.0000
  C   C17       1.0  0.52037  0.02038  0.34168  1.0000
  C   C18       1.0  0.59586  0.04068  0.33614  1.0000
  C   C19       1.0  0.58339  0.08340  0.34166  1.0000
  C   C20       1.0  0.54066  0.09587  0.34714  1.0000
  C   C21       1.0  0.50923  0.06375  0.35375  1.0000
  C   C22       1.0  0.96722  0.07270  0.37911  1.0000
  H   H10       1.0  0.60633  0.10635  0.34165  1.0000
  C   C23       1.0  0.93595  0.04143  0.37911  1.0000
  H   H11       1.0  0.90707  0.04963  0.40382  1.0000
  H   H12       1.0  0.95901  0.10157  0.40382  1.0000
  N   N2        1.0  0.63849  0.03462  0.34049  1.0000
  C   C24       1.0  0.56374  0.00925  0.32959  1.0000
  N   N3        1.0  0.03460  0.13850  0.34283  1.0000
  C   C25       1.0  0.06374  0.50925  0.32959  1.0000
  C   C26       1.0  0.07268  0.46724  0.30420  1.0000
  C   C27       1.0  0.04144  0.43595  0.30439  1.0000
  H   H13       1.0  0.04963  0.40710  0.27949  1.0000
  H   H14       1.0  0.10156  0.45903  0.27951  1.0000
  C   C28       1.0  0.00511  0.29960  0.34942  1.0000
  C   C29       1.0  0.04112  0.27483  0.37018  1.0000
  C   C30       1.0  0.04038  0.23045  0.36272  1.0000
  H   H15       1.0  0.06855  0.28894  0.39099  1.0000
  H   H16       1.0  0.06716  0.21396  0.37874  1.0000
  C   C31       1.0  0.00721  0.34407  0.35634  1.0000
  H   H17       1.0  0.03460  0.35708  0.37976  1.0000
  N   N4        1.0  0.03460  0.63850  0.34283  1.0000
  C   C32       1.0  0.02038  0.52038  0.34168  1.0000
  C   C33       1.0  0.09586  0.54068  0.33614  1.0000
  C   C34       1.0  0.08339  0.58340  0.34166  1.0000
  C   C35       1.0  0.04066  0.59587  0.34714  1.0000
  C   C36       1.0  0.00923  0.56375  0.35375  1.0000
  C   C37       1.0  0.07268  0.96724  0.30420  1.0000
  H   H18       1.0  0.10633  0.60635  0.34165  1.0000
  C   C38       1.0  0.04144  0.93595  0.30439  1.0000
  H   H19       1.0  0.04963  0.90710  0.27949  1.0000
  H   H20       1.0  0.10156  0.95903  0.27951  1.0000
  C   C39       1.0  0.00511  0.79959  0.34942  1.0000
  C   C40       1.0  0.04112  0.77483  0.37018  1.0000
  C   C41       1.0  0.04038  0.73045  0.36272  1.0000
  H   H21       1.0  0.06855  0.78894  0.39099  1.0000
  H   H22       1.0  0.06716  0.71396  0.37874  1.0000
  C   C42       1.0  0.00721  0.84407  0.35634  1.0000
  H   H23       1.0  0.03460  0.85708  0.37976  1.0000
  N   N5        1.0  0.47405  0.37016  0.34049  1.0000
  C   C43       1.0  0.96751  0.23383  0.31320  1.0000
  C   C44       1.0  0.96825  0.27821  0.32066  1.0000
  C   C45       1.0  0.00353  0.20907  0.33395  1.0000
  H   H24       1.0  0.94148  0.29471  0.30462  1.0000
  H   H25       1.0  0.94009  0.21972  0.29237  1.0000
  C   C46       1.0  0.00144  0.16460  0.32697  1.0000
  H   H26       1.0  0.97405  0.15157  0.30360  1.0000
  C   C47       1.0  0.48827  0.48828  0.34169  1.0000
  C   C48       1.0  0.49942  0.44491  0.32963  1.0000
  C   C49       1.0  0.46798  0.41280  0.33616  1.0000
  C   C50       1.0  0.42526  0.42526  0.34166  1.0000
  C   C51       1.0  0.41279  0.46798  0.34715  1.0000
  C   C52       1.0  0.44491  0.99941  0.35376  1.0000
  H   H27       1.0  0.40231  0.40232  0.34164  1.0000
  N   N6        1.0  0.37015  0.47405  0.34283  1.0000
  C   C53       1.0  0.20906  0.00355  0.34940  1.0000
  C   C54       1.0  0.23382  0.96753  0.37015  1.0000
  C   C55       1.0  0.27820  0.96826  0.36268  1.0000
  H   H28       1.0  0.21971  0.94010  0.39097  1.0000
  H   H29       1.0  0.29469  0.94149  0.37872  1.0000
  C   C56       1.0  0.16459  0.00146  0.35638  1.0000
  H   H30       1.0  0.15157  0.97406  0.37972  1.0000
  N   N7        1.0  0.47405  0.87016  0.34049  1.0000
  C   C57       1.0  0.96751  0.73383  0.31320  1.0000
  C   C58       1.0  0.96825  0.77821  0.32066  1.0000
  C   C59       1.0  0.00353  0.70907  0.33395  1.0000
  H   H31       1.0  0.94148  0.79471  0.30462  1.0000
  H   H32       1.0  0.94009  0.71972  0.29237  1.0000
  C   C60       1.0  0.00144  0.66460  0.32697  1.0000
  H   H33       1.0  0.97405  0.65157  0.30360  1.0000
  C   C61       1.0  0.27483  0.54113  0.31317  1.0000
  C   C62       1.0  0.23045  0.54040  0.32064  1.0000
  C   C63       1.0  0.29959  0.50512  0.33392  1.0000
  H   H34       1.0  0.21395  0.56717  0.30461  1.0000
  H   H35       1.0  0.28894  0.56856  0.29235  1.0000
  C   C64       1.0  0.34406  0.50721  0.32698  1.0000
  H   H36       1.0  0.35708  0.53460  0.30358  1.0000
  C   C65       1.0  0.46722  0.57270  0.37911  1.0000
  C   C66       1.0  0.48827  0.98828  0.34169  1.0000
  C   C67       1.0  0.49942  0.94491  0.32963  1.0000
  C   C68       1.0  0.46798  0.91280  0.33616  1.0000
  C   C69       1.0  0.42526  0.92526  0.34166  1.0000
  C   C70       1.0  0.41279  0.96798  0.34715  1.0000
  C   C71       1.0  0.44491  0.49941  0.35376  1.0000
  H   H37       1.0  0.40231  0.90232  0.34164  1.0000
  C   C72       1.0  0.43595  0.54143  0.37911  1.0000
  H   H38       1.0  0.40708  0.54963  0.40382  1.0000
  H   H39       1.0  0.45901  0.60157  0.40382  1.0000
  N   N8        1.0  0.13849  0.53462  0.34049  1.0000
  N   N9        1.0  0.37015  0.97405  0.34283  1.0000
  C   C73       1.0  0.20906  0.50355  0.34940  1.0000
  C   C74       1.0  0.23382  0.46753  0.37015  1.0000
  C   C75       1.0  0.27820  0.46826  0.36268  1.0000
  H   H40       1.0  0.21971  0.44010  0.39097  1.0000
  H   H41       1.0  0.29469  0.44149  0.37872  1.0000
  C   C76       1.0  0.16459  0.50146  0.35638  1.0000
  H   H42       1.0  0.15157  0.47406  0.37972  1.0000
  N   N10       1.0  0.53460  0.13850  0.34283  1.0000
  N   N11       1.0  0.97405  0.37016  0.34049  1.0000
  C   C77       1.0  0.46752  0.23383  0.31320  1.0000
  C   C78       1.0  0.46825  0.27821  0.32066  1.0000
  C   C79       1.0  0.50353  0.20907  0.33395  1.0000
  H   H43       1.0  0.44149  0.29471  0.30462  1.0000
  H   H44       1.0  0.44009  0.21972  0.29237  1.0000
  C   C80       1.0  0.50144  0.16460  0.32697  1.0000
  H   H45       1.0  0.47405  0.15157  0.30360  1.0000
  C   C81       1.0  0.56374  0.50925  0.32959  1.0000
  C   C82       1.0  0.57269  0.46724  0.30420  1.0000
  C   C83       1.0  0.98827  0.48828  0.34169  1.0000
  C   C84       1.0  0.99941  0.44491  0.32963  1.0000
  C   C85       1.0  0.96798  0.41280  0.33616  1.0000
  C   C86       1.0  0.92526  0.42526  0.34166  1.0000
  C   C87       1.0  0.91279  0.46798  0.34715  1.0000
  C   C88       1.0  0.94491  0.99941  0.35376  1.0000
  C   C89       1.0  0.54144  0.43595  0.30439  1.0000
  H   H46       1.0  0.90231  0.40232  0.34164  1.0000
  H   H47       1.0  0.54963  0.40710  0.27949  1.0000
  H   H48       1.0  0.60156  0.45903  0.27951  1.0000
  N   N12       1.0  0.87015  0.47405  0.34283  1.0000
  C   C90       1.0  0.50511  0.29960  0.34942  1.0000
  C   C91       1.0  0.54112  0.27483  0.37018  1.0000
  C   C92       1.0  0.54039  0.23045  0.36272  1.0000
  H   H49       1.0  0.56855  0.28894  0.39099  1.0000
  H   H50       1.0  0.56715  0.21396  0.37874  1.0000
  C   C93       1.0  0.50721  0.34407  0.35634  1.0000
  H   H51       1.0  0.53460  0.35708  0.37976  1.0000
  C   C94       1.0  0.70906  0.00355  0.34940  1.0000
  C   C95       1.0  0.73382  0.96753  0.37015  1.0000
  C   C96       1.0  0.77820  0.96826  0.36268  1.0000
  H   H52       1.0  0.71971  0.94010  0.39097  1.0000
  H   H53       1.0  0.79469  0.94149  0.37872  1.0000
  C   C97       1.0  0.66459  0.00146  0.35638  1.0000
  H   H54       1.0  0.65156  0.97406  0.37972  1.0000
  N   N13       1.0  0.53460  0.63850  0.34283  1.0000
  N   N14       1.0  0.97405  0.87016  0.34049  1.0000
  C   C98       1.0  0.46752  0.73383  0.31320  1.0000
  C   C99       1.0  0.46825  0.77821  0.32066  1.0000
  C   C100      1.0  0.50353  0.70907  0.33395  1.0000
  H   H55       1.0  0.44149  0.79471  0.30462  1.0000
  H   H56       1.0  0.44009  0.71972  0.29237  1.0000
  C   C101      1.0  0.50144  0.66460  0.32697  1.0000
  H   H57       1.0  0.47405  0.65157  0.30360  1.0000
  C   C102      1.0  0.77483  0.54113  0.31317  1.0000
  C   C103      1.0  0.73045  0.54040  0.32064  1.0000
  C   C104      1.0  0.79959  0.50512  0.33392  1.0000
  H   H58       1.0  0.71395  0.56717  0.30461  1.0000
  H   H59       1.0  0.78894  0.56856  0.29235  1.0000
  C   C105      1.0  0.84406  0.50721  0.32698  1.0000
  H   H60       1.0  0.85708  0.53460  0.30358  1.0000
  C   C106      1.0  0.52037  0.52038  0.34168  1.0000
  C   C107      1.0  0.59586  0.54068  0.33614  1.0000
  C   C108      1.0  0.58339  0.58340  0.34166  1.0000
  C   C109      1.0  0.54066  0.59587  0.34714  1.0000
  C   C110      1.0  0.50923  0.56375  0.35375  1.0000
  C   C111      1.0  0.57269  0.96724  0.30420  1.0000
  C   C112      1.0  0.96722  0.57270  0.37911  1.0000
  H   H61       1.0  0.60633  0.60635  0.34165  1.0000
  C   C113      1.0  0.98827  0.98828  0.34169  1.0000
  C   C114      1.0  0.99941  0.94491  0.32963  1.0000
  C   C115      1.0  0.96798  0.91280  0.33616  1.0000
  C   C116      1.0  0.92526  0.92526  0.34166  1.0000
  C   C117      1.0  0.91279  0.96798  0.34715  1.0000
  C   C118      1.0  0.94491  0.49941  0.35376  1.0000
  C   C119      1.0  0.54144  0.93595  0.30439  1.0000
  H   H62       1.0  0.90231  0.90232  0.34164  1.0000
  C   C120      1.0  0.93595  0.54143  0.37911  1.0000
  H   H63       1.0  0.54963  0.90710  0.27949  1.0000
  H   H64       1.0  0.60156  0.95903  0.27951  1.0000
  H   H65       1.0  0.90707  0.54963  0.40382  1.0000
  H   H66       1.0  0.95901  0.60157  0.40382  1.0000
  N   N15       1.0  0.63849  0.53462  0.34049  1.0000
  N   N16       1.0  0.87015  0.97405  0.34283  1.0000
  C   C121      1.0  0.50511  0.79959  0.34942  1.0000
  C   C122      1.0  0.54112  0.77483  0.37018  1.0000
  C   C123      1.0  0.54039  0.73045  0.36272  1.0000
  H   H67       1.0  0.56855  0.78894  0.39099  1.0000
  H   H68       1.0  0.56715  0.71396  0.37874  1.0000
  C   C124      1.0  0.50721  0.84407  0.35634  1.0000
  H   H69       1.0  0.53460  0.85708  0.37976  1.0000
  C   C125      1.0  0.70906  0.50355  0.34940  1.0000
  C   C126      1.0  0.73382  0.46753  0.37015  1.0000
  C   C127      1.0  0.77820  0.46826  0.36268  1.0000
  H   H70       1.0  0.71971  0.44010  0.39097  1.0000
  H   H71       1.0  0.79469  0.44149  0.37872  1.0000
  C   C128      1.0  0.66459  0.50146  0.35638  1.0000
  H   H72       1.0  0.65156  0.47406  0.37972  1.0000
