data_image0
_chemical_formula_structural       C16H16C3NC2NCH3CH2CHC3NC2NCH3CH2CHC3NC3NC5NC5NC36H26N4C3H3CHC3H3CH
_chemical_formula_sum              "C92 H62 N12"
_cell_length_a       34.4203
_cell_length_b       34.4184
_cell_length_c       14.7452
_cell_angle_alpha    90
_cell_angle_beta     90
_cell_angle_gamma    89.9342

_space_group_name_H-M_alt    "P 1"
_space_group_IT_number       1

loop_
  _space_group_symop_operation_xyz
  'x, y, z'

loop_
  _atom_site_type_symbol
  _atom_site_label
  _atom_site_symmetry_multiplicity
  _atom_site_fract_x
  _atom_site_fract_y
  _atom_site_fract_z
  _atom_site_occupancy
  C   C1        1.0  0.17713  0.00887  0.28282  1.0000
  C   C2        1.0  0.21809  0.00894  0.28181  1.0000
  C   C3        1.0  0.34406  0.03133  0.29877  1.0000
  C   C4        1.0  0.30309  0.03143  0.30001  1.0000
  C   C5        1.0  0.00956  0.17347  0.29233  1.0000
  C   C6        1.0  0.00925  0.21442  0.29374  1.0000
  C   C7        1.0  0.98617  0.29871  0.32134  1.0000
  C   C8        1.0  0.98549  0.33966  0.32243  1.0000
  C   C9        1.0  0.80650  0.00658  0.29205  1.0000
  C   C10       1.0  0.84746  0.00641  0.29072  1.0000
  C   C11       1.0  0.72200  0.98407  0.31768  1.0000
  C   C12       1.0  0.68105  0.98376  0.31889  1.0000
  C   C13       1.0  0.01348  0.84379  0.28125  1.0000
  C   C14       1.0  0.01342  0.80282  0.28002  1.0000
  C   C15       1.0  0.03438  0.67646  0.29700  1.0000
  C   C16       1.0  0.03495  0.71744  0.29830  1.0000
  H   H1        1.0  0.05162  0.66212  0.25132  1.0000
  H   H2        1.0  0.05315  0.73144  0.25427  1.0000
  H   H3        1.0  0.01339  0.78917  0.21840  1.0000
  H   H4        1.0  0.01405  0.85858  0.22103  1.0000
  H   H5        1.0  0.86156  0.00492  0.22969  1.0000
  H   H6        1.0  0.79215  0.00576  0.23133  1.0000
  H   H7        1.0  0.00739  0.15937  0.23140  1.0000
  H   H8        1.0  0.00736  0.22878  0.23314  1.0000
  H   H9        1.0  0.96586  0.35370  0.28202  1.0000
  H   H10       1.0  0.96682  0.28461  0.28024  1.0000
  H   H11       1.0  0.28886  0.04928  0.25553  1.0000
  H   H12       1.0  0.35817  0.04853  0.25269  1.0000
  H   H13       1.0  0.23180  0.00887  0.22025  1.0000
  H   H14       1.0  0.16239  0.00936  0.22253  1.0000
  H   H15       1.0  0.73594  0.96522  0.27498  1.0000
  H   H16       1.0  0.66684  0.96488  0.27696  1.0000
  C   C17       1.0  0.00288  0.46625  0.34625  1.0000
  C   C18       1.0  0.00867  0.49340  0.27502  1.0000
  C   C19       1.0  0.00786  0.53417  0.29133  1.0000
  N   N1        1.0  0.01265  0.55790  0.21840  1.0000
  C   C20       1.0  0.01877  0.54573  0.13185  1.0000
  C   C21       1.0  0.02022  0.50512  0.11611  1.0000
  N   N2        1.0  0.01489  0.48132  0.18841  1.0000
  C   C22       1.0  0.02300  0.57547  0.06026  1.0000
  H   H17       1.0  0.02052  0.60479  0.08809  1.0000
  H   H18       1.0  0.00032  0.57175  0.00932  1.0000
  H   H19       1.0  0.05140  0.57275  0.02798  1.0000
  C   C23       1.0  0.02694  0.48599  0.02774  1.0000
  H   H20       1.0  0.00133  0.46915  0.00911  1.0000
  H   H21       1.0  0.05176  0.46637  0.03307  1.0000
  C   C24       1.0  0.00011  0.42642  0.32877  1.0000
  H   H22       1.0  0.98932  0.41828  0.26921  1.0000
  C   C25       1.0  0.55457  0.00166  0.34581  1.0000
  C   C26       1.0  0.52711  0.00810  0.27551  1.0000
  C   C27       1.0  0.48641  0.00724  0.29284  1.0000
  N   N3        1.0  0.46237  0.01282  0.22076  1.0000
  C   C28       1.0  0.47411  0.01966  0.13421  1.0000
  C   C29       1.0  0.51463  0.02105  0.11742  1.0000
  N   N4        1.0  0.53877  0.01502  0.18886  1.0000
  C   C30       1.0  0.44401  0.02483  0.06376  1.0000
  H   H23       1.0  0.41483  0.02229  0.09229  1.0000
  H   H24       1.0  0.44733  0.00266  0.01143  1.0000
  H   H25       1.0  0.44671  0.05354  0.03299  1.0000
  C   C31       1.0  0.53329  0.02837  0.02876  1.0000
  H   H26       1.0  0.55040  0.00303  0.00913  1.0000
  H   H27       1.0  0.55261  0.05338  0.03430  1.0000
  C   C32       1.0  0.59435  0.99900  0.32731  1.0000
  H   H28       1.0  0.60229  0.98915  0.26672  1.0000
  C   C33       1.0  0.08490  0.90738  0.36464  1.0000
  C   C34       1.0  0.11331  0.93571  0.36499  1.0000
  C   C35       1.0  0.09516  0.97205  0.36627  1.0000
  N   N5        1.0  0.05648  0.96428  0.36664  1.0000
  C   C36       1.0  0.04861  0.92561  0.36560  1.0000
  C   C37       1.0  0.01218  0.90592  0.36557  1.0000
  C   C38       1.0  0.97540  0.92481  0.36694  1.0000
  N   N6        1.0  0.96785  0.96341  0.36830  1.0000
  C   C39       1.0  0.92927  0.97108  0.36939  1.0000
  C   C40       1.0  0.91085  0.93494  0.36879  1.0000
  C   C41       1.0  0.93920  0.90650  0.36715  1.0000
  C   C42       1.0  0.91050  0.00792  0.37112  1.0000
  C   C43       1.0  0.93029  0.04429  0.37196  1.0000
  N   N7        1.0  0.96897  0.05206  0.37125  1.0000
  C   C44       1.0  0.97684  0.09072  0.37241  1.0000
  C   C45       1.0  0.94055  0.10896  0.37402  1.0000
  C   C46       1.0  0.91214  0.08063  0.37355  1.0000
  C   C47       1.0  0.01326  0.11042  0.37232  1.0000
  C   C48       1.0  0.05004  0.09154  0.37097  1.0000
  N   N8        1.0  0.05759  0.05293  0.36981  1.0000
  C   C49       1.0  0.09617  0.04527  0.36838  1.0000
  C   C50       1.0  0.11458  0.08141  0.36868  1.0000
  C   C51       1.0  0.08624  0.10985  0.37016  1.0000
  C   C52       1.0  0.11495  0.00843  0.36684  1.0000
  C   C53       1.0  0.15655  0.00807  0.36565  1.0000
  C   C54       1.0  0.24003  0.00817  0.36326  1.0000
  C   C55       1.0  0.21895  0.00729  0.44593  1.0000
  C   C56       1.0  0.17799  0.00730  0.44728  1.0000
  C   C57       1.0  0.28186  0.00824  0.36213  1.0000
  C   C58       1.0  0.30371  0.98489  0.42286  1.0000
  C   C59       1.0  0.34467  0.98477  0.42170  1.0000
  C   C60       1.0  0.36559  0.00823  0.35987  1.0000
  C   C61       1.0  0.01298  0.15202  0.37359  1.0000
  C   C62       1.0  0.01244  0.23549  0.37611  1.0000
  C   C63       1.0  0.01595  0.21357  0.45717  1.0000
  C   C64       1.0  0.01617  0.17261  0.45611  1.0000
  C   C65       1.0  0.01193  0.27730  0.37734  1.0000
  C   C66       1.0  0.01080  0.36101  0.37932  1.0000
  C   C67       1.0  0.03616  0.33989  0.43615  1.0000
  C   C68       1.0  0.03683  0.29891  0.43498  1.0000
  C   C69       1.0  0.86890  0.00834  0.37225  1.0000
  C   C70       1.0  0.84832  0.01056  0.45495  1.0000
  C   C71       1.0  0.80736  0.01086  0.45594  1.0000
  C   C72       1.0  0.78544  0.00881  0.37461  1.0000
  C   C73       1.0  0.74363  0.00873  0.37579  1.0000
  C   C74       1.0  0.65993  0.00834  0.37803  1.0000
  C   C75       1.0  0.68126  0.03263  0.43685  1.0000
  C   C76       1.0  0.72224  0.03294  0.43554  1.0000
  C   C77       1.0  0.01245  0.86431  0.36417  1.0000
  C   C78       1.0  0.01136  0.84278  0.44566  1.0000
  C   C79       1.0  0.01221  0.78081  0.36133  1.0000
  C   C80       1.0  0.01122  0.80182  0.44409  1.0000
  C   C81       1.0  0.01179  0.73898  0.36000  1.0000
  C   C82       1.0  0.98792  0.71744  0.42009  1.0000
  C   C83       1.0  0.98732  0.67649  0.41885  1.0000
  C   C84       1.0  0.01078  0.65523  0.35754  1.0000
  H   H29       1.0  0.96909  0.66241  0.46253  1.0000
  H   H30       1.0  0.96985  0.73147  0.46441  1.0000
  H   H31       1.0  0.01103  0.78742  0.50478  1.0000
  H   H32       1.0  0.01070  0.85682  0.50684  1.0000
  H   H33       1.0  0.09039  0.87819  0.36380  1.0000
  H   H34       1.0  0.14249  0.93016  0.36439  1.0000
  H   H35       1.0  0.03678  0.98403  0.36731  1.0000
  H   H36       1.0  0.98866  0.03231  0.37003  1.0000
  H   H37       1.0  0.93382  0.87730  0.36640  1.0000
  H   H38       1.0  0.88164  0.92964  0.36948  1.0000
  H   H39       1.0  0.86305  0.01180  0.51518  1.0000
  H   H40       1.0  0.79364  0.01173  0.51746  1.0000
  H   H41       1.0  0.88297  0.08620  0.37435  1.0000
  H   H42       1.0  0.93505  0.13814  0.37532  1.0000
  H   H43       1.0  0.14380  0.08671  0.36775  1.0000
  H   H44       1.0  0.09162  0.13905  0.37038  1.0000
  H   H45       1.0  0.01853  0.15787  0.51616  1.0000
  H   H46       1.0  0.01761  0.22729  0.51860  1.0000
  H   H47       1.0  0.05637  0.28496  0.47592  1.0000
  H   H48       1.0  0.05477  0.35431  0.47855  1.0000
  H   H49       1.0  0.16389  0.00695  0.50840  1.0000
  H   H50       1.0  0.23329  0.00748  0.50670  1.0000
  H   H51       1.0  0.35901  0.96690  0.46578  1.0000
  H   H52       1.0  0.28992  0.96684  0.46756  1.0000
  H   H53       1.0  0.73635  0.05169  0.47809  1.0000
  H   H54       1.0  0.66700  0.05067  0.48092  1.0000
  N   N9        1.0  0.40438  0.00902  0.35296  1.0000
  N   N10       1.0  0.01125  0.61640  0.35088  1.0000
  N   N11       1.0  0.62108  0.00910  0.38382  1.0000
  N   N12       1.0  0.01137  0.39989  0.38466  1.0000
  C   C85       1.0  0.00121  0.54906  0.37992  1.0000
  C   C86       1.0  0.99570  0.52159  0.45041  1.0000
  C   C87       1.0  0.99662  0.48126  0.43428  1.0000
  H   H55       1.0  0.99125  0.46288  0.48742  1.0000
  H   H56       1.0  0.98995  0.53079  0.51508  1.0000
  H   H57       1.0  0.03298  0.50662  0.64025  1.0000
  C   C88       1.0  0.99773  0.58874  0.40064  1.0000
  H   H58       1.0  0.98417  0.59597  0.45774  1.0000
  C   C89       1.0  0.47191  0.99989  0.38149  1.0000
  C   C90       1.0  0.49971  0.99386  0.45110  1.0000
  C   C91       1.0  0.53996  0.99479  0.43396  1.0000
  H   H59       1.0  0.55856  0.98905  0.48647  1.0000
  H   H60       1.0  0.49084  0.98775  0.51584  1.0000
  H   H61       1.0  0.51238  0.03439  0.64179  1.0000
  C   C92       1.0  0.43232  0.99631  0.40310  1.0000
  H   H62       1.0  0.42536  0.98323  0.46098  1.0000
