data_image0
_chemical_formula_structural       C3HC2H2CNHC4H2CNHC4H2NCHCHCHC3H2C3HC3H3C3HC3H3C3HC5NH3CNHC5NH3C5NH3C5NH3C3NH2C3NC3NH4C3NC3NH4NCHNC5H3C3HNC5H3NC5H3NC5H3
_chemical_formula_sum              "C96 H60 N18"
_cell_length_a       31.5357
_cell_length_b       31.5357
_cell_length_c       14.7493
_cell_angle_alpha    90
_cell_angle_beta     90
_cell_angle_gamma    120

_space_group_name_H-M_alt    "P 1"
_space_group_IT_number       1

loop_
  _space_group_symop_operation_xyz
  'x, y, z'

loop_
  _atom_site_type_symbol
  _atom_site_label
  _atom_site_symmetry_multiplicity
  _atom_site_fract_x
  _atom_site_fract_y
  _atom_site_fract_z
  _atom_site_occupancy
  C   C1        1.0  0.03984  0.52206  0.35056  1.0000
  C   C2        1.0  0.12010  0.60096  0.34764  1.0000
  C   C3        1.0  0.06823  0.57425  0.34650  1.0000
  H   H1        1.0  0.05145  0.59459  0.34218  1.0000
  C   C4        1.0  0.06825  0.49828  0.35465  1.0000
  C   C5        1.0  0.12012  0.52345  0.35353  1.0000
  H   H2        1.0  0.05147  0.46115  0.35894  1.0000
  H   H3        1.0  0.21626  0.63615  0.34802  1.0000
  C   C6        1.0  0.16494  0.48985  0.27316  1.0000
  N   N1        1.0  0.20332  0.48166  0.27580  1.0000
  H   H4        1.0  0.15466  0.49687  0.21176  1.0000
  C   C7        1.0  0.14526  0.65327  0.34660  1.0000
  C   C8        1.0  0.16437  0.67888  0.26447  1.0000
  C   C9        1.0  0.20294  0.72790  0.26484  1.0000
  C   C10       1.0  0.22396  0.75182  0.34795  1.0000
  H   H5        1.0  0.15340  0.66071  0.20388  1.0000
  H   H6        1.0  0.21798  0.74421  0.20418  1.0000
  C   C11       1.0  0.14690  0.57560  0.35061  1.0000
  N   N2        1.0  0.19713  0.60072  0.35065  1.0000
  H   H7        1.0  0.21626  0.58444  0.35332  1.0000
  C   C12       1.0  0.22401  0.47646  0.35315  1.0000
  C   C13       1.0  0.20298  0.47930  0.43628  1.0000
  C   C14       1.0  0.16442  0.48977  0.43671  1.0000
  C   C15       1.0  0.14527  0.49629  0.35463  1.0000
  H   H8        1.0  0.21811  0.47818  0.49693  1.0000
  H   H9        1.0  0.15357  0.49708  0.49730  1.0000
  N   N3        1.0  0.20329  0.72596  0.42533  1.0000
  C   C16       1.0  0.16487  0.67940  0.42808  1.0000
  H   H10       1.0  0.15464  0.66205  0.48942  1.0000
  C   C17       1.0  0.26942  0.47637  0.34821  1.0000
  H   H11       1.0  0.27718  0.47834  0.20447  1.0000
  C   C18       1.0  0.26940  0.79730  0.35281  1.0000
  H   H12       1.0  0.27712  0.80317  0.49659  1.0000
  C   C19       1.0  0.98570  0.49498  0.35057  1.0000
  C   C20       1.0  0.95732  0.44279  0.34662  1.0000
  C   C21       1.0  0.90545  0.41607  0.34778  1.0000
  H   H13       1.0  0.97410  0.42244  0.34239  1.0000
  H   H14       1.0  0.80929  0.38087  0.34838  1.0000
  C   C22       1.0  0.52628  0.49495  0.35052  1.0000
  C   C23       1.0  0.57847  0.51875  0.34646  1.0000
  C   C24       1.0  0.60518  0.49359  0.34759  1.0000
  H   H15       1.0  0.59881  0.55588  0.34218  1.0000
  C   C25       1.0  0.49920  0.52201  0.35054  1.0000
  C   C26       1.0  0.42030  0.52337  0.34775  1.0000
  C   C27       1.0  0.44701  0.49821  0.34658  1.0000
  H   H16       1.0  0.42666  0.46107  0.34234  1.0000
  H   H17       1.0  0.38510  0.58432  0.34839  1.0000
  H   H18       1.0  0.64037  0.43263  0.34797  1.0000
  C   C28       1.0  0.52626  0.03557  0.35056  1.0000
  C   C29       1.0  0.50247  0.06397  0.34672  1.0000
  C   C30       1.0  0.52763  0.11584  0.34782  1.0000
  H   H19       1.0  0.46533  0.04720  0.34262  1.0000
  C   C31       1.0  0.49918  0.98143  0.35055  1.0000
  C   C32       1.0  0.49781  0.90116  0.34780  1.0000
  C   C33       1.0  0.52298  0.95303  0.34674  1.0000
  H   H20       1.0  0.56012  0.96981  0.34271  1.0000
  H   H21       1.0  0.43684  0.80501  0.34810  1.0000
  H   H22       1.0  0.58860  0.21199  0.34837  1.0000
  C   C34       1.0  0.36799  0.49619  0.34694  1.0000
  C   C35       1.0  0.34240  0.48979  0.26477  1.0000
  C   C36       1.0  0.29338  0.47935  0.26511  1.0000
  H   H23       1.0  0.36060  0.49723  0.20419  1.0000
  C   C37       1.0  0.52498  0.87603  0.34697  1.0000
  C   C38       1.0  0.53144  0.85684  0.26485  1.0000
  C   C39       1.0  0.54184  0.81824  0.26520  1.0000
  C   C40       1.0  0.54478  0.79724  0.34830  1.0000
  C   C41       1.0  0.53143  0.67934  0.27306  1.0000
  N   N4        1.0  0.53957  0.72590  0.27577  1.0000
  H   H24       1.0  0.52428  0.66199  0.21172  1.0000
  H   H25       1.0  0.52410  0.86767  0.20425  1.0000
  H   H26       1.0  0.54299  0.80315  0.20452  1.0000
  C   C42       1.0  0.34184  0.85639  0.27271  1.0000
  N   N5        1.0  0.29526  0.81800  0.27545  1.0000
  H   H27       1.0  0.35912  0.86666  0.21131  1.0000
  C   C43       1.0  0.65748  0.52076  0.34659  1.0000
  C   C44       1.0  0.68316  0.52722  0.26453  1.0000
  C   C45       1.0  0.73217  0.53765  0.26491  1.0000
  C   C46       1.0  0.75606  0.54054  0.34802  1.0000
  C   C47       1.0  0.86057  0.52711  0.27295  1.0000
  N   N6        1.0  0.82218  0.53529  0.27562  1.0000
  H   H28       1.0  0.87084  0.52007  0.21158  1.0000
  H   H29       1.0  0.66506  0.52012  0.20388  1.0000
  H   H30       1.0  0.74852  0.53902  0.20425  1.0000
  C   C48       1.0  0.50046  0.14099  0.34695  1.0000
  C   C49       1.0  0.49403  0.16012  0.26478  1.0000
  C   C50       1.0  0.48352  0.19866  0.26512  1.0000
  C   C51       1.0  0.48059  0.21967  0.34822  1.0000
  C   C52       1.0  0.49404  0.33760  0.27310  1.0000
  N   N7        1.0  0.48584  0.29102  0.27577  1.0000
  H   H31       1.0  0.50103  0.35487  0.21168  1.0000
  H   H32       1.0  0.50134  0.14926  0.20418  1.0000
  H   H33       1.0  0.48243  0.21379  0.20447  1.0000
  C   C53       1.0  0.88031  0.36376  0.34697  1.0000
  C   C54       1.0  0.86112  0.33819  0.26479  1.0000
  C   C55       1.0  0.82249  0.28918  0.26512  1.0000
  C   C56       1.0  0.80153  0.26521  0.34821  1.0000
  C   C57       1.0  0.68361  0.16068  0.27295  1.0000
  N   N8        1.0  0.73017  0.19910  0.27568  1.0000
  H   H34       1.0  0.66625  0.15049  0.21162  1.0000
  H   H35       1.0  0.87192  0.35639  0.20422  1.0000
  H   H36       1.0  0.80737  0.27299  0.20444  1.0000
  C   C58       1.0  0.87865  0.44143  0.35072  1.0000
  C   C59       1.0  0.90542  0.49358  0.35350  1.0000
  C   C60       1.0  0.95730  0.51876  0.35454  1.0000
  N   N9        1.0  0.82842  0.41629  0.35086  1.0000
  H   H37       1.0  0.80928  0.43257  0.35349  1.0000
  H   H38       1.0  0.97407  0.55590  0.35873  1.0000
  C   C61       1.0  0.57982  0.44144  0.35054  1.0000
  C   C62       1.0  0.52767  0.41607  0.35347  1.0000
  C   C63       1.0  0.50250  0.44276  0.35458  1.0000
  N   N10       1.0  0.60495  0.41633  0.35057  1.0000
  C   C64       1.0  0.52298  0.57419  0.35454  1.0000
  C   C65       1.0  0.49781  0.60089  0.35350  1.0000
  C   C66       1.0  0.44565  0.57551  0.35071  1.0000
  N   N11       1.0  0.42053  0.60062  0.35086  1.0000
  H   H39       1.0  0.43682  0.63604  0.35350  1.0000
  H   H40       1.0  0.58866  0.38091  0.35322  1.0000
  H   H41       1.0  0.46536  0.42240  0.35887  1.0000
  H   H42       1.0  0.56012  0.59455  0.35874  1.0000
  C   C67       1.0  0.57978  0.14263  0.35068  1.0000
  C   C68       1.0  0.60515  0.11585  0.35341  1.0000
  C   C69       1.0  0.57845  0.06397  0.35444  1.0000
  N   N12       1.0  0.60489  0.19286  0.35079  1.0000
  C   C70       1.0  0.44699  0.95303  0.35435  1.0000
  C   C71       1.0  0.42029  0.90116  0.35330  1.0000
  C   C72       1.0  0.44566  0.87437  0.35056  1.0000
  N   N13       1.0  0.42055  0.82414  0.35056  1.0000
  H   H43       1.0  0.38512  0.80500  0.35301  1.0000
  H   H44       1.0  0.64032  0.21199  0.35336  1.0000
  H   H45       1.0  0.59881  0.04720  0.35850  1.0000
  H   H46       1.0  0.42662  0.96980  0.35840  1.0000
  N   N14       1.0  0.29526  0.48146  0.42556  1.0000
  C   C73       1.0  0.34178  0.48949  0.42836  1.0000
  H   H47       1.0  0.35910  0.49673  0.48973  1.0000
  N   N15       1.0  0.53966  0.81796  0.42565  1.0000
  C   C74       1.0  0.53153  0.85638  0.42837  1.0000
  C   C75       1.0  0.54482  0.75180  0.35311  1.0000
  C   C76       1.0  0.54198  0.72791  0.43621  1.0000
  C   C77       1.0  0.53151  0.67888  0.43657  1.0000
  C   C78       1.0  0.52497  0.65319  0.35450  1.0000
  H   H48       1.0  0.54309  0.74413  0.49688  1.0000
  H   H49       1.0  0.52420  0.66071  0.49717  1.0000
  H   H50       1.0  0.52443  0.86663  0.48973  1.0000
  C   C79       1.0  0.29333  0.81830  0.43592  1.0000
  C   C80       1.0  0.34238  0.85684  0.43630  1.0000
  C   C81       1.0  0.36797  0.87599  0.35415  1.0000
  H   H51       1.0  0.36053  0.86771  0.49691  1.0000
  N   N16       1.0  0.73017  0.53534  0.42535  1.0000
  C   C82       1.0  0.68364  0.52729  0.42805  1.0000
  C   C83       1.0  0.80151  0.54052  0.35296  1.0000
  C   C84       1.0  0.82254  0.53769  0.43611  1.0000
  C   C85       1.0  0.86110  0.52721  0.43654  1.0000
  C   C86       1.0  0.88025  0.52073  0.35445  1.0000
  H   H52       1.0  0.80752  0.53902  0.49675  1.0000
  H   H53       1.0  0.87215  0.52016  0.49718  1.0000
  H   H54       1.0  0.66629  0.52000  0.48941  1.0000
  N   N17       1.0  0.48576  0.19897  0.42558  1.0000
  C   C87       1.0  0.49380  0.16049  0.42840  1.0000
  C   C88       1.0  0.48068  0.26517  0.35313  1.0000
  C   C89       1.0  0.48355  0.28906  0.43624  1.0000
  C   C90       1.0  0.49403  0.33810  0.43660  1.0000
  C   C91       1.0  0.50051  0.36377  0.35452  1.0000
  H   H55       1.0  0.48246  0.27284  0.49691  1.0000
  H   H56       1.0  0.50136  0.35628  0.49718  1.0000
  H   H57       1.0  0.50109  0.15044  0.48977  1.0000
  N   N18       1.0  0.82229  0.29101  0.42559  1.0000
  C   C92       1.0  0.86073  0.33756  0.42836  1.0000
  C   C93       1.0  0.75608  0.21975  0.35300  1.0000
  C   C94       1.0  0.73219  0.19868  0.43611  1.0000
  C   C95       1.0  0.68315  0.16012  0.43647  1.0000
  C   C96       1.0  0.65745  0.14098  0.35439  1.0000
  H   H58       1.0  0.74841  0.21378  0.49677  1.0000
  H   H59       1.0  0.66498  0.14926  0.49707  1.0000
  H   H60       1.0  0.87100  0.35487  0.48973  1.0000
