data_image0
_chemical_formula_structural       C8H2N2O4C8H2N2O4C8H2N2O4C2H2C2H2C2H2C2H2C2H2C2H2C2H2C2H2C2H2C2H2C2H2C2H2C24H15C24H15C24H15C24H15C24H15C24H15C2H2C2H2C2H2C2H2C2H2C2H2C8H2N2O4C8H2N2O4C8H2N2O4C8H2N2O4C8H2N2O4C8H2N2O4
_chemical_formula_sum              "C252 H144 N18 O36"
_cell_length_a       77.6473
_cell_length_b       77.6473
_cell_length_c       14.9635
_cell_angle_alpha    90
_cell_angle_beta     90
_cell_angle_gamma    120

_space_group_name_H-M_alt    "P 1"
_space_group_IT_number       1

loop_
  _space_group_symop_operation_xyz
  'x, y, z'

loop_
  _atom_site_type_symbol
  _atom_site_label
  _atom_site_symmetry_multiplicity
  _atom_site_fract_x
  _atom_site_fract_y
  _atom_site_fract_z
  _atom_site_occupancy
  C   C1        1.0  0.94848  0.47427  0.32967  1.0000
  C   C2        1.0  0.95926  0.46641  0.28565  1.0000
  C   C3        1.0  0.98034  0.47743  0.28568  1.0000
  C   C4        1.0  0.99097  0.49611  0.32857  1.0000
  C   C5        1.0  0.01219  0.50706  0.32776  1.0000
  C   C6        1.0  0.02327  0.51307  0.24691  1.0000
  C   C7        1.0  0.04434  0.52376  0.25035  1.0000
  C   C8        1.0  0.05487  0.52868  0.33228  1.0000
  H   H1        1.0  0.05205  0.52771  0.19136  1.0000
  H   H2        1.0  0.98799  0.47161  0.25410  1.0000
  N   N1        1.0  0.01313  0.50887  0.16401  1.0000
  N   N2        1.0  0.94879  0.44798  0.24030  1.0000
  O   O1        1.0  0.01738  0.49842  0.11471  1.0000
  O   O2        1.0  0.95292  0.43545  0.27137  1.0000
  O   O3        1.0  0.01713  0.52455  0.12287  1.0000
  O   O4        1.0  0.95260  0.44996  0.15808  1.0000
  C   C9        1.0  0.52879  0.47483  0.32967  1.0000
  C   C10       1.0  0.53664  0.49346  0.28565  1.0000
  C   C11       1.0  0.52562  0.50352  0.28567  1.0000
  C   C12       1.0  0.50694  0.49547  0.32857  1.0000
  C   C13       1.0  0.49600  0.50575  0.32776  1.0000
  C   C14       1.0  0.48998  0.51080  0.24691  1.0000
  C   C15       1.0  0.47929  0.52119  0.25035  1.0000
  C   C16       1.0  0.47437  0.52680  0.33227  1.0000
  H   H3        1.0  0.47534  0.52494  0.19136  1.0000
  H   H4        1.0  0.53144  0.51698  0.25410  1.0000
  N   N3        1.0  0.49418  0.50487  0.16401  1.0000
  N   N4        1.0  0.55507  0.50141  0.24030  1.0000
  O   O5        1.0  0.50463  0.51957  0.11471  1.0000
  O   O6        1.0  0.56761  0.51808  0.27137  1.0000
  O   O7        1.0  0.47850  0.49319  0.12288  1.0000
  O   O8        1.0  0.55309  0.50325  0.15808  1.0000
  C   C17       1.0  0.52821  0.05456  0.32967  1.0000
  C   C18       1.0  0.50957  0.04378  0.28565  1.0000
  C   C19       1.0  0.49952  0.02270  0.28568  1.0000
  C   C20       1.0  0.50757  0.01208  0.32858  1.0000
  C   C21       1.0  0.49728  0.99085  0.32777  1.0000
  C   C22       1.0  0.49223  0.97978  0.24693  1.0000
  C   C23       1.0  0.48184  0.95870  0.25038  1.0000
  C   C24       1.0  0.47624  0.94817  0.33231  1.0000
  H   H5        1.0  0.47810  0.95100  0.19139  1.0000
  H   H6        1.0  0.48605  0.01506  0.25410  1.0000
  N   N5        1.0  0.49817  0.98991  0.16403  1.0000
  N   N6        1.0  0.50162  0.05426  0.24030  1.0000
  O   O9        1.0  0.48347  0.98566  0.11472  1.0000
  O   O10       1.0  0.48495  0.05013  0.27136  1.0000
  O   O11       1.0  0.50984  0.98591  0.12290  1.0000
  O   O12       1.0  0.49978  0.05045  0.15808  1.0000
  C   C25       1.0  0.24354  0.52443  0.30003  1.0000
  C   C26       1.0  0.22657  0.52654  0.29906  1.0000
  H   H7        1.0  0.24424  0.51469  0.25613  1.0000
  H   H8        1.0  0.21549  0.51838  0.25414  1.0000
  C   C27       1.0  0.30632  0.54154  0.25670  1.0000
  C   C28       1.0  0.28712  0.53882  0.26587  1.0000
  H   H9        1.0  0.31231  0.54393  0.19392  1.0000
  H   H10       1.0  0.28021  0.53996  0.20971  1.0000
  C   C29       1.0  0.47862  0.71972  0.30001  1.0000
  C   C30       1.0  0.47651  0.70064  0.29903  1.0000
  H   H11       1.0  0.48836  0.73016  0.25612  1.0000
  H   H12       1.0  0.48467  0.69772  0.25412  1.0000
  C   C31       1.0  0.46152  0.76540  0.25670  1.0000
  C   C32       1.0  0.46423  0.74890  0.26586  1.0000
  H   H13       1.0  0.45913  0.76899  0.19392  1.0000
  H   H14       1.0  0.46309  0.74086  0.20970  1.0000
  C   C33       1.0  0.28333  0.75950  0.29999  1.0000
  C   C34       1.0  0.30240  0.77647  0.29901  1.0000
  H   H15       1.0  0.27288  0.75880  0.25610  1.0000
  H   H16       1.0  0.30533  0.78756  0.25408  1.0000
  C   C35       1.0  0.23765  0.69673  0.25670  1.0000
  C   C36       1.0  0.25415  0.71593  0.26585  1.0000
  H   H17       1.0  0.23406  0.69074  0.19392  1.0000
  H   H18       1.0  0.26219  0.72283  0.20970  1.0000
  C   C37       1.0  0.75967  0.47797  0.30187  1.0000
  C   C38       1.0  0.77659  0.47577  0.30207  1.0000
  H   H19       1.0  0.75909  0.48769  0.25743  1.0000
  H   H20       1.0  0.78775  0.48385  0.25740  1.0000
  C   C39       1.0  0.69701  0.46089  0.25491  1.0000
  C   C40       1.0  0.71617  0.46354  0.26534  1.0000
  H   H21       1.0  0.69113  0.45836  0.19190  1.0000
  H   H22       1.0  0.72316  0.46228  0.20980  1.0000
  C   C41       1.0  0.52508  0.28231  0.30183  1.0000
  C   C42       1.0  0.52727  0.30142  0.30203  1.0000
  H   H23       1.0  0.51536  0.27201  0.25740  1.0000
  H   H24       1.0  0.51919  0.30450  0.25735  1.0000
  C   C43       1.0  0.54217  0.23674  0.25491  1.0000
  C   C44       1.0  0.53951  0.25323  0.26532  1.0000
  H   H25       1.0  0.54470  0.23337  0.19191  1.0000
  H   H26       1.0  0.54077  0.26149  0.20978  1.0000
  C   C45       1.0  0.72074  0.24338  0.30186  1.0000
  C   C46       1.0  0.70163  0.22646  0.30208  1.0000
  H   H27       1.0  0.73104  0.24395  0.25745  1.0000
  H   H28       1.0  0.69855  0.21529  0.25745  1.0000
  C   C47       1.0  0.76632  0.30603  0.25481  1.0000
  C   C48       1.0  0.74982  0.28688  0.26525  1.0000
  H   H29       1.0  0.76968  0.31191  0.19178  1.0000
  H   H30       1.0  0.74156  0.27987  0.20972  1.0000
  C   C49       1.0  0.17286  0.60153  0.32583  1.0000
  C   C50       1.0  0.15183  0.59139  0.33012  1.0000
  C   C51       1.0  0.14032  0.57034  0.33539  1.0000
  C   C52       1.0  0.15050  0.55943  0.33729  1.0000
  C   C53       1.0  0.17144  0.56906  0.33274  1.0000
  C   C54       1.0  0.18231  0.59000  0.32817  1.0000
  C   C55       1.0  0.11901  0.56027  0.33632  1.0000
  C   C56       1.0  0.10836  0.56598  0.27811  1.0000
  C   C57       1.0  0.08742  0.55573  0.27709  1.0000
  C   C58       1.0  0.07619  0.53934  0.33439  1.0000
  C   C59       1.0  0.08683  0.53373  0.39315  1.0000
  C   C60       1.0  0.10777  0.54394  0.39396  1.0000
  C   C61       1.0  0.18468  0.62274  0.32029  1.0000
  C   C62       1.0  0.18129  0.63535  0.37684  1.0000
  C   C63       1.0  0.19463  0.65603  0.37867  1.0000
  C   C64       1.0  0.21187  0.66494  0.32406  1.0000
  C   C65       1.0  0.21471  0.65232  0.26502  1.0000
  C   C66       1.0  0.20134  0.63175  0.26259  1.0000
  C   C67       1.0  0.18195  0.55844  0.33269  1.0000
  C   C68       1.0  0.19488  0.56091  0.26109  1.0000
  C   C69       1.0  0.20822  0.55369  0.26718  1.0000
  C   C70       1.0  0.20915  0.54404  0.34557  1.0000
  C   C71       1.0  0.19580  0.54101  0.41612  1.0000
  C   C72       1.0  0.18221  0.54797  0.40948  1.0000
  H   H31       1.0  0.19182  0.66448  0.42219  1.0000
  H   H32       1.0  0.16966  0.62947  0.42092  1.0000
  H   H33       1.0  0.22715  0.65776  0.22590  1.0000
  H   H34       1.0  0.20436  0.62328  0.22000  1.0000
  H   H35       1.0  0.19539  0.56887  0.20561  1.0000
  H   H36       1.0  0.21817  0.55675  0.21633  1.0000
  H   H37       1.0  0.17364  0.54670  0.46379  1.0000
  H   H38       1.0  0.19655  0.53456  0.47457  1.0000
  H   H39       1.0  0.11477  0.53936  0.43792  1.0000
  H   H40       1.0  0.07941  0.52180  0.43492  1.0000
  H   H41       1.0  0.08044  0.56052  0.23413  1.0000
  H   H42       1.0  0.11578  0.57746  0.23406  1.0000
  H   H43       1.0  0.14477  0.59955  0.32885  1.0000
  H   H44       1.0  0.19754  0.59700  0.32826  1.0000
  H   H45       1.0  0.14261  0.54420  0.33857  1.0000
  C   C73       1.0  0.40152  0.57194  0.32580  1.0000
  C   C74       1.0  0.41165  0.56104  0.33011  1.0000
  C   C75       1.0  0.43271  0.57059  0.33537  1.0000
  C   C76       1.0  0.44362  0.59168  0.33727  1.0000
  C   C77       1.0  0.43399  0.60299  0.33270  1.0000
  C   C78       1.0  0.41305  0.59292  0.32812  1.0000
  C   C79       1.0  0.44278  0.55934  0.33632  1.0000
  C   C80       1.0  0.43706  0.54298  0.27812  1.0000
  C   C81       1.0  0.44732  0.53230  0.27708  1.0000
  C   C82       1.0  0.46371  0.53746  0.33438  1.0000
  C   C83       1.0  0.46932  0.55371  0.39314  1.0000
  C   C84       1.0  0.45911  0.56444  0.39396  1.0000
  C   C85       1.0  0.38031  0.56256  0.32026  1.0000
  C   C86       1.0  0.36770  0.54656  0.37682  1.0000
  C   C87       1.0  0.34702  0.53922  0.37865  1.0000
  C   C88       1.0  0.33811  0.54754  0.32405  1.0000
  C   C89       1.0  0.35074  0.56300  0.26498  1.0000
  C   C90       1.0  0.37130  0.57021  0.26254  1.0000
  C   C91       1.0  0.44461  0.62412  0.33258  1.0000
  C   C92       1.0  0.44217  0.63459  0.26095  1.0000
  C   C93       1.0  0.44935  0.65514  0.26714  1.0000
  C   C94       1.0  0.45901  0.66572  0.34552  1.0000
  C   C95       1.0  0.46205  0.65540  0.41604  1.0000
  C   C96       1.0  0.45504  0.63484  0.40944  1.0000
  H   H46       1.0  0.33857  0.52796  0.42221  1.0000
  H   H47       1.0  0.37358  0.54080  0.42092  1.0000
  H   H48       1.0  0.34529  0.57001  0.22588  1.0000
  H   H49       1.0  0.37977  0.58170  0.21995  1.0000
  H   H50       1.0  0.43418  0.62713  0.20551  1.0000
  H   H51       1.0  0.44630  0.66202  0.21625  1.0000
  H   H52       1.0  0.45632  0.62753  0.46374  1.0000
  H   H53       1.0  0.46847  0.66258  0.47455  1.0000
  H   H54       1.0  0.46369  0.57602  0.43790  1.0000
  H   H55       1.0  0.48125  0.55822  0.43491  1.0000
  H   H56       1.0  0.44253  0.52052  0.23414  1.0000
  H   H57       1.0  0.42558  0.53892  0.23406  1.0000
  H   H58       1.0  0.40350  0.54583  0.32885  1.0000
  H   H59       1.0  0.40605  0.60115  0.32818  1.0000
  H   H60       1.0  0.45885  0.59901  0.33853  1.0000
  C   C97       1.0  0.43111  0.83019  0.32584  1.0000
  C   C98       1.0  0.44201  0.85122  0.33015  1.0000
  C   C99       1.0  0.43246  0.86273  0.33540  1.0000
  C   C100      1.0  0.41136  0.85254  0.33727  1.0000
  C   C101      1.0  0.40006  0.83161  0.33270  1.0000
  C   C102      1.0  0.41013  0.82074  0.32812  1.0000
  C   C103      1.0  0.44371  0.88404  0.33636  1.0000
  C   C104      1.0  0.46007  0.89468  0.27820  1.0000
  C   C105      1.0  0.47075  0.91563  0.27713  1.0000
  C   C106      1.0  0.46559  0.92686  0.33443  1.0000
  C   C107      1.0  0.44934  0.91621  0.39320  1.0000
  C   C108      1.0  0.43861  0.89527  0.39400  1.0000
  C   C109      1.0  0.44049  0.81836  0.32033  1.0000
  C   C110      1.0  0.45650  0.82176  0.37686  1.0000
  C   C111      1.0  0.46383  0.80841  0.37870  1.0000
  C   C112      1.0  0.45552  0.79119  0.32405  1.0000
  C   C113      1.0  0.44005  0.78834  0.26501  1.0000
  C   C114      1.0  0.43285  0.80171  0.26255  1.0000
  C   C115      1.0  0.37893  0.82110  0.33258  1.0000
  C   C116      1.0  0.36846  0.80819  0.26095  1.0000
  C   C117      1.0  0.34790  0.79485  0.26706  1.0000
  C   C118      1.0  0.33733  0.79390  0.34551  1.0000
  C   C119      1.0  0.34765  0.80724  0.41606  1.0000
  C   C120      1.0  0.36821  0.82080  0.40948  1.0000
  H   H61       1.0  0.47510  0.81123  0.42219  1.0000
  H   H62       1.0  0.46225  0.83339  0.42096  1.0000
  H   H63       1.0  0.43305  0.77590  0.22591  1.0000
  H   H64       1.0  0.42135  0.79868  0.22003  1.0000
  H   H65       1.0  0.37591  0.80766  0.20552  1.0000
  H   H66       1.0  0.34102  0.78488  0.21627  1.0000
  H   H67       1.0  0.37551  0.82941  0.46372  1.0000
  H   H68       1.0  0.34046  0.80649  0.47454  1.0000
  H   H69       1.0  0.42702  0.88827  0.43791  1.0000
  H   H70       1.0  0.44482  0.92363  0.43492  1.0000
  H   H71       1.0  0.48252  0.92261  0.23418  1.0000
  H   H72       1.0  0.46413  0.88728  0.23410  1.0000
  H   H73       1.0  0.45721  0.85827  0.32891  1.0000
  H   H74       1.0  0.40190  0.80551  0.32820  1.0000
  H   H75       1.0  0.40404  0.86044  0.33853  1.0000
  C   C121      1.0  0.83097  0.40134  0.32264  1.0000
  C   C122      1.0  0.85202  0.41176  0.32551  1.0000
  C   C123      1.0  0.86329  0.43281  0.33304  1.0000
  C   C124      1.0  0.85274  0.44335  0.33888  1.0000
  C   C125      1.0  0.83179  0.43345  0.33493  1.0000
  C   C126      1.0  0.82121  0.41254  0.32804  1.0000
  C   C127      1.0  0.88466  0.44319  0.33268  1.0000
  C   C128      1.0  0.89548  0.43564  0.37840  1.0000
  C   C129      1.0  0.91643  0.44576  0.37729  1.0000
  C   C130      1.0  0.92732  0.46395  0.33097  1.0000
  C   C131      1.0  0.91672  0.47167  0.28553  1.0000
  C   C132      1.0  0.89579  0.46139  0.28589  1.0000
  C   C133      1.0  0.81942  0.38014  0.31585  1.0000
  C   C134      1.0  0.82310  0.36759  0.37144  1.0000
  C   C135      1.0  0.80984  0.34689  0.37354  1.0000
  C   C136      1.0  0.79241  0.33791  0.32025  1.0000
  C   C137      1.0  0.78931  0.35047  0.26185  1.0000
  C   C138      1.0  0.80258  0.37106  0.25917  1.0000
  C   C139      1.0  0.82102  0.44378  0.33640  1.0000
  C   C140      1.0  0.80829  0.44161  0.26436  1.0000
  C   C141      1.0  0.79490  0.44876  0.27074  1.0000
  C   C142      1.0  0.79373  0.45808  0.34980  1.0000
  C   C143      1.0  0.80685  0.46078  0.42094  1.0000
  C   C144      1.0  0.82046  0.45385  0.41409  1.0000
  H   H76       1.0  0.81284  0.33847  0.41651  1.0000
  H   H77       1.0  0.83488  0.37352  0.41473  1.0000
  H   H78       1.0  0.77668  0.34499  0.22396  1.0000
  H   H79       1.0  0.79930  0.37951  0.21765  1.0000
  H   H80       1.0  0.80803  0.43399  0.20805  1.0000
  H   H81       1.0  0.78517  0.44599  0.21923  1.0000
  H   H82       1.0  0.82896  0.45498  0.46850  1.0000
  H   H83       1.0  0.80597  0.46704  0.47971  1.0000
  H   H84       1.0  0.88874  0.46726  0.24991  1.0000
  H   H85       1.0  0.92417  0.48469  0.25035  1.0000
  H   H86       1.0  0.92369  0.43989  0.41170  1.0000
  H   H87       1.0  0.88820  0.42277  0.41457  1.0000
  H   H88       1.0  0.85924  0.40385  0.31849  1.0000
  H   H89       1.0  0.80597  0.40532  0.32866  1.0000
  H   H90       1.0  0.86036  0.45851  0.34525  1.0000
  C   C145      1.0  0.60171  0.43023  0.32269  1.0000
  C   C146      1.0  0.59129  0.44086  0.32557  1.0000
  C   C147      1.0  0.57024  0.43108  0.33304  1.0000
  C   C148      1.0  0.55970  0.41000  0.33887  1.0000
  C   C149      1.0  0.56959  0.39895  0.33492  1.0000
  C   C150      1.0  0.59050  0.40927  0.32806  1.0000
  C   C151      1.0  0.55986  0.44207  0.33268  1.0000
  C   C152      1.0  0.56741  0.46044  0.37842  1.0000
  C   C153      1.0  0.55728  0.47126  0.37734  1.0000
  C   C154      1.0  0.53910  0.46398  0.33097  1.0000
  C   C155      1.0  0.53138  0.44566  0.28550  1.0000
  C   C156      1.0  0.54166  0.43500  0.28588  1.0000
  C   C157      1.0  0.62291  0.43987  0.31593  1.0000
  C   C158      1.0  0.63546  0.45611  0.37151  1.0000
  C   C159      1.0  0.65616  0.46355  0.37362  1.0000
  C   C160      1.0  0.66514  0.45509  0.32040  1.0000
  C   C161      1.0  0.65257  0.43941  0.26209  1.0000
  C   C162      1.0  0.63198  0.43211  0.25929  1.0000
  C   C163      1.0  0.55925  0.37783  0.33637  1.0000
  C   C164      1.0  0.56141  0.36728  0.26430  1.0000
  C   C165      1.0  0.55427  0.34675  0.27069  1.0000
  C   C166      1.0  0.54496  0.33626  0.34976  1.0000
  C   C167      1.0  0.54224  0.34666  0.42086  1.0000
  C   C168      1.0  0.54919  0.36722  0.41407  1.0000
  H   H91       1.0  0.66457  0.47497  0.41654  1.0000
  H   H92       1.0  0.62952  0.46196  0.41476  1.0000
  H   H93       1.0  0.65807  0.43229  0.22408  1.0000
  H   H94       1.0  0.62354  0.42039  0.21775  1.0000
  H   H95       1.0  0.56905  0.37465  0.20802  1.0000
  H   H96       1.0  0.55705  0.33979  0.21919  1.0000
  H   H97       1.0  0.54807  0.37459  0.46847  1.0000
  H   H98       1.0  0.53600  0.33953  0.47970  1.0000
  H   H99       1.0  0.53580  0.42210  0.24984  1.0000
  H   H100      1.0  0.51837  0.44011  0.25029  1.0000
  H   H101      1.0  0.56316  0.48440  0.41173  1.0000
  H   H102      1.0  0.58028  0.46603  0.41460  1.0000
  H   H103      1.0  0.59920  0.45599  0.31852  1.0000
  H   H104      1.0  0.59771  0.40124  0.32868  1.0000
  H   H105      1.0  0.54454  0.40246  0.34519  1.0000
  C   C169      1.0  0.57283  0.17208  0.32272  1.0000
  C   C170      1.0  0.56219  0.15104  0.32559  1.0000
  C   C171      1.0  0.57196  0.13976  0.33305  1.0000
  C   C172      1.0  0.59304  0.15029  0.33888  1.0000
  C   C173      1.0  0.60410  0.17124  0.33493  1.0000
  C   C174      1.0  0.59379  0.18183  0.32809  1.0000
  C   C175      1.0  0.56097  0.11839  0.33268  1.0000
  C   C176      1.0  0.54260  0.10757  0.37845  1.0000
  C   C177      1.0  0.53177  0.08662  0.37734  1.0000
  C   C178      1.0  0.53905  0.07573  0.33097  1.0000
  C   C179      1.0  0.55738  0.08632  0.28553  1.0000
  C   C180      1.0  0.56803  0.10726  0.28588  1.0000
  C   C181      1.0  0.56319  0.18365  0.31599  1.0000
  C   C182      1.0  0.54695  0.17996  0.37155  1.0000
  C   C183      1.0  0.53951  0.19322  0.37365  1.0000
  C   C184      1.0  0.54797  0.21066  0.32043  1.0000
  C   C185      1.0  0.56365  0.21378  0.26215  1.0000
  C   C186      1.0  0.57097  0.20051  0.25943  1.0000
  C   C187      1.0  0.62522  0.18200  0.33643  1.0000
  C   C188      1.0  0.63577  0.19472  0.26435  1.0000
  C   C189      1.0  0.65631  0.20810  0.27068  1.0000
  C   C190      1.0  0.66679  0.20931  0.34981  1.0000
  C   C191      1.0  0.65638  0.19621  0.42099  1.0000
  C   C192      1.0  0.63584  0.18259  0.41416  1.0000
  H   H106      1.0  0.52808  0.19021  0.41655  1.0000
  H   H107      1.0  0.54109  0.16817  0.41477  1.0000
  H   H108      1.0  0.57077  0.22639  0.22411  1.0000
  H   H109      1.0  0.58267  0.20377  0.21780  1.0000
  H   H110      1.0  0.62840  0.19498  0.20806  1.0000
  H   H111      1.0  0.66325  0.21785  0.21919  1.0000
  H   H112      1.0  0.62846  0.17410  0.46857  1.0000
  H   H113      1.0  0.66352  0.19710  0.47979  1.0000
  H   H114      1.0  0.58094  0.11430  0.24983  1.0000
  H   H115      1.0  0.56292  0.07887  0.25027  1.0000
  H   H116      1.0  0.51863  0.07936  0.41171  1.0000
  H   H117      1.0  0.53700  0.11485  0.41458  1.0000
  H   H118      1.0  0.54706  0.14382  0.31853  1.0000
  H   H119      1.0  0.60182  0.19707  0.32873  1.0000
  H   H120      1.0  0.60057  0.14266  0.34521  1.0000
  C   C193      1.0  0.98001  0.50364  0.37254  1.0000
  C   C194      1.0  0.95909  0.49296  0.37245  1.0000
  H   H121      1.0  0.98720  0.51716  0.40386  1.0000
  H   H122      1.0  0.95164  0.49891  0.40474  1.0000
  C   C195      1.0  0.04355  0.52263  0.41194  1.0000
  C   C196      1.0  0.02264  0.51211  0.40978  1.0000
  H   H123      1.0  0.05045  0.52611  0.47289  1.0000
  H   H124      1.0  0.01507  0.50793  0.46913  1.0000
  C   C197      1.0  0.49942  0.47699  0.37255  1.0000
  C   C198      1.0  0.51010  0.46675  0.37246  1.0000
  H   H125      1.0  0.48589  0.47065  0.40387  1.0000
  H   H126      1.0  0.50414  0.45335  0.40475  1.0000
  C   C199      1.0  0.48042  0.52153  0.41194  1.0000
  C   C200      1.0  0.49094  0.51114  0.40978  1.0000
  H   H127      1.0  0.47695  0.52496  0.47289  1.0000
  H   H128      1.0  0.49512  0.50775  0.46913  1.0000
  C   C201      1.0  0.52605  0.02304  0.37255  1.0000
  C   C202      1.0  0.53629  0.04395  0.37247  1.0000
  H   H129      1.0  0.53238  0.01585  0.40388  1.0000
  H   H130      1.0  0.54969  0.05140  0.40476  1.0000
  C   C203      1.0  0.48150  0.95949  0.41197  1.0000
  C   C204      1.0  0.49189  0.98041  0.40980  1.0000
  H   H131      1.0  0.47808  0.95260  0.47292  1.0000
  H   H132      1.0  0.49528  0.98798  0.46914  1.0000
  C   C205      1.0  0.22511  0.54019  0.35655  1.0000
  C   C206      1.0  0.24104  0.55182  0.41586  1.0000
  C   C207      1.0  0.25809  0.54963  0.41528  1.0000
  C   C208      1.0  0.25971  0.53607  0.35758  1.0000
  C   C209      1.0  0.27809  0.53604  0.35080  1.0000
  C   C210      1.0  0.28858  0.53510  0.42683  1.0000
  C   C211      1.0  0.30803  0.53806  0.41642  1.0000
  C   C212      1.0  0.31750  0.54187  0.33201  1.0000
  H   H133      1.0  0.31566  0.53839  0.47273  1.0000
  H   H134      1.0  0.26993  0.55898  0.45439  1.0000
  N   N7        1.0  0.27944  0.53107  0.51214  1.0000
  N   N8        1.0  0.24020  0.56619  0.47120  1.0000
  O   O13       1.0  0.28935  0.54482  0.56683  1.0000
  O   O14       1.0  0.25385  0.58351  0.45315  1.0000
  O   O15       1.0  0.27723  0.51509  0.54365  1.0000
  O   O16       1.0  0.24136  0.56279  0.55244  1.0000
  C   C213      1.0  0.46285  0.68552  0.35651  1.0000
  C   C214      1.0  0.45123  0.68983  0.41581  1.0000
  C   C215      1.0  0.45341  0.70906  0.41524  1.0000
  C   C216      1.0  0.46697  0.72424  0.35756  1.0000
  C   C217      1.0  0.46701  0.74265  0.35079  1.0000
  C   C218      1.0  0.46795  0.75408  0.42683  1.0000
  C   C219      1.0  0.46500  0.77058  0.41642  1.0000
  C   C220      1.0  0.46119  0.77625  0.33202  1.0000
  H   H135      1.0  0.46466  0.77788  0.47274  1.0000
  H   H136      1.0  0.44406  0.71155  0.45435  1.0000
  N   N9        1.0  0.47197  0.74897  0.51214  1.0000
  N   N10       1.0  0.43685  0.67461  0.47115  1.0000
  O   O17       1.0  0.45822  0.74513  0.56682  1.0000
  O   O18       1.0  0.41953  0.67095  0.45309  1.0000
  O   O19       1.0  0.48796  0.76274  0.54366  1.0000
  O   O20       1.0  0.44025  0.67917  0.55238  1.0000
  C   C221      1.0  0.31752  0.77794  0.35649  1.0000
  C   C222      1.0  0.31321  0.76201  0.41581  1.0000
  C   C223      1.0  0.29398  0.74496  0.41524  1.0000
  C   C224      1.0  0.27880  0.74334  0.35756  1.0000
  C   C225      1.0  0.26039  0.72496  0.35078  1.0000
  C   C226      1.0  0.24896  0.71448  0.42682  1.0000
  C   C227      1.0  0.23246  0.69503  0.41641  1.0000
  C   C228      1.0  0.22679  0.68555  0.33201  1.0000
  H   H137      1.0  0.22516  0.68739  0.47272  1.0000
  H   H138      1.0  0.29150  0.73312  0.45436  1.0000
  N   N11       1.0  0.25407  0.72362  0.51212  1.0000
  N   N12       1.0  0.32843  0.76285  0.47115  1.0000
  O   O21       1.0  0.25792  0.71370  0.56680  1.0000
  O   O22       1.0  0.33209  0.74919  0.45310  1.0000
  O   O23       1.0  0.24030  0.72583  0.54364  1.0000
  O   O24       1.0  0.32387  0.76169  0.55238  1.0000
  C   C229      1.0  0.77787  0.46210  0.36014  1.0000
  C   C230      1.0  0.76181  0.45059  0.41908  1.0000
  C   C231      1.0  0.74482  0.45287  0.41740  1.0000
  C   C232      1.0  0.74337  0.46641  0.35890  1.0000
  C   C233      1.0  0.72505  0.46649  0.35072  1.0000
  C   C234      1.0  0.71444  0.46762  0.42588  1.0000
  C   C235      1.0  0.69504  0.46472  0.41421  1.0000
  C   C236      1.0  0.68572  0.46077  0.32939  1.0000
  H   H139      1.0  0.68732  0.46452  0.46996  1.0000
  H   H140      1.0  0.73289  0.44359  0.45622  1.0000
  N   N13       1.0  0.72342  0.47177  0.51155  1.0000
  N   N14       1.0  0.76245  0.43619  0.47503  1.0000
  O   O25       1.0  0.71338  0.45812  0.56648  1.0000
  O   O26       1.0  0.74876  0.41889  0.45690  1.0000
  O   O27       1.0  0.72563  0.48782  0.54208  1.0000
  O   O28       1.0  0.76117  0.43966  0.55607  1.0000
  C   C237      1.0  0.54094  0.31638  0.36008  1.0000
  C   C238      1.0  0.55246  0.31183  0.41902  1.0000
  C   C239      1.0  0.55018  0.29256  0.41735  1.0000
  C   C240      1.0  0.53664  0.27757  0.35886  1.0000
  C   C241      1.0  0.53656  0.25917  0.35070  1.0000
  C   C242      1.0  0.53544  0.24744  0.42587  1.0000
  C   C243      1.0  0.53834  0.23094  0.41421  1.0000
  C   C244      1.0  0.54228  0.22556  0.32940  1.0000
  H   H141      1.0  0.53854  0.22342  0.46998  1.0000
  H   H142      1.0  0.55946  0.28992  0.45616  1.0000
  N   N15       1.0  0.53129  0.25227  0.51153  1.0000
  N   N16       1.0  0.56686  0.32687  0.47496  1.0000
  O   O29       1.0  0.54494  0.25588  0.56646  1.0000
  O   O30       1.0  0.58415  0.33048  0.45683  1.0000
  O   O31       1.0  0.51523  0.23842  0.54208  1.0000
  O   O32       1.0  0.56339  0.32213  0.55600  1.0000
  C   C245      1.0  0.68667  0.22519  0.36011  1.0000
  C   C246      1.0  0.69121  0.24125  0.41899  1.0000
  C   C247      1.0  0.71048  0.25824  0.41730  1.0000
  C   C248      1.0  0.72547  0.25968  0.35884  1.0000
  C   C249      1.0  0.74388  0.27801  0.35065  1.0000
  C   C250      1.0  0.75560  0.28862  0.42580  1.0000
  C   C251      1.0  0.77211  0.30802  0.41412  1.0000
  C   C252      1.0  0.77749  0.31733  0.32928  1.0000
  H   H143      1.0  0.77963  0.31575  0.46986  1.0000
  H   H144      1.0  0.71313  0.27017  0.45607  1.0000
  N   N17       1.0  0.75077  0.27965  0.51150  1.0000
  N   N18       1.0  0.67617  0.24062  0.47491  1.0000
  O   O33       1.0  0.74716  0.28970  0.56638  1.0000
  O   O34       1.0  0.67256  0.25430  0.45671  1.0000
  O   O35       1.0  0.76461  0.27744  0.54208  1.0000
  O   O36       1.0  0.68092  0.24191  0.55594  1.0000
