data_image0
_chemical_formula_structural       NC3H3C2H3NC3H3NC3H3C25H15C24H15C3H3NC3H3N2
_chemical_formula_sum              "N6 C66 H48"
_cell_length_a       29.9465
_cell_length_b       29.9464
_cell_length_c       14.9034
_cell_angle_alpha    90
_cell_angle_beta     90
_cell_angle_gamma    120

_space_group_name_H-M_alt    "P 1"
_space_group_IT_number       1

loop_
  _space_group_symop_operation_xyz
  'x, y, z'

loop_
  _atom_site_type_symbol
  _atom_site_label
  _atom_site_symmetry_multiplicity
  _atom_site_fract_x
  _atom_site_fract_y
  _atom_site_fract_z
  _atom_site_occupancy
  N   N1        1.0  0.03268  0.51715  0.26250  1.0000
  C   C1        1.0  0.05855  0.53009  0.34174  1.0000
  C   C2        1.0  0.02929  0.51545  0.42200  1.0000
  C   C3        1.0  0.05266  0.52714  0.51245  1.0000
  H   H1        1.0  0.02317  0.51240  0.56474  1.0000
  H   H2        1.0  0.07656  0.50942  0.52106  1.0000
  H   H3        1.0  0.07656  0.56877  0.52105  1.0000
  C   C4        1.0  0.52787  0.48023  0.16307  1.0000
  C   C5        1.0  0.51709  0.49101  0.25493  1.0000
  H   H4        1.0  0.49159  0.45727  0.12727  1.0000
  H   H5        1.0  0.54888  0.45922  0.16233  1.0000
  H   H6        1.0  0.55083  0.51650  0.12727  1.0000
  N   N2        1.0  0.49095  0.51715  0.26250  1.0000
  C   C6        1.0  0.53173  0.47637  0.33531  1.0000
  C   C7        1.0  0.52788  0.04927  0.16308  1.0000
  C   C8        1.0  0.51709  0.02770  0.25493  1.0000
  H   H7        1.0  0.55084  0.03596  0.12728  1.0000
  H   H8        1.0  0.54889  0.09130  0.16235  1.0000
  H   H9        1.0  0.49160  0.03596  0.12728  1.0000
  N   N3        1.0  0.49095  0.97543  0.26250  1.0000
  C   C9        1.0  0.53173  0.05698  0.33532  1.0000
  C   C10       1.0  0.95883  0.48023  0.16307  1.0000
  C   C11       1.0  0.98040  0.49101  0.25493  1.0000
  H   H10       1.0  0.97214  0.51650  0.12728  1.0000
  H   H11       1.0  0.91681  0.45921  0.16234  1.0000
  H   H12       1.0  0.97215  0.45727  0.12728  1.0000
  C   C12       1.0  0.95112  0.47637  0.33531  1.0000
  C   C13       1.0  0.28185  0.64173  0.33830  1.0000
  C   C14       1.0  0.31162  0.61676  0.33832  1.0000
  C   C15       1.0  0.36636  0.64173  0.33829  1.0000
  C   C16       1.0  0.39134  0.69648  0.33832  1.0000
  C   C17       1.0  0.36636  0.72625  0.33830  1.0000
  C   C18       1.0  0.31162  0.69648  0.33833  1.0000
  C   C19       1.0  0.39479  0.61331  0.33831  1.0000
  C   C20       1.0  0.36970  0.55827  0.33838  1.0000
  C   C21       1.0  0.39662  0.53089  0.33891  1.0000
  C   C22       1.0  0.45079  0.55731  0.33949  1.0000
  C   C23       1.0  0.47720  0.61148  0.33892  1.0000
  C   C24       1.0  0.44983  0.63840  0.33839  1.0000
  C   C25       1.0  0.22500  0.61331  0.33832  1.0000
  C   C26       1.0  0.19505  0.55827  0.33838  1.0000
  C   C27       1.0  0.14075  0.53089  0.33890  1.0000
  C   C28       1.0  0.11299  0.55731  0.33948  1.0000
  C   C29       1.0  0.14075  0.61148  0.33890  1.0000
  C   C30       1.0  0.19505  0.63840  0.33838  1.0000
  C   C31       1.0  0.39479  0.78310  0.33832  1.0000
  C   C32       1.0  0.36970  0.81305  0.33838  1.0000
  C   C33       1.0  0.39662  0.86735  0.33889  1.0000
  C   C34       1.0  0.45079  0.89511  0.33947  1.0000
  C   C35       1.0  0.47721  0.86735  0.33890  1.0000
  C   C36       1.0  0.44983  0.81305  0.33839  1.0000
  H   H13       1.0  0.12161  0.49141  0.33944  1.0000
  H   H14       1.0  0.21154  0.53576  0.33832  1.0000
  H   H15       1.0  0.12161  0.63182  0.33943  1.0000
  H   H16       1.0  0.21154  0.67740  0.33830  1.0000
  H   H17       1.0  0.33070  0.79656  0.33830  1.0000
  H   H18       1.0  0.37628  0.88650  0.33943  1.0000
  H   H19       1.0  0.47234  0.79656  0.33832  1.0000
  H   H20       1.0  0.51669  0.88650  0.33944  1.0000
  H   H21       1.0  0.47234  0.67740  0.33831  1.0000
  H   H22       1.0  0.51669  0.63182  0.33945  1.0000
  H   H23       1.0  0.37628  0.49141  0.33943  1.0000
  H   H24       1.0  0.33070  0.53576  0.33829  1.0000
  H   H25       1.0  0.29230  0.57812  0.33837  1.0000
  H   H26       1.0  0.29230  0.71580  0.33839  1.0000
  H   H27       1.0  0.42998  0.71580  0.33835  1.0000
  C   C37       1.0  0.72786  0.36474  0.34114  1.0000
  C   C38       1.0  0.69810  0.38973  0.34118  1.0000
  C   C39       1.0  0.64336  0.36474  0.34115  1.0000
  C   C40       1.0  0.61838  0.31000  0.34117  1.0000
  C   C41       1.0  0.64335  0.28023  0.34114  1.0000
  C   C42       1.0  0.69810  0.31000  0.34116  1.0000
  C   C43       1.0  0.61493  0.39317  0.34081  1.0000
  C   C44       1.0  0.64002  0.44821  0.34045  1.0000
  C   C45       1.0  0.61310  0.47559  0.33933  1.0000
  C   C46       1.0  0.55893  0.44917  0.33845  1.0000
  C   C47       1.0  0.53251  0.39500  0.33932  1.0000
  C   C48       1.0  0.55989  0.36808  0.34046  1.0000
  C   C49       1.0  0.78472  0.39317  0.34081  1.0000
  C   C50       1.0  0.81467  0.44821  0.34045  1.0000
  C   C51       1.0  0.86896  0.47559  0.33933  1.0000
  C   C52       1.0  0.89671  0.44917  0.33846  1.0000
  C   C53       1.0  0.86896  0.39500  0.33934  1.0000
  C   C54       1.0  0.81467  0.36808  0.34046  1.0000
  C   C55       1.0  0.61493  0.22338  0.34080  1.0000
  C   C56       1.0  0.64002  0.19343  0.34047  1.0000
  C   C57       1.0  0.61310  0.13914  0.33932  1.0000
  C   C58       1.0  0.55893  0.11139  0.33847  1.0000
  C   C59       1.0  0.53251  0.13914  0.33934  1.0000
  C   C60       1.0  0.55989  0.19343  0.34045  1.0000
  H   H28       1.0  0.88811  0.51507  0.33849  1.0000
  H   H29       1.0  0.79818  0.47072  0.34063  1.0000
  H   H30       1.0  0.88811  0.37466  0.33851  1.0000
  H   H31       1.0  0.79818  0.32908  0.34068  1.0000
  H   H32       1.0  0.67902  0.20992  0.34066  1.0000
  H   H33       1.0  0.63344  0.11999  0.33851  1.0000
  H   H34       1.0  0.53738  0.20992  0.34064  1.0000
  H   H35       1.0  0.49303  0.11999  0.33850  1.0000
  H   H36       1.0  0.53738  0.32908  0.34067  1.0000
  H   H37       1.0  0.49303  0.37466  0.33850  1.0000
  H   H38       1.0  0.63344  0.51507  0.33850  1.0000
  H   H39       1.0  0.67902  0.47072  0.34067  1.0000
  H   H40       1.0  0.71742  0.42836  0.34122  1.0000
  H   H41       1.0  0.71742  0.29068  0.34116  1.0000
  H   H42       1.0  0.57974  0.29068  0.34120  1.0000
  C   C61       1.0  0.47801  0.53008  0.34174  1.0000
  C   C62       1.0  0.49265  0.51545  0.42200  1.0000
  C   C63       1.0  0.48096  0.52714  0.51246  1.0000
  H   H43       1.0  0.49869  0.56877  0.52107  1.0000
  H   H44       1.0  0.49571  0.51239  0.56474  1.0000
  H   H45       1.0  0.43934  0.50941  0.52107  1.0000
  N   N4        1.0  0.51878  0.48932  0.41456  1.0000
  C   C64       1.0  0.47801  0.94955  0.34173  1.0000
  C   C65       1.0  0.49264  0.97881  0.42200  1.0000
  C   C66       1.0  0.48095  0.95543  0.51245  1.0000
  H   H46       1.0  0.43933  0.93153  0.52105  1.0000
  H   H47       1.0  0.49570  0.98492  0.56474  1.0000
  H   H48       1.0  0.49868  0.93153  0.52105  1.0000
  N   N5        1.0  0.51878  0.03108  0.41457  1.0000
  N   N6        1.0  0.97701  0.48932  0.41456  1.0000
