data_image0
_chemical_formula_structural       C3H4CH2C3H4CH2C3H4CH2C6H3NHNHNHC6H3NHNHNHC3NC2NHNCH2CH2C3NC2NHNCH2CH2C3NC2NHNCH2CH2C3H4CH2C3H4CH2C3H4CH2C6H3NHNHNHC6H3NHNHNHC3NC2NHNCH2CH2C3NC2NHNCH2CH2C3NC2NHNCH2CH2C3H4CH2C3H4CH2C3H4CH2C6H3NHNHNHC6H3NHNHNHC3NC2NHNCH2CH2C3NC2NHNCH2CH2C3NC2NHNCH2CH2C3H4CH2C3H4CH2C3H4CH2C6H3NHNHNHC6H3NHNHNHC3NC2NHNCH2CH2C3NC2NHNCH2CH2C3NC2NHNCH2CH2
_chemical_formula_sum              "C180 H180 N60"
_cell_length_a       43.5882
_cell_length_b       43.5882
_cell_length_c       15.011
_cell_angle_alpha    90
_cell_angle_beta     90
_cell_angle_gamma    120

_space_group_name_H-M_alt    "P 1"
_space_group_IT_number       1

loop_
  _space_group_symop_operation_xyz
  'x, y, z'

loop_
  _atom_site_type_symbol
  _atom_site_label
  _atom_site_symmetry_multiplicity
  _atom_site_fract_x
  _atom_site_fract_y
  _atom_site_fract_z
  _atom_site_occupancy
  C   C1        1.0  0.28149  0.24407  0.35503  1.0000
  C   C2        1.0  0.27086  0.29129  0.30311  1.0000
  C   C3        1.0  0.29028  0.27351  0.29958  1.0000
  H   H1        1.0  0.31056  0.28192  0.25465  1.0000
  H   H2        1.0  0.27776  0.31221  0.26097  1.0000
  H   H3        1.0  0.24540  0.19709  0.02816  1.0000
  H   H4        1.0  0.23008  0.15114  0.03295  1.0000
  C   C4        1.0  0.30074  0.22402  0.34653  1.0000
  H   H5        1.0  0.32264  0.23648  0.29893  1.0000
  H   H6        1.0  0.28172  0.19800  0.31958  1.0000
  C   C5        1.0  0.25502  0.03724  0.35500  1.0000
  C   C6        1.0  0.20780  0.47939  0.30308  1.0000
  C   C7        1.0  0.22558  0.01658  0.29953  1.0000
  H   H7        1.0  0.21717  0.02845  0.25462  1.0000
  H   H8        1.0  0.18688  0.46536  0.26095  1.0000
  H   H9        1.0  0.30200  0.04814  0.02812  1.0000
  H   H10       1.0  0.34795  0.07878  0.03291  1.0000
  C   C8        1.0  0.27506  0.07654  0.34650  1.0000
  H   H11       1.0  0.26261  0.08598  0.29889  1.0000
  H   H12       1.0  0.30108  0.08354  0.31955  1.0000
  C   C9        1.0  0.46184  0.21760  0.35501  1.0000
  C   C10       1.0  0.01968  0.22823  0.30308  1.0000
  C   C11       1.0  0.48250  0.20882  0.29953  1.0000
  H   H13       1.0  0.47062  0.18854  0.25461  1.0000
  H   H14       1.0  0.03371  0.22133  0.26094  1.0000
  H   H15       1.0  0.45094  0.25366  0.02816  1.0000
  H   H16       1.0  0.42031  0.26898  0.03295  1.0000
  C   C12       1.0  0.42254  0.19835  0.34651  1.0000
  H   H17       1.0  0.41310  0.17646  0.29889  1.0000
  H   H18       1.0  0.41555  0.21738  0.31958  1.0000
  C   C13       1.0  0.18578  0.31499  0.26685  1.0000
  C   C14       1.0  0.14834  0.29581  0.26609  1.0000
  C   C15       1.0  0.12849  0.31331  0.26689  1.0000
  C   C16       1.0  0.14674  0.35074  0.26608  1.0000
  C   C17       1.0  0.18409  0.37059  0.26686  1.0000
  C   C18       1.0  0.20328  0.35234  0.26600  1.0000
  H   H19       1.0  0.13265  0.36374  0.26731  1.0000
  H   H20       1.0  0.23036  0.36643  0.26728  1.0000
  H   H21       1.0  0.13534  0.26872  0.26731  1.0000
  N   N1        1.0  0.20617  0.29782  0.27068  1.0000
  H   H22       1.0  0.19120  0.27178  0.25145  1.0000
  N   N2        1.0  0.20126  0.40816  0.27067  1.0000
  H   H23       1.0  0.22731  0.41923  0.25144  1.0000
  N   N3        1.0  0.09092  0.29291  0.27070  1.0000
  H   H24       1.0  0.07985  0.30789  0.25147  1.0000
  C   C19       1.0  0.32422  0.19375  0.43656  1.0000
  C   C20       1.0  0.35990  0.20187  0.43772  1.0000
  C   C21       1.0  0.36879  0.17485  0.43655  1.0000
  C   C22       1.0  0.34123  0.13918  0.43767  1.0000
  C   C23       1.0  0.30533  0.13029  0.43654  1.0000
  C   C24       1.0  0.29721  0.15785  0.43768  1.0000
  H   H25       1.0  0.34739  0.11940  0.43713  1.0000
  H   H26       1.0  0.27127  0.15169  0.43715  1.0000
  H   H27       1.0  0.37968  0.22780  0.43716  1.0000
  N   N4        1.0  0.31467  0.22045  0.43411  1.0000
  H   H28       1.0  0.33530  0.24471  0.45299  1.0000
  N   N5        1.0  0.27863  0.09404  0.43407  1.0000
  H   H29       1.0  0.25436  0.09040  0.45295  1.0000
  N   N6        1.0  0.40504  0.18440  0.43408  1.0000
  H   H30       1.0  0.40868  0.16378  0.45294  1.0000
  C   C25       1.0  0.25290  0.23320  0.41541  1.0000
  C   C26       1.0  0.23331  0.25123  0.41938  1.0000
  C   C27       1.0  0.24187  0.28024  0.36189  1.0000
  N   N7        1.0  0.20651  0.23967  0.47990  1.0000
  C   C28       1.0  0.19775  0.21228  0.53654  1.0000
  C   C29       1.0  0.21723  0.19457  0.53339  1.0000
  N   N8        1.0  0.24371  0.20568  0.47245  1.0000
  H   H31       1.0  0.17753  0.20507  0.58095  1.0000
  N   N9        1.0  0.20948  0.16640  0.59220  1.0000
  C   C30       1.0  0.23865  0.17364  0.65462  1.0000
  H   H32       1.0  0.20359  0.14433  0.55520  1.0000
  H   H33       1.0  0.26229  0.17767  0.61924  1.0000
  C   C31       1.0  0.22153  0.29939  0.36036  1.0000
  H   H34       1.0  0.23981  0.32698  0.37844  1.0000
  H   H35       1.0  0.20028  0.28876  0.40986  1.0000
  C   C32       1.0  0.26589  0.01952  0.41537  1.0000
  C   C33       1.0  0.24786  0.48190  0.41935  1.0000
  C   C34       1.0  0.21885  0.46145  0.36187  1.0000
  N   N10       1.0  0.25942  0.46666  0.47988  1.0000
  C   C35       1.0  0.28681  0.48530  0.53653  1.0000
  C   C36       1.0  0.30452  0.02249  0.53337  1.0000
  N   N11       1.0  0.29341  0.03786  0.47241  1.0000
  H   H36       1.0  0.29402  0.47228  0.58093  1.0000
  N   N12       1.0  0.33269  0.04291  0.59217  1.0000
  C   C37       1.0  0.32544  0.06484  0.65458  1.0000
  H   H37       1.0  0.35476  0.05909  0.55516  1.0000
  H   H38       1.0  0.32142  0.08446  0.61919  1.0000
  C   C38       1.0  0.19970  0.42196  0.36035  1.0000
  H   H39       1.0  0.17211  0.41265  0.37844  1.0000
  H   H40       1.0  0.21033  0.41134  0.40985  1.0000
  C   C39       1.0  0.47956  0.24618  0.41540  1.0000
  C   C40       1.0  0.01718  0.26577  0.41938  1.0000
  C   C41       1.0  0.03763  0.25721  0.36189  1.0000
  N   N13       1.0  0.03243  0.29256  0.47992  1.0000
  C   C42       1.0  0.01379  0.30132  0.53658  1.0000
  C   C43       1.0  0.47660  0.28184  0.53342  1.0000
  N   N14       1.0  0.46123  0.25537  0.47245  1.0000
  H   H41       1.0  0.02681  0.32154  0.58099  1.0000
  N   N15       1.0  0.45618  0.28958  0.59223  1.0000
  C   C44       1.0  0.43425  0.26041  0.65462  1.0000
  H   H42       1.0  0.44001  0.29548  0.55522  1.0000
  H   H43       1.0  0.41462  0.23678  0.61922  1.0000
  C   C45       1.0  0.07712  0.27754  0.36037  1.0000
  H   H44       1.0  0.08642  0.25926  0.37844  1.0000
  H   H45       1.0  0.08774  0.29878  0.40988  1.0000
  C   C46       1.0  0.28149  0.74407  0.35503  1.0000
  C   C47       1.0  0.27086  0.79129  0.30311  1.0000
  C   C48       1.0  0.29028  0.77351  0.29958  1.0000
  H   H46       1.0  0.31056  0.78192  0.25465  1.0000
  H   H47       1.0  0.27776  0.81221  0.26097  1.0000
  H   H48       1.0  0.24540  0.69709  0.02816  1.0000
  H   H49       1.0  0.23008  0.65114  0.03295  1.0000
  C   C49       1.0  0.30074  0.72402  0.34653  1.0000
  H   H50       1.0  0.32264  0.73648  0.29893  1.0000
  H   H51       1.0  0.28172  0.69800  0.31958  1.0000
  C   C50       1.0  0.25502  0.53724  0.35500  1.0000
  C   C51       1.0  0.20780  0.97939  0.30308  1.0000
  C   C52       1.0  0.22558  0.51658  0.29953  1.0000
  H   H52       1.0  0.21717  0.52846  0.25462  1.0000
  H   H53       1.0  0.18688  0.96537  0.26095  1.0000
  H   H54       1.0  0.30200  0.54814  0.02812  1.0000
  H   H55       1.0  0.34795  0.57878  0.03291  1.0000
  C   C53       1.0  0.27506  0.57654  0.34650  1.0000
  H   H56       1.0  0.26260  0.58598  0.29889  1.0000
  H   H57       1.0  0.30109  0.58354  0.31955  1.0000
  C   C54       1.0  0.46184  0.71760  0.35501  1.0000
  C   C55       1.0  0.01968  0.72823  0.30308  1.0000
  C   C56       1.0  0.48250  0.70882  0.29953  1.0000
  H   H58       1.0  0.47062  0.68854  0.25461  1.0000
  H   H59       1.0  0.03371  0.72133  0.26094  1.0000
  H   H60       1.0  0.45094  0.75366  0.02816  1.0000
  H   H61       1.0  0.42031  0.76898  0.03295  1.0000
  C   C57       1.0  0.42254  0.69835  0.34651  1.0000
  H   H62       1.0  0.41310  0.67646  0.29889  1.0000
  H   H63       1.0  0.41555  0.71738  0.31958  1.0000
  C   C58       1.0  0.18578  0.81500  0.26685  1.0000
  C   C59       1.0  0.14834  0.79581  0.26609  1.0000
  C   C60       1.0  0.12849  0.81331  0.26689  1.0000
  C   C61       1.0  0.14674  0.85074  0.26608  1.0000
  C   C62       1.0  0.18409  0.87059  0.26686  1.0000
  C   C63       1.0  0.20327  0.85234  0.26600  1.0000
  H   H64       1.0  0.13265  0.86374  0.26731  1.0000
  H   H65       1.0  0.23036  0.86643  0.26728  1.0000
  H   H66       1.0  0.13534  0.76872  0.26731  1.0000
  N   N16       1.0  0.20617  0.79783  0.27068  1.0000
  H   H67       1.0  0.19120  0.77178  0.25145  1.0000
  N   N17       1.0  0.20126  0.90816  0.27067  1.0000
  H   H68       1.0  0.22731  0.91923  0.25144  1.0000
  N   N18       1.0  0.09093  0.79291  0.27070  1.0000
  H   H69       1.0  0.07985  0.80789  0.25147  1.0000
  C   C64       1.0  0.32422  0.69375  0.43656  1.0000
  C   C65       1.0  0.35990  0.70187  0.43772  1.0000
  C   C66       1.0  0.36878  0.67485  0.43655  1.0000
  C   C67       1.0  0.34123  0.63918  0.43767  1.0000
  C   C68       1.0  0.30533  0.63029  0.43654  1.0000
  C   C69       1.0  0.29721  0.65785  0.43768  1.0000
  H   H70       1.0  0.34739  0.61940  0.43713  1.0000
  H   H71       1.0  0.27127  0.65169  0.43715  1.0000
  H   H72       1.0  0.37968  0.72780  0.43716  1.0000
  N   N19       1.0  0.31467  0.72045  0.43411  1.0000
  H   H73       1.0  0.33530  0.74472  0.45299  1.0000
  N   N20       1.0  0.27863  0.59404  0.43407  1.0000
  H   H74       1.0  0.25436  0.59040  0.45295  1.0000
  N   N21       1.0  0.40504  0.68440  0.43408  1.0000
  H   H75       1.0  0.40867  0.66378  0.45294  1.0000
  C   C70       1.0  0.25290  0.73320  0.41541  1.0000
  C   C71       1.0  0.23331  0.75124  0.41938  1.0000
  C   C72       1.0  0.24187  0.78024  0.36189  1.0000
  N   N22       1.0  0.20651  0.73967  0.47990  1.0000
  C   C73       1.0  0.19775  0.71228  0.53654  1.0000
  C   C74       1.0  0.21723  0.69457  0.53339  1.0000
  N   N23       1.0  0.24371  0.70568  0.47245  1.0000
  H   H76       1.0  0.17753  0.70507  0.58095  1.0000
  N   N24       1.0  0.20948  0.66640  0.59220  1.0000
  C   C75       1.0  0.23865  0.67365  0.65462  1.0000
  H   H77       1.0  0.20359  0.64433  0.55520  1.0000
  H   H78       1.0  0.26229  0.67767  0.61924  1.0000
  C   C76       1.0  0.22153  0.79939  0.36036  1.0000
  H   H79       1.0  0.23981  0.82698  0.37844  1.0000
  H   H80       1.0  0.20029  0.78877  0.40986  1.0000
  C   C77       1.0  0.26589  0.51952  0.41537  1.0000
  C   C78       1.0  0.24786  0.98190  0.41935  1.0000
  C   C79       1.0  0.21885  0.96145  0.36187  1.0000
  N   N25       1.0  0.25942  0.96666  0.47988  1.0000
  C   C80       1.0  0.28681  0.98530  0.53653  1.0000
  C   C81       1.0  0.30452  0.52249  0.53337  1.0000
  N   N26       1.0  0.29341  0.53786  0.47241  1.0000
  H   H81       1.0  0.29402  0.97228  0.58093  1.0000
  N   N27       1.0  0.33269  0.54291  0.59217  1.0000
  C   C82       1.0  0.32544  0.56484  0.65458  1.0000
  H   H82       1.0  0.35476  0.55909  0.55516  1.0000
  H   H83       1.0  0.32142  0.58446  0.61919  1.0000
  C   C83       1.0  0.19970  0.92196  0.36035  1.0000
  H   H84       1.0  0.17211  0.91266  0.37844  1.0000
  H   H85       1.0  0.21033  0.91134  0.40985  1.0000
  C   C84       1.0  0.47956  0.74618  0.41540  1.0000
  C   C85       1.0  0.01718  0.76577  0.41938  1.0000
  C   C86       1.0  0.03763  0.75721  0.36189  1.0000
  N   N28       1.0  0.03243  0.79257  0.47992  1.0000
  C   C87       1.0  0.01379  0.80132  0.53658  1.0000
  C   C88       1.0  0.47660  0.78184  0.53342  1.0000
  N   N29       1.0  0.46123  0.75537  0.47245  1.0000
  H   H86       1.0  0.02681  0.82154  0.58099  1.0000
  N   N30       1.0  0.45618  0.78959  0.59223  1.0000
  C   C89       1.0  0.43425  0.76041  0.65462  1.0000
  H   H87       1.0  0.44001  0.79549  0.55522  1.0000
  H   H88       1.0  0.41463  0.73678  0.61922  1.0000
  C   C90       1.0  0.07712  0.77754  0.36037  1.0000
  H   H89       1.0  0.08642  0.75926  0.37844  1.0000
  H   H90       1.0  0.08774  0.79878  0.40988  1.0000
  C   C91       1.0  0.78149  0.24407  0.35503  1.0000
  C   C92       1.0  0.77086  0.29129  0.30311  1.0000
  C   C93       1.0  0.79028  0.27351  0.29958  1.0000
  H   H91       1.0  0.81056  0.28192  0.25465  1.0000
  H   H92       1.0  0.77776  0.31221  0.26097  1.0000
  H   H93       1.0  0.74540  0.19709  0.02816  1.0000
  H   H94       1.0  0.73008  0.15114  0.03295  1.0000
  C   C94       1.0  0.80074  0.22402  0.34653  1.0000
  H   H95       1.0  0.82264  0.23648  0.29893  1.0000
  H   H96       1.0  0.78172  0.19800  0.31958  1.0000
  C   C95       1.0  0.75502  0.03724  0.35500  1.0000
  C   C96       1.0  0.70780  0.47939  0.30308  1.0000
  C   C97       1.0  0.72558  0.01658  0.29953  1.0000
  H   H97       1.0  0.71717  0.02845  0.25462  1.0000
  H   H98       1.0  0.68688  0.46536  0.26095  1.0000
  H   H99       1.0  0.80200  0.04814  0.02812  1.0000
  H   H100      1.0  0.84795  0.07878  0.03291  1.0000
  C   C98       1.0  0.77506  0.07654  0.34650  1.0000
  H   H101      1.0  0.76261  0.08598  0.29889  1.0000
  H   H102      1.0  0.80108  0.08354  0.31955  1.0000
  C   C99       1.0  0.96184  0.21760  0.35501  1.0000
  C   C100      1.0  0.51968  0.22823  0.30308  1.0000
  C   C101      1.0  0.98250  0.20882  0.29953  1.0000
  H   H103      1.0  0.97062  0.18854  0.25461  1.0000
  H   H104      1.0  0.53371  0.22133  0.26094  1.0000
  H   H105      1.0  0.95094  0.25366  0.02816  1.0000
  H   H106      1.0  0.92031  0.26898  0.03295  1.0000
  C   C102      1.0  0.92254  0.19835  0.34651  1.0000
  H   H107      1.0  0.91310  0.17646  0.29889  1.0000
  H   H108      1.0  0.91555  0.21738  0.31958  1.0000
  C   C103      1.0  0.68578  0.31499  0.26685  1.0000
  C   C104      1.0  0.64834  0.29581  0.26609  1.0000
  C   C105      1.0  0.62849  0.31331  0.26689  1.0000
  C   C106      1.0  0.64674  0.35074  0.26608  1.0000
  C   C107      1.0  0.68409  0.37059  0.26686  1.0000
  C   C108      1.0  0.70328  0.35234  0.26600  1.0000
  H   H109      1.0  0.63265  0.36374  0.26731  1.0000
  H   H110      1.0  0.73036  0.36643  0.26728  1.0000
  H   H111      1.0  0.63534  0.26872  0.26731  1.0000
  N   N31       1.0  0.70617  0.29782  0.27068  1.0000
  H   H112      1.0  0.69120  0.27178  0.25145  1.0000
  N   N32       1.0  0.70126  0.40816  0.27067  1.0000
  H   H113      1.0  0.72731  0.41923  0.25144  1.0000
  N   N33       1.0  0.59092  0.29291  0.27070  1.0000
  H   H114      1.0  0.57985  0.30789  0.25147  1.0000
  C   C109      1.0  0.82422  0.19375  0.43656  1.0000
  C   C110      1.0  0.85990  0.20187  0.43772  1.0000
  C   C111      1.0  0.86879  0.17485  0.43655  1.0000
  C   C112      1.0  0.84123  0.13918  0.43767  1.0000
  C   C113      1.0  0.80533  0.13029  0.43654  1.0000
  C   C114      1.0  0.79721  0.15785  0.43768  1.0000
  H   H115      1.0  0.84739  0.11940  0.43713  1.0000
  H   H116      1.0  0.77128  0.15169  0.43715  1.0000
  H   H117      1.0  0.87968  0.22780  0.43716  1.0000
  N   N34       1.0  0.81468  0.22045  0.43411  1.0000
  H   H118      1.0  0.83530  0.24471  0.45299  1.0000
  N   N35       1.0  0.77863  0.09404  0.43407  1.0000
  H   H119      1.0  0.75436  0.09040  0.45295  1.0000
  N   N36       1.0  0.90504  0.18440  0.43408  1.0000
  H   H120      1.0  0.90868  0.16378  0.45294  1.0000
  C   C115      1.0  0.75290  0.23320  0.41541  1.0000
  C   C116      1.0  0.73331  0.25123  0.41938  1.0000
  C   C117      1.0  0.74187  0.28024  0.36189  1.0000
  N   N37       1.0  0.70651  0.23967  0.47990  1.0000
  C   C118      1.0  0.69775  0.21228  0.53654  1.0000
  C   C119      1.0  0.71723  0.19457  0.53339  1.0000
  N   N38       1.0  0.74371  0.20568  0.47245  1.0000
  H   H121      1.0  0.67752  0.20507  0.58095  1.0000
  N   N39       1.0  0.70948  0.16640  0.59220  1.0000
  C   C120      1.0  0.73865  0.17364  0.65462  1.0000
  H   H122      1.0  0.70359  0.14433  0.55520  1.0000
  H   H123      1.0  0.76229  0.17767  0.61924  1.0000
  C   C121      1.0  0.72153  0.29939  0.36036  1.0000
  H   H124      1.0  0.73981  0.32698  0.37844  1.0000
  H   H125      1.0  0.70029  0.28876  0.40986  1.0000
  C   C122      1.0  0.76590  0.01952  0.41537  1.0000
  C   C123      1.0  0.74786  0.48190  0.41935  1.0000
  C   C124      1.0  0.71885  0.46145  0.36187  1.0000
  N   N40       1.0  0.75942  0.46666  0.47988  1.0000
  C   C125      1.0  0.78681  0.48530  0.53653  1.0000
  C   C126      1.0  0.80452  0.02249  0.53337  1.0000
  N   N41       1.0  0.79341  0.03786  0.47241  1.0000
  H   H126      1.0  0.79402  0.47228  0.58093  1.0000
  N   N42       1.0  0.83269  0.04291  0.59217  1.0000
  C   C127      1.0  0.82545  0.06484  0.65458  1.0000
  H   H127      1.0  0.85476  0.05909  0.55516  1.0000
  H   H128      1.0  0.82142  0.08446  0.61919  1.0000
  C   C128      1.0  0.69970  0.42196  0.36035  1.0000
  H   H129      1.0  0.67211  0.41265  0.37844  1.0000
  H   H130      1.0  0.71033  0.41134  0.40985  1.0000
  C   C129      1.0  0.97956  0.24618  0.41540  1.0000
  C   C130      1.0  0.51719  0.26577  0.41938  1.0000
  C   C131      1.0  0.53763  0.25721  0.36189  1.0000
  N   N43       1.0  0.53243  0.29256  0.47992  1.0000
  C   C132      1.0  0.51379  0.30132  0.53658  1.0000
  C   C133      1.0  0.97660  0.28184  0.53342  1.0000
  N   N44       1.0  0.96123  0.25537  0.47245  1.0000
  H   H131      1.0  0.52681  0.32154  0.58099  1.0000
  N   N45       1.0  0.95618  0.28958  0.59223  1.0000
  C   C134      1.0  0.93425  0.26041  0.65462  1.0000
  H   H132      1.0  0.94001  0.29548  0.55522  1.0000
  H   H133      1.0  0.91463  0.23678  0.61922  1.0000
  C   C135      1.0  0.57712  0.27754  0.36037  1.0000
  H   H134      1.0  0.58642  0.25926  0.37844  1.0000
  H   H135      1.0  0.58774  0.29878  0.40988  1.0000
  C   C136      1.0  0.78149  0.74407  0.35503  1.0000
  C   C137      1.0  0.77086  0.79129  0.30311  1.0000
  C   C138      1.0  0.79028  0.77351  0.29958  1.0000
  H   H136      1.0  0.81056  0.78192  0.25465  1.0000
  H   H137      1.0  0.77776  0.81221  0.26097  1.0000
  H   H138      1.0  0.74539  0.69709  0.02816  1.0000
  H   H139      1.0  0.73008  0.65114  0.03295  1.0000
  C   C139      1.0  0.80074  0.72402  0.34653  1.0000
  H   H140      1.0  0.82264  0.73648  0.29893  1.0000
  H   H141      1.0  0.78172  0.69800  0.31958  1.0000
  C   C140      1.0  0.75502  0.53724  0.35500  1.0000
  C   C141      1.0  0.70781  0.97939  0.30308  1.0000
  C   C142      1.0  0.72558  0.51658  0.29953  1.0000
  H   H142      1.0  0.71717  0.52846  0.25462  1.0000
  H   H143      1.0  0.68688  0.96537  0.26095  1.0000
  H   H144      1.0  0.80200  0.54814  0.02812  1.0000
  H   H145      1.0  0.84795  0.57878  0.03291  1.0000
  C   C143      1.0  0.77506  0.57654  0.34650  1.0000
  H   H146      1.0  0.76261  0.58598  0.29889  1.0000
  H   H147      1.0  0.80109  0.58354  0.31955  1.0000
  C   C144      1.0  0.96184  0.71760  0.35501  1.0000
  C   C145      1.0  0.51968  0.72823  0.30308  1.0000
  C   C146      1.0  0.98250  0.70882  0.29953  1.0000
  H   H148      1.0  0.97062  0.68854  0.25461  1.0000
  H   H149      1.0  0.53371  0.72133  0.26094  1.0000
  H   H150      1.0  0.95094  0.75366  0.02816  1.0000
  H   H151      1.0  0.92031  0.76898  0.03295  1.0000
  C   C147      1.0  0.92254  0.69835  0.34651  1.0000
  H   H152      1.0  0.91310  0.67646  0.29889  1.0000
  H   H153      1.0  0.91555  0.71738  0.31958  1.0000
  C   C148      1.0  0.68578  0.81500  0.26685  1.0000
  C   C149      1.0  0.64834  0.79581  0.26609  1.0000
  C   C150      1.0  0.62849  0.81331  0.26689  1.0000
  C   C151      1.0  0.64674  0.85074  0.26608  1.0000
  C   C152      1.0  0.68409  0.87059  0.26686  1.0000
  C   C153      1.0  0.70328  0.85234  0.26600  1.0000
  H   H154      1.0  0.63265  0.86374  0.26731  1.0000
  H   H155      1.0  0.73036  0.86643  0.26728  1.0000
  H   H156      1.0  0.63534  0.76872  0.26731  1.0000
  N   N46       1.0  0.70617  0.79783  0.27068  1.0000
  H   H157      1.0  0.69120  0.77178  0.25145  1.0000
  N   N47       1.0  0.70126  0.90816  0.27067  1.0000
  H   H158      1.0  0.72731  0.91923  0.25144  1.0000
  N   N48       1.0  0.59092  0.79291  0.27070  1.0000
  H   H159      1.0  0.57986  0.80789  0.25147  1.0000
  C   C154      1.0  0.82422  0.69375  0.43656  1.0000
  C   C155      1.0  0.85990  0.70187  0.43772  1.0000
  C   C156      1.0  0.86878  0.67485  0.43655  1.0000
  C   C157      1.0  0.84123  0.63918  0.43767  1.0000
  C   C158      1.0  0.80533  0.63029  0.43654  1.0000
  C   C159      1.0  0.79721  0.65785  0.43768  1.0000
  H   H160      1.0  0.84739  0.61940  0.43713  1.0000
  H   H161      1.0  0.77128  0.65169  0.43715  1.0000
  H   H162      1.0  0.87968  0.72780  0.43716  1.0000
  N   N49       1.0  0.81468  0.72045  0.43411  1.0000
  H   H163      1.0  0.83531  0.74472  0.45299  1.0000
  N   N50       1.0  0.77863  0.59404  0.43407  1.0000
  H   H164      1.0  0.75436  0.59040  0.45295  1.0000
  N   N51       1.0  0.90504  0.68440  0.43408  1.0000
  H   H165      1.0  0.90867  0.66378  0.45294  1.0000
  C   C160      1.0  0.75290  0.73320  0.41541  1.0000
  C   C161      1.0  0.73331  0.75124  0.41938  1.0000
  C   C162      1.0  0.74187  0.78024  0.36189  1.0000
  N   N52       1.0  0.70651  0.73967  0.47990  1.0000
  C   C163      1.0  0.69775  0.71228  0.53654  1.0000
  C   C164      1.0  0.71723  0.69457  0.53339  1.0000
  N   N53       1.0  0.74371  0.70568  0.47245  1.0000
  H   H166      1.0  0.67753  0.70507  0.58095  1.0000
  N   N54       1.0  0.70948  0.66640  0.59220  1.0000
  C   C165      1.0  0.73865  0.67365  0.65462  1.0000
  H   H167      1.0  0.70359  0.64433  0.55520  1.0000
  H   H168      1.0  0.76229  0.67767  0.61924  1.0000
  C   C166      1.0  0.72153  0.79939  0.36036  1.0000
  H   H169      1.0  0.73981  0.82698  0.37844  1.0000
  H   H170      1.0  0.70029  0.78877  0.40986  1.0000
  C   C167      1.0  0.76589  0.51952  0.41537  1.0000
  C   C168      1.0  0.74786  0.98190  0.41935  1.0000
  C   C169      1.0  0.71885  0.96145  0.36187  1.0000
  N   N55       1.0  0.75942  0.96666  0.47988  1.0000
  C   C170      1.0  0.78681  0.98530  0.53653  1.0000
  C   C171      1.0  0.80452  0.52249  0.53337  1.0000
  N   N56       1.0  0.79341  0.53786  0.47241  1.0000
  H   H171      1.0  0.79402  0.97228  0.58093  1.0000
  N   N57       1.0  0.83269  0.54291  0.59217  1.0000
  C   C172      1.0  0.82545  0.56484  0.65458  1.0000
  H   H172      1.0  0.85476  0.55909  0.55516  1.0000
  H   H173      1.0  0.82142  0.58446  0.61919  1.0000
  C   C173      1.0  0.69970  0.92196  0.36035  1.0000
  H   H174      1.0  0.67212  0.91266  0.37844  1.0000
  H   H175      1.0  0.71032  0.91134  0.40985  1.0000
  C   C174      1.0  0.97956  0.74618  0.41540  1.0000
  C   C175      1.0  0.51719  0.76577  0.41938  1.0000
  C   C176      1.0  0.53763  0.75721  0.36189  1.0000
  N   N58       1.0  0.53243  0.79257  0.47992  1.0000
  C   C177      1.0  0.51379  0.80132  0.53658  1.0000
  C   C178      1.0  0.97660  0.78184  0.53342  1.0000
  N   N59       1.0  0.96123  0.75537  0.47245  1.0000
  H   H176      1.0  0.52681  0.82154  0.58099  1.0000
  N   N60       1.0  0.95618  0.78959  0.59223  1.0000
  C   C179      1.0  0.93425  0.76041  0.65462  1.0000
  H   H177      1.0  0.94001  0.79549  0.55522  1.0000
  H   H178      1.0  0.91463  0.73678  0.61922  1.0000
  C   C180      1.0  0.57712  0.77754  0.36037  1.0000
  H   H179      1.0  0.58642  0.75926  0.37844  1.0000
  H   H180      1.0  0.58774  0.79878  0.40988  1.0000
