data_image0
_chemical_formula_structural       C7H4CNCH2CHC7H4CNCH2CHC3HCH3NC3HCH3NC3HCH3NC11H6NCNC2H2C11H6NCNC2H2C3HCH3NC3HCH3NC3HCH3N
_chemical_formula_sum              "C72 H54 N12"
_cell_length_a       37.0567
_cell_length_b       37.0566
_cell_length_c       14.5341
_cell_angle_alpha    90
_cell_angle_beta     90
_cell_angle_gamma    120

_space_group_name_H-M_alt    "P 1"
_space_group_IT_number       1

loop_
  _space_group_symop_operation_xyz
  'x, y, z'

loop_
  _atom_site_type_symbol
  _atom_site_label
  _atom_site_symmetry_multiplicity
  _atom_site_fract_x
  _atom_site_fract_y
  _atom_site_fract_z
  _atom_site_occupancy
  C   C1        1.0  0.40741  0.64516  0.36063  1.0000
  C   C2        1.0  0.39491  0.77026  0.36061  1.0000
  C   C3        1.0  0.45892  0.60743  0.37676  1.0000
  C   C4        1.0  0.47646  0.65122  0.37720  1.0000
  C   C5        1.0  0.45133  0.66963  0.36880  1.0000
  C   C6        1.0  0.43883  0.79678  0.35910  1.0000
  C   C7        1.0  0.45736  0.84048  0.36685  1.0000
  H   H1        1.0  0.46573  0.70145  0.37079  1.0000
  H   H2        1.0  0.50796  0.67036  0.38475  1.0000
  H   H3        1.0  0.45807  0.78450  0.35380  1.0000
  H   H4        1.0  0.48918  0.85822  0.36774  1.0000
  C   C8        1.0  0.37585  0.72573  0.35695  1.0000
  N   N1        1.0  0.39895  0.70645  0.35727  1.0000
  C   C9        1.0  0.38194  0.66423  0.35695  1.0000
  H   H5        1.0  0.25559  0.68160  0.35384  1.0000
  H   H6        1.0  0.18187  0.63900  0.36778  1.0000
  C   C10       1.0  0.48455  0.59040  0.39127  1.0000
  H   H7        1.0  0.50964  0.60629  0.43064  1.0000
  C   C11       1.0  0.63953  0.38566  0.36799  1.0000
  C   C12       1.0  0.65441  0.26190  0.36799  1.0000
  C   C13       1.0  0.58661  0.42231  0.37021  1.0000
  C   C14       1.0  0.56971  0.37857  0.36942  1.0000
  C   C15       1.0  0.59550  0.36070  0.36824  1.0000
  C   C16       1.0  0.61059  0.23495  0.36856  1.0000
  C   C17       1.0  0.59264  0.19120  0.36963  1.0000
  H   H8        1.0  0.58142  0.32890  0.36787  1.0000
  H   H9        1.0  0.53809  0.35897  0.36977  1.0000
  H   H10       1.0  0.59097  0.24689  0.36857  1.0000
  H   H11       1.0  0.56085  0.17323  0.37067  1.0000
  C   C18       1.0  0.67285  0.30639  0.36760  1.0000
  N   N2        1.0  0.64919  0.32508  0.36763  1.0000
  C   C19       1.0  0.66559  0.36722  0.36760  1.0000
  H   H12       1.0  0.79318  0.35209  0.36858  1.0000
  H   H13       1.0  0.86684  0.39563  0.37068  1.0000
  C   C20       1.0  0.55987  0.43878  0.37274  1.0000
  H   H14       1.0  0.52968  0.41940  0.38462  1.0000
  C   C21       1.0  0.50115  0.53738  0.35763  1.0000
  C   C22       1.0  0.50354  0.51640  0.27907  1.0000
  C   C23       1.0  0.52725  0.49600  0.27839  1.0000
  H   H15       1.0  0.48838  0.51685  0.22052  1.0000
  C   C24       1.0  0.53002  0.47573  0.19234  1.0000
  H   H16       1.0  0.51305  0.47949  0.13517  1.0000
  H   H17       1.0  0.51703  0.44241  0.20389  1.0000
  H   H18       1.0  0.56257  0.48932  0.17164  1.0000
  N   N3        1.0  0.47882  0.55671  0.35221  1.0000
  C   C25       1.0  0.50269  0.97179  0.35763  1.0000
  C   C26       1.0  0.52363  0.99516  0.27905  1.0000
  C   C27       1.0  0.54404  0.03927  0.27837  1.0000
  H   H19       1.0  0.52317  0.97955  0.22048  1.0000
  C   C28       1.0  0.56427  0.06230  0.19230  1.0000
  H   H20       1.0  0.56049  0.04157  0.13511  1.0000
  H   H21       1.0  0.59760  0.08263  0.20380  1.0000
  H   H22       1.0  0.55068  0.08127  0.17165  1.0000
  N   N4        1.0  0.48335  0.93013  0.35219  1.0000
  C   C29       1.0  0.06828  0.53890  0.35759  1.0000
  C   C30       1.0  0.04491  0.53646  0.27901  1.0000
  C   C31       1.0  0.00080  0.51277  0.27835  1.0000
  H   H23       1.0  0.06051  0.55162  0.22044  1.0000
  C   C32       1.0  0.97776  0.50998  0.19229  1.0000
  H   H24       1.0  0.99849  0.52692  0.13509  1.0000
  H   H25       1.0  0.95744  0.52299  0.20380  1.0000
  H   H26       1.0  0.95878  0.47743  0.17165  1.0000
  N   N5        1.0  0.10995  0.56123  0.35214  1.0000
  C   C33       1.0  0.26982  0.63267  0.36057  1.0000
  C   C34       1.0  0.24330  0.65007  0.35912  1.0000
  C   C35       1.0  0.19960  0.62491  0.36686  1.0000
  C   C36       1.0  0.18057  0.58117  0.37671  1.0000
  C   C37       1.0  0.20682  0.56362  0.37715  1.0000
  C   C38       1.0  0.25036  0.58875  0.36870  1.0000
  C   C39       1.0  0.39002  0.60125  0.35914  1.0000
  C   C40       1.0  0.41518  0.58272  0.36689  1.0000
  C   C41       1.0  0.43265  0.85950  0.37680  1.0000
  C   C42       1.0  0.38886  0.83325  0.37726  1.0000
  C   C43       1.0  0.37045  0.78971  0.36879  1.0000
  H   H27       1.0  0.19445  0.53212  0.38469  1.0000
  H   H28       1.0  0.26777  0.57435  0.37071  1.0000
  H   H29       1.0  0.35849  0.58201  0.35378  1.0000
  H   H30       1.0  0.40110  0.55089  0.36771  1.0000
  H   H31       1.0  0.36972  0.84561  0.38483  1.0000
  H   H32       1.0  0.33863  0.77229  0.37085  1.0000
  N   N6        1.0  0.33955  0.64112  0.35725  1.0000
  C   C44       1.0  0.31435  0.65813  0.35693  1.0000
  N   N7        1.0  0.33363  0.70052  0.35725  1.0000
  C   C45       1.0  0.44968  0.90215  0.39133  1.0000
  C   C46       1.0  0.13793  0.55556  0.39133  1.0000
  H   H33       1.0  0.12874  0.53051  0.43084  1.0000
  H   H34       1.0  0.43383  0.91135  0.43084  1.0000
  C   C47       1.0  0.77817  0.40053  0.36800  1.0000
  C   C48       1.0  0.80512  0.38366  0.36857  1.0000
  C   C49       1.0  0.84887  0.40946  0.36964  1.0000
  C   C50       1.0  0.86776  0.45346  0.37020  1.0000
  C   C51       1.0  0.84091  0.47036  0.36943  1.0000
  C   C52       1.0  0.79725  0.44457  0.36827  1.0000
  C   C53       1.0  0.65641  0.42948  0.36858  1.0000
  C   C54       1.0  0.63060  0.44742  0.36966  1.0000
  C   C55       1.0  0.61775  0.17231  0.37019  1.0000
  C   C56       1.0  0.66150  0.19916  0.36941  1.0000
  C   C57       1.0  0.67936  0.24282  0.36824  1.0000
  H   H35       1.0  0.85293  0.50198  0.36979  1.0000
  H   H36       1.0  0.77952  0.45865  0.36791  1.0000
  H   H37       1.0  0.68798  0.44910  0.36862  1.0000
  H   H38       1.0  0.64443  0.47922  0.37075  1.0000
  H   H39       1.0  0.68110  0.18714  0.36975  1.0000
  H   H40       1.0  0.71117  0.26055  0.36787  1.0000
  N   N8        1.0  0.70794  0.39088  0.36764  1.0000
  C   C58       1.0  0.73368  0.37448  0.36760  1.0000
  N   N9        1.0  0.71499  0.33213  0.36764  1.0000
  C   C59       1.0  0.60129  0.12911  0.37267  1.0000
  C   C60       1.0  0.91096  0.48019  0.37268  1.0000
  H   H41       1.0  0.92178  0.51040  0.38448  1.0000
  H   H42       1.0  0.62068  0.11830  0.38447  1.0000
  C   C61       1.0  0.54842  0.49564  0.35988  1.0000
  C   C62       1.0  0.54611  0.51640  0.44021  1.0000
  C   C63       1.0  0.52225  0.53660  0.43790  1.0000
  H   H43       1.0  0.52024  0.55114  0.49596  1.0000
  C   C64       1.0  0.56773  0.51825  0.52794  1.0000
  H   H44       1.0  0.58573  0.50236  0.52443  1.0000
  H   H45       1.0  0.54481  0.50379  0.58294  1.0000
  H   H46       1.0  0.58910  0.55072  0.54616  1.0000
  N   N10       1.0  0.57197  0.47759  0.35947  1.0000
  C   C65       1.0  0.54442  0.06080  0.35988  1.0000
  C   C66       1.0  0.52369  0.03774  0.44023  1.0000
  C   C67       1.0  0.50348  0.99367  0.43792  1.0000
  H   H47       1.0  0.48896  0.97711  0.49599  1.0000
  C   C68       1.0  0.52186  0.05750  0.52797  1.0000
  H   H48       1.0  0.53775  0.09139  0.52447  1.0000
  H   H49       1.0  0.53633  0.04904  0.58295  1.0000
  H   H50       1.0  0.48939  0.04641  0.54625  1.0000
  N   N11       1.0  0.56247  0.10240  0.35948  1.0000
  C   C69       1.0  0.97927  0.49163  0.35987  1.0000
  C   C70       1.0  0.00234  0.49396  0.44021  1.0000
  C   C71       1.0  0.04641  0.51782  0.43789  1.0000
  H   H51       1.0  0.06297  0.51986  0.49596  1.0000
  C   C72       1.0  0.98258  0.47239  0.52797  1.0000
  H   H52       1.0  0.94868  0.45438  0.52448  1.0000
  H   H53       1.0  0.99105  0.49532  0.58293  1.0000
  H   H54       1.0  0.99367  0.45101  0.54625  1.0000
  N   N12       1.0  0.93767  0.46809  0.35948  1.0000
