data_image0
_chemical_formula_structural       C30H17NHNHNHC30H17NHNHNHC3H2CH3CH4CH2C3H2CH3CH4CH2C3H2CH3CH4CH10C3NC2NCH2CHCH2C3NC2NCH2CHCH2C3NC2NCH2CHCH2
_chemical_formula_sum              "C102 H96 N12"
_cell_length_a       44.9715
_cell_length_b       44.9714
_cell_length_c       14.9952
_cell_angle_alpha    90
_cell_angle_beta     90
_cell_angle_gamma    120

_space_group_name_H-M_alt    "P 1"
_space_group_IT_number       1

loop_
  _space_group_symop_operation_xyz
  'x, y, z'

loop_
  _atom_site_type_symbol
  _atom_site_label
  _atom_site_symmetry_multiplicity
  _atom_site_fract_x
  _atom_site_fract_y
  _atom_site_fract_z
  _atom_site_occupancy
  C   C1        1.0  0.13243  0.56945  0.35150  1.0000
  C   C2        1.0  0.14886  0.59004  0.27607  1.0000
  C   C3        1.0  0.18428  0.60357  0.26238  1.0000
  C   C4        1.0  0.20393  0.59693  0.32429  1.0000
  C   C5        1.0  0.18737  0.57593  0.39905  1.0000
  C   C6        1.0  0.15197  0.56249  0.41266  1.0000
  C   C7        1.0  0.23899  0.61135  0.31255  1.0000
  C   C8        1.0  0.26186  0.63589  0.36699  1.0000
  C   C9        1.0  0.29717  0.65094  0.35774  1.0000
  C   C10       1.0  0.31330  0.63083  0.35839  1.0000
  C   C11       1.0  0.34946  0.64632  0.35793  1.0000
  C   C12       1.0  0.36958  0.68256  0.35851  1.0000
  C   C13       1.0  0.35409  0.70323  0.35791  1.0000
  C   C14       1.0  0.31785  0.68711  0.35834  1.0000
  C   C15       1.0  0.37434  0.73854  0.36719  1.0000
  C   C16       1.0  0.37272  0.76141  0.31262  1.0000
  C   C17       1.0  0.39335  0.79647  0.32434  1.0000
  C   C18       1.0  0.38896  0.81303  0.39918  1.0000
  C   C19       1.0  0.41962  0.81612  0.26237  1.0000
  C   C20       1.0  0.44151  0.85155  0.27601  1.0000
  C   C21       1.0  0.43738  0.86798  0.35150  1.0000
  C   C22       1.0  0.41091  0.84844  0.41273  1.0000
  C   C23       1.0  0.36451  0.62606  0.36721  1.0000
  C   C24       1.0  0.38903  0.62771  0.31270  1.0000
  C   C25       1.0  0.40344  0.60706  0.32443  1.0000
  C   C26       1.0  0.39682  0.58079  0.26246  1.0000
  C   C27       1.0  0.42440  0.61146  0.39925  1.0000
  C   C28       1.0  0.43784  0.58949  0.41281  1.0000
  C   C29       1.0  0.43090  0.56302  0.35159  1.0000
  C   C30       1.0  0.41035  0.55889  0.27611  1.0000
  H   H1        1.0  0.13517  0.59579  0.23178  1.0000
  H   H2        1.0  0.19570  0.61893  0.20808  1.0000
  H   H3        1.0  0.30640  0.70189  0.36196  1.0000
  H   H4        1.0  0.29852  0.60460  0.36199  1.0000
  H   H5        1.0  0.39581  0.69401  0.36217  1.0000
  H   H6        1.0  0.38149  0.57688  0.20812  1.0000
  H   H7        1.0  0.37009  0.79937  0.44504  1.0000
  H   H8        1.0  0.46093  0.86523  0.23169  1.0000
  H   H9        1.0  0.42354  0.80471  0.20802  1.0000
  H   H10       1.0  0.40461  0.53948  0.23179  1.0000
  H   H11       1.0  0.42963  0.63033  0.44510  1.0000
  H   H12       1.0  0.35676  0.75331  0.26080  1.0000
  H   H13       1.0  0.39119  0.74710  0.41718  1.0000
  H   H14       1.0  0.24709  0.60344  0.26083  1.0000
  H   H15       1.0  0.25330  0.64424  0.41688  1.0000
  H   H16       1.0  0.39692  0.64370  0.26096  1.0000
  H   H17       1.0  0.35618  0.60918  0.41712  1.0000
  N   N1        1.0  0.45970  0.90315  0.37008  1.0000
  H   H18       1.0  0.48451  0.90778  0.37058  1.0000
  N   N2        1.0  0.09726  0.55659  0.37012  1.0000
  H   H19       1.0  0.09264  0.57678  0.37070  1.0000
  N   N3        1.0  0.44377  0.54070  0.37015  1.0000
  H   H20       1.0  0.42358  0.51589  0.37066  1.0000
  C   C31       1.0  0.86717  0.41827  0.32921  1.0000
  C   C32       1.0  0.84771  0.39631  0.39981  1.0000
  C   C33       1.0  0.81229  0.38436  0.40652  1.0000
  C   C34       1.0  0.79562  0.39382  0.34203  1.0000
  C   C35       1.0  0.81515  0.41590  0.27163  1.0000
  C   C36       1.0  0.85059  0.42790  0.26525  1.0000
  C   C37       1.0  0.76071  0.38166  0.34845  1.0000
  C   C38       1.0  0.73811  0.36005  0.28816  1.0000
  C   C39       1.0  0.70301  0.34713  0.29411  1.0000
  C   C40       1.0  0.68915  0.36926  0.29350  1.0000
  C   C41       1.0  0.65328  0.35598  0.29407  1.0000
  C   C42       1.0  0.63114  0.31999  0.29349  1.0000
  C   C43       1.0  0.64442  0.29739  0.29406  1.0000
  C   C44       1.0  0.68041  0.31125  0.29352  1.0000
  C   C45       1.0  0.62226  0.26229  0.28808  1.0000
  C   C46       1.0  0.62125  0.23969  0.34840  1.0000
  C   C47       1.0  0.59849  0.20478  0.34199  1.0000
  C   C48       1.0  0.60104  0.18525  0.27157  1.0000
  C   C49       1.0  0.57237  0.18812  0.40648  1.0000
  C   C50       1.0  0.54890  0.15269  0.39979  1.0000
  C   C51       1.0  0.55140  0.13323  0.32919  1.0000
  C   C52       1.0  0.57760  0.14981  0.26521  1.0000
  C   C53       1.0  0.64034  0.37815  0.28810  1.0000
  C   C54       1.0  0.61874  0.37914  0.34838  1.0000
  C   C55       1.0  0.60659  0.40190  0.34196  1.0000
  C   C56       1.0  0.61604  0.42802  0.40645  1.0000
  C   C57       1.0  0.58451  0.39935  0.27155  1.0000
  C   C58       1.0  0.57251  0.42279  0.26518  1.0000
  C   C59       1.0  0.58213  0.44900  0.32914  1.0000
  C   C60       1.0  0.60409  0.45150  0.39974  1.0000
  H   H21       1.0  0.85925  0.38877  0.44626  1.0000
  H   H22       1.0  0.79873  0.36832  0.45802  1.0000
  H   H23       1.0  0.69025  0.29502  0.29114  1.0000
  H   H24       1.0  0.70538  0.39532  0.29115  1.0000
  H   H25       1.0  0.60508  0.31015  0.29108  1.0000
  H   H26       1.0  0.63207  0.43050  0.45798  1.0000
  H   H27       1.0  0.61985  0.19666  0.22425  1.0000
  H   H28       1.0  0.52983  0.14115  0.44627  1.0000
  H   H29       1.0  0.56990  0.20167  0.45801  1.0000
  H   H30       1.0  0.61162  0.47057  0.44621  1.0000
  H   H31       1.0  0.57710  0.38053  0.22424  1.0000
  H   H32       1.0  0.63667  0.24804  0.40130  1.0000
  H   H33       1.0  0.60587  0.25383  0.23707  1.0000
  H   H34       1.0  0.75236  0.38873  0.40134  1.0000
  H   H35       1.0  0.74657  0.35214  0.23713  1.0000
  H   H36       1.0  0.61167  0.36373  0.40129  1.0000
  H   H37       1.0  0.64826  0.39452  0.23707  1.0000
  N   N4        1.0  0.52813  0.09769  0.31897  1.0000
  H   H38       1.0  0.50364  0.09385  0.31512  1.0000
  N   N5        1.0  0.90271  0.43054  0.31897  1.0000
  H   H39       1.0  0.90654  0.40988  0.31510  1.0000
  N   N6        1.0  0.56986  0.47226  0.31893  1.0000
  H   H40       1.0  0.59051  0.49675  0.31506  1.0000
  C   C61       1.0  0.48928  0.52450  0.33488  1.0000
  C   C62       1.0  0.51226  0.52387  0.27152  1.0000
  C   C63       1.0  0.53053  0.50665  0.28830  1.0000
  H   H41       1.0  0.54640  0.50678  0.23942  1.0000
  H   H42       1.0  0.51580  0.53595  0.21133  1.0000
  C   C64       1.0  0.45582  0.52128  0.03728  1.0000
  H   H43       1.0  0.47057  0.51331  0.07862  1.0000
  H   H44       1.0  0.43703  0.52311  0.07950  1.0000
  H   H45       1.0  0.47319  0.54664  0.00975  1.0000
  C   C65       1.0  0.51267  0.47170  0.04680  1.0000
  H   H46       1.0  0.45868  0.45456  0.04419  1.0000
  H   H47       1.0  0.52136  0.49834  0.06477  1.0000
  H   H48       1.0  0.53215  0.47092  0.00501  1.0000
  H   H49       1.0  0.50991  0.45723  0.10769  1.0000
  C   C66       1.0  0.47114  0.54352  0.30932  1.0000
  H   H50       1.0  0.45968  0.53452  0.24342  1.0000
  H   H51       1.0  0.49077  0.57063  0.30318  1.0000
  C   C67       1.0  0.47589  0.96487  0.33485  1.0000
  C   C68       1.0  0.47653  0.98849  0.27151  1.0000
  C   C69       1.0  0.49374  0.02397  0.28831  1.0000
  H   H52       1.0  0.49362  0.03973  0.23943  1.0000
  H   H53       1.0  0.46445  0.97996  0.21131  1.0000
  C   C70       1.0  0.47910  0.93461  0.03723  1.0000
  H   H54       1.0  0.48707  0.95732  0.07859  1.0000
  H   H55       1.0  0.47727  0.91399  0.07945  1.0000
  H   H56       1.0  0.45374  0.92662  0.00969  1.0000
  C   C71       1.0  0.52868  0.04104  0.04681  1.0000
  H   H57       1.0  0.54582  0.00418  0.04418  1.0000
  H   H58       1.0  0.50204  0.02309  0.06477  1.0000
  H   H59       1.0  0.52947  0.06130  0.00503  1.0000
  H   H60       1.0  0.54315  0.05274  0.10771  1.0000
  C   C72       1.0  0.45688  0.92772  0.30927  1.0000
  H   H61       1.0  0.46588  0.92526  0.24336  1.0000
  H   H62       1.0  0.42977  0.92024  0.30314  1.0000
  C   C73       1.0  0.03553  0.51110  0.33485  1.0000
  C   C74       1.0  0.01191  0.48812  0.27151  1.0000
  C   C75       1.0  0.97643  0.46986  0.28832  1.0000
  H   H63       1.0  0.96067  0.45398  0.23943  1.0000
  H   H64       1.0  0.02044  0.48458  0.21131  1.0000
  C   C76       1.0  0.06580  0.54456  0.03724  1.0000
  H   H65       1.0  0.04308  0.52982  0.07860  1.0000
  H   H66       1.0  0.08642  0.56334  0.07946  1.0000
  H   H67       1.0  0.07379  0.52719  0.00970  1.0000
  C   C77       1.0  0.95937  0.48773  0.04682  1.0000
  H   H68       1.0  0.99623  0.54171  0.04420  1.0000
  H   H69       1.0  0.97731  0.47903  0.06477  1.0000
  H   H70       1.0  0.93910  0.46825  0.00503  1.0000
  H   H71       1.0  0.94767  0.49049  0.10772  1.0000
  C   C78       1.0  0.07268  0.52924  0.30926  1.0000
  H   H72       1.0  0.07514  0.54072  0.24339  1.0000
  H   H73       1.0  0.08015  0.50961  0.30306  1.0000
  H   H74       1.0  0.14051  0.54779  0.46785  1.0000
  H   H75       1.0  0.20103  0.57071  0.44489  1.0000
  H   H76       1.0  0.40769  0.85989  0.46797  1.0000
  H   H77       1.0  0.45253  0.59272  0.46803  1.0000
  H   H78       1.0  0.86428  0.44372  0.21361  1.0000
  H   H79       1.0  0.80374  0.42331  0.22432  1.0000
  H   H80       1.0  0.57972  0.13612  0.21357  1.0000
  H   H81       1.0  0.55669  0.42067  0.21354  1.0000
  C   C79       1.0  0.52699  0.48954  0.37006  1.0000
  C   C80       1.0  0.50449  0.49049  0.43474  1.0000
  C   C81       1.0  0.48594  0.50781  0.41776  1.0000
  N   N7        1.0  0.46542  0.50766  0.48435  1.0000
  C   C82       1.0  0.46097  0.49233  0.56521  1.0000
  C   C83       1.0  0.47948  0.47495  0.58181  1.0000
  N   N8        1.0  0.50007  0.47499  0.51536  1.0000
  C   C84       1.0  0.43705  0.49522  0.62823  1.0000
  H   H82       1.0  0.41925  0.47005  0.65616  1.0000
  H   H83       1.0  0.42142  0.50372  0.59235  1.0000
  C   C85       1.0  0.47785  0.45581  0.66420  1.0000
  H   H84       1.0  0.47007  0.42937  0.64590  1.0000
  C   C86       1.0  0.54564  0.47051  0.38912  1.0000
  H   H85       1.0  0.55987  0.48035  0.45155  1.0000
  H   H86       1.0  0.52614  0.44358  0.39947  1.0000
  C   C87       1.0  0.51085  0.03755  0.37007  1.0000
  C   C88       1.0  0.50990  0.01409  0.43474  1.0000
  C   C89       1.0  0.49258  0.97822  0.41774  1.0000
  N   N9        1.0  0.49273  0.95784  0.48433  1.0000
  C   C90       1.0  0.50806  0.96872  0.56518  1.0000
  C   C91       1.0  0.52544  0.00461  0.58180  1.0000
  N   N10       1.0  0.52540  0.02516  0.51536  1.0000
  C   C92       1.0  0.50517  0.94191  0.62819  1.0000
  H   H87       1.0  0.53033  0.94927  0.65613  1.0000
  H   H88       1.0  0.49666  0.91777  0.59231  1.0000
  C   C93       1.0  0.54458  0.02211  0.66420  1.0000
  H   H89       1.0  0.57101  0.04076  0.64591  1.0000
  C   C94       1.0  0.52988  0.07522  0.38915  1.0000
  H   H90       1.0  0.52004  0.07960  0.45159  1.0000
  H   H91       1.0  0.55681  0.08265  0.39950  1.0000
  C   C95       1.0  0.96285  0.47339  0.37008  1.0000
  C   C96       1.0  0.98631  0.49589  0.43475  1.0000
  C   C97       1.0  0.02218  0.51444  0.41775  1.0000
  N   N11       1.0  0.04256  0.53496  0.48434  1.0000
  C   C98       1.0  0.03169  0.53942  0.56519  1.0000
  C   C99       1.0  0.99580  0.52090  0.58182  1.0000
  N   N12       1.0  0.97525  0.50032  0.51538  1.0000
  C   C100      1.0  0.05850  0.56333  0.62821  1.0000
  H   H92       1.0  0.05115  0.58113  0.65615  1.0000
  H   H93       1.0  0.08264  0.57896  0.59232  1.0000
  C   C101      1.0  0.97830  0.52255  0.66422  1.0000
  H   H94       1.0  0.95965  0.53034  0.64593  1.0000
  C   C102      1.0  0.92518  0.45475  0.38916  1.0000
  H   H95       1.0  0.92080  0.44052  0.45159  1.0000
  H   H96       1.0  0.91775  0.47425  0.39953  1.0000
