data_image0
_chemical_formula_structural       C11H6C6H3C6N2C7H6NC7H6NC7H6NC3OH2CHC3OH2CHC3OH2CHC3HOHCHC3HOHCHC3HOHCHC7H6NC11H6C6H3C6N2C11H6C6H3C6N2C11H6C6H3C6N2C3HOHCHC3HOHCHC3HOHCHC3OH2CHC3OH2CHC3OH2CH
_chemical_formula_sum              "C168 H96 N12 O12"
_cell_length_a       70.2454
_cell_length_b       70.251
_cell_length_c       14.9171
_cell_angle_alpha    90
_cell_angle_beta     90
_cell_angle_gamma    119.995

_space_group_name_H-M_alt    "P 1"
_space_group_IT_number       1

loop_
  _space_group_symop_operation_xyz
  'x, y, z'

loop_
  _atom_site_type_symbol
  _atom_site_label
  _atom_site_symmetry_multiplicity
  _atom_site_fract_x
  _atom_site_fract_y
  _atom_site_fract_z
  _atom_site_occupancy
  C   C1        1.0  0.08188  0.03949  0.33974  1.0000
  C   C2        1.0  0.95370  0.04199  0.34003  1.0000
  C   C3        1.0  0.95092  0.91227  0.33817  1.0000
  C   C4        1.0  0.93007  0.06523  0.34079  1.0000
  C   C5        1.0  0.95064  0.07396  0.29684  1.0000
  C   C6        1.0  0.96231  0.06248  0.29630  1.0000
  C   C7        1.0  0.11642  0.03994  0.36870  1.0000
  C   C8        1.0  0.09326  0.02859  0.36637  1.0000
  C   C9        1.0  0.92637  0.86552  0.34223  1.0000
  C   C10       1.0  0.91560  0.87793  0.34359  1.0000
  C   C11       1.0  0.92770  0.90107  0.34078  1.0000
  H   H1        1.0  0.95742  0.08884  0.26523  1.0000
  H   H2        1.0  0.97715  0.06930  0.26383  1.0000
  H   H3        1.0  0.08487  0.01237  0.38503  1.0000
  H   H4        1.0  0.12430  0.03174  0.38894  1.0000
  H   H5        1.0  0.89880  0.87015  0.34629  1.0000
  H   H6        1.0  0.91937  0.90958  0.34153  1.0000
  C   C12       1.0  0.98379  0.97491  0.33718  1.0000
  C   C13       1.0  0.00703  0.98616  0.33730  1.0000
  C   C14       1.0  0.01919  0.00939  0.33781  1.0000
  C   C15       1.0  0.00793  0.02137  0.33826  1.0000
  C   C16       1.0  0.98470  0.01029  0.33819  1.0000
  C   C17       1.0  0.97273  0.98706  0.33765  1.0000
  H   H7        1.0  0.01670  0.03826  0.33873  1.0000
  H   H8        1.0  0.01514  0.97737  0.33711  1.0000
  H   H9        1.0  0.95583  0.97894  0.33769  1.0000
  C   C18       1.0  0.96222  0.93375  0.33726  1.0000
  C   C19       1.0  0.97258  0.95341  0.33700  1.0000
  C   C20       1.0  0.96451  0.03129  0.33946  1.0000
  C   C21       1.0  0.97428  0.02139  0.33883  1.0000
  C   C22       1.0  0.04071  0.01970  0.33820  1.0000
  C   C23       1.0  0.06037  0.02910  0.33879  1.0000
  N   N1        1.0  0.91813  0.07517  0.34511  1.0000
  N   N2        1.0  0.91431  0.84372  0.34867  1.0000
  C   C24       1.0  0.49334  0.30470  0.28687  1.0000
  C   C25       1.0  0.51045  0.32671  0.28650  1.0000
  C   C26       1.0  0.32832  0.17869  0.36401  1.0000
  C   C27       1.0  0.30518  0.16688  0.36095  1.0000
  C   C28       1.0  0.29367  0.14447  0.33539  1.0000
  C   C29       1.0  0.47441  0.15904  0.34523  1.0000
  C   C30       1.0  0.49184  0.15455  0.34220  1.0000
  H   H10       1.0  0.52351  0.33103  0.24465  1.0000
  H   H11       1.0  0.33613  0.19491  0.38255  1.0000
  H   H12       1.0  0.29681  0.17490  0.37624  1.0000
  H   H13       1.0  0.45857  0.14621  0.34166  1.0000
  H   H14       1.0  0.48827  0.13861  0.33562  1.0000
  H   H15       1.0  0.49440  0.29374  0.24461  1.0000
  N   N3        1.0  0.27184  0.13278  0.32810  1.0000
  C   C31       1.0  0.69005  0.19006  0.28711  1.0000
  C   C32       1.0  0.66802  0.18512  0.28667  1.0000
  C   C33       1.0  0.81522  0.15013  0.36013  1.0000
  C   C34       1.0  0.82696  0.13873  0.35738  1.0000
  C   C35       1.0  0.84967  0.14980  0.33650  1.0000
  C   C36       1.0  0.83595  0.31668  0.34545  1.0000
  C   C37       1.0  0.84041  0.33859  0.34239  1.0000
  H   H16       1.0  0.66368  0.19384  0.24481  1.0000
  H   H17       1.0  0.79879  0.14159  0.37531  1.0000
  H   H18       1.0  0.81869  0.12220  0.36971  1.0000
  H   H19       1.0  0.84879  0.31369  0.34202  1.0000
  H   H20       1.0  0.85635  0.35097  0.33592  1.0000
  H   H21       1.0  0.70099  0.20209  0.24487  1.0000
  N   N4        1.0  0.86170  0.13999  0.33070  1.0000
  C   C38       1.0  0.80495  0.50138  0.28674  1.0000
  C   C39       1.0  0.80987  0.48427  0.28642  1.0000
  C   C40       1.0  0.84392  0.66628  0.36045  1.0000
  C   C41       1.0  0.85525  0.68941  0.35736  1.0000
  C   C42       1.0  0.84424  0.70094  0.33366  1.0000
  C   C43       1.0  0.67810  0.52026  0.34529  1.0000
  C   C44       1.0  0.65619  0.50285  0.34231  1.0000
  H   H22       1.0  0.80115  0.47121  0.24456  1.0000
  H   H23       1.0  0.85241  0.65846  0.37771  1.0000
  H   H24       1.0  0.87170  0.69777  0.37138  1.0000
  H   H25       1.0  0.68113  0.53611  0.34175  1.0000
  H   H26       1.0  0.64382  0.50643  0.33579  1.0000
  H   H27       1.0  0.79294  0.50030  0.24442  1.0000
  N   N5        1.0  0.85435  0.72277  0.32682  1.0000
  C   C45       1.0  0.20313  0.10464  0.25115  1.0000
  C   C46       1.0  0.22604  0.11582  0.26613  1.0000
  C   C47       1.0  0.18797  0.09719  0.32309  1.0000
  O   O1        1.0  0.23956  0.12383  0.19360  1.0000
  H   H28       1.0  0.19758  0.10252  0.18632  1.0000
  H   H29       1.0  0.24137  0.11167  0.17109  1.0000
  C   C48       1.0  0.16570  0.08832  0.30467  1.0000
  H   H30       1.0  0.16144  0.09459  0.25373  1.0000
  C   C49       1.0  0.89850  0.10840  0.25000  1.0000
  C   C50       1.0  0.88384  0.11641  0.26237  1.0000
  C   C51       1.0  0.90443  0.09919  0.32162  1.0000
  O   O2        1.0  0.87810  0.12412  0.18951  1.0000
  H   H31       1.0  0.90476  0.10924  0.18711  1.0000
  H   H32       1.0  0.89000  0.13936  0.18065  1.0000
  C   C52       1.0  0.91945  0.09212  0.30593  1.0000
  H   H33       1.0  0.93119  0.10015  0.26066  1.0000
  C   C53       1.0  0.89522  0.79167  0.25225  1.0000
  C   C54       1.0  0.88334  0.76873  0.26624  1.0000
  C   C55       1.0  0.90293  0.80658  0.32497  1.0000
  O   O3        1.0  0.87777  0.75540  0.19311  1.0000
  H   H34       1.0  0.89877  0.79743  0.18773  1.0000
  H   H35       1.0  0.86379  0.75368  0.17109  1.0000
  C   C56       1.0  0.91662  0.82883  0.30822  1.0000
  H   H36       1.0  0.92858  0.83322  0.26319  1.0000
  C   C57       1.0  0.59759  0.16166  0.31320  1.0000
  C   C58       1.0  0.58319  0.15819  0.24062  1.0000
  C   C59       1.0  0.56197  0.15506  0.25431  1.0000
  H   H37       1.0  0.58824  0.15841  0.17595  1.0000
  O   O4        1.0  0.54895  0.15188  0.18166  1.0000
  H   H38       1.0  0.55296  0.16660  0.15938  1.0000
  C   C60       1.0  0.61904  0.16667  0.29411  1.0000
  H   H39       1.0  0.62496  0.17230  0.23316  1.0000
  C   C61       1.0  0.83324  0.43723  0.31328  1.0000
  C   C62       1.0  0.83666  0.42626  0.24073  1.0000
  C   C63       1.0  0.83978  0.40816  0.25445  1.0000
  H   H40       1.0  0.83643  0.43107  0.17604  1.0000
  O   O5        1.0  0.84292  0.39829  0.18182  1.0000
  H   H41       1.0  0.82820  0.38760  0.15956  1.0000
  C   C64       1.0  0.82826  0.45369  0.29415  1.0000
  H   H42       1.0  0.82263  0.45397  0.23319  1.0000
  C   C65       1.0  0.55753  0.39711  0.31323  1.0000
  C   C66       1.0  0.56848  0.41151  0.24066  1.0000
  C   C67       1.0  0.58657  0.43273  0.25437  1.0000
  H   H43       1.0  0.56366  0.40646  0.17598  1.0000
  O   O6        1.0  0.59643  0.44574  0.18174  1.0000
  H   H44       1.0  0.60715  0.44173  0.15954  1.0000
  C   C68       1.0  0.54109  0.37566  0.29412  1.0000
  H   H45       1.0  0.54083  0.36974  0.23322  1.0000
  C   C69       1.0  0.93327  0.03323  0.38442  1.0000
  C   C70       1.0  0.92167  0.04479  0.38485  1.0000
  C   C71       1.0  0.09405  0.06190  0.31552  1.0000
  C   C72       1.0  0.11720  0.07314  0.31749  1.0000
  C   C73       1.0  0.12871  0.06225  0.34321  1.0000
  C   C74       1.0  0.96179  0.89995  0.33829  1.0000
  C   C75       1.0  0.94962  0.87682  0.34052  1.0000
  H   H46       1.0  0.90690  0.03809  0.41765  1.0000
  H   H47       1.0  0.08626  0.07033  0.29697  1.0000
  H   H48       1.0  0.12559  0.08948  0.30146  1.0000
  H   H49       1.0  0.97862  0.90761  0.33762  1.0000
  H   H50       1.0  0.95788  0.86826  0.34237  1.0000
  H   H51       1.0  0.92662  0.01841  0.41692  1.0000
  N   N6        1.0  0.15055  0.07233  0.35001  1.0000
  C   C76       1.0  0.34046  0.16833  0.34100  1.0000
  C   C77       1.0  0.47541  0.29781  0.34612  1.0000
  C   C78       1.0  0.47884  0.18093  0.35153  1.0000
  C   C79       1.0  0.51001  0.34236  0.34493  1.0000
  C   C80       1.0  0.49214  0.33529  0.40473  1.0000
  C   C81       1.0  0.47494  0.31326  0.40530  1.0000
  C   C82       1.0  0.30593  0.13435  0.31101  1.0000
  C   C83       1.0  0.32908  0.14605  0.31440  1.0000
  C   C84       1.0  0.51394  0.17184  0.34544  1.0000
  C   C85       1.0  0.51823  0.19367  0.35108  1.0000
  C   C86       1.0  0.50089  0.19823  0.35466  1.0000
  H   H52       1.0  0.49163  0.34616  0.44906  1.0000
  H   H53       1.0  0.46234  0.30860  0.45028  1.0000
  H   H54       1.0  0.33746  0.13815  0.29667  1.0000
  H   H55       1.0  0.29804  0.11825  0.29098  1.0000
  H   H56       1.0  0.53408  0.20650  0.35236  1.0000
  H   H57       1.0  0.50460  0.21431  0.35845  1.0000
  C   C87       1.0  0.43846  0.20173  0.35127  1.0000
  C   C88       1.0  0.41525  0.18968  0.34910  1.0000
  C   C89       1.0  0.40308  0.20075  0.34770  1.0000
  C   C90       1.0  0.41427  0.22400  0.34843  1.0000
  C   C91       1.0  0.43748  0.23614  0.35064  1.0000
  C   C92       1.0  0.44946  0.22492  0.35196  1.0000
  H   H58       1.0  0.40552  0.23214  0.34718  1.0000
  H   H59       1.0  0.40722  0.17280  0.34839  1.0000
  H   H60       1.0  0.46637  0.23374  0.35322  1.0000
  C   C93       1.0  0.46300  0.18554  0.35222  1.0000
  C   C94       1.0  0.45015  0.19199  0.35201  1.0000
  C   C95       1.0  0.46034  0.27707  0.34918  1.0000
  C   C96       1.0  0.44828  0.25761  0.35046  1.0000
  C   C97       1.0  0.38159  0.18955  0.34544  1.0000
  C   C98       1.0  0.36194  0.17934  0.34333  1.0000
  N   N7        1.0  0.52629  0.36314  0.35085  1.0000
  N   N8        1.0  0.53119  0.16897  0.33831  1.0000
  C   C99       1.0  0.82594  0.17288  0.34168  1.0000
  C   C100      1.0  0.69695  0.17904  0.34641  1.0000
  C   C101      1.0  0.81406  0.29920  0.35160  1.0000
  C   C102      1.0  0.65238  0.16900  0.34508  1.0000
  C   C103      1.0  0.65947  0.15823  0.40492  1.0000
  C   C104      1.0  0.68152  0.16311  0.40556  1.0000
  C   C105      1.0  0.86018  0.17249  0.31703  1.0000
  C   C106      1.0  0.84853  0.18399  0.32000  1.0000
  C   C107      1.0  0.82310  0.34338  0.34544  1.0000
  C   C108      1.0  0.80127  0.32580  0.35093  1.0000
  C   C109      1.0  0.79674  0.30392  0.35455  1.0000
  H   H61       1.0  0.64861  0.14684  0.44922  1.0000
  H   H62       1.0  0.68620  0.15519  0.45056  1.0000
  H   H63       1.0  0.85673  0.20048  0.30582  1.0000
  H   H64       1.0  0.87654  0.18090  0.30084  1.0000
  H   H65       1.0  0.78842  0.32881  0.35208  1.0000
  H   H66       1.0  0.78067  0.29155  0.35823  1.0000
  C   C110      1.0  0.79315  0.23800  0.35154  1.0000
  C   C111      1.0  0.80510  0.22673  0.34948  1.0000
  C   C112      1.0  0.79391  0.20348  0.34818  1.0000
  C   C113      1.0  0.77066  0.19154  0.34890  1.0000
  C   C114      1.0  0.75863  0.20272  0.35100  1.0000
  C   C115      1.0  0.76995  0.22592  0.35222  1.0000
  H   H67       1.0  0.76244  0.17466  0.34772  1.0000
  H   H68       1.0  0.82198  0.23550  0.34877  1.0000
  H   H69       1.0  0.76121  0.23409  0.35341  1.0000
  C   C116      1.0  0.80947  0.27875  0.35234  1.0000
  C   C117      1.0  0.80299  0.25944  0.35220  1.0000
  C   C118      1.0  0.71770  0.18475  0.34951  1.0000
  C   C119      1.0  0.73716  0.19214  0.35081  1.0000
  C   C120      1.0  0.80498  0.19307  0.34601  1.0000
  C   C121      1.0  0.81504  0.18347  0.34396  1.0000
  N   N9        1.0  0.63159  0.16446  0.35095  1.0000
  N   N10       1.0  0.82593  0.36348  0.33828  1.0000
  C   C122      1.0  0.82131  0.65416  0.33931  1.0000
  C   C123      1.0  0.81597  0.51930  0.34603  1.0000
  C   C124      1.0  0.69557  0.51582  0.35148  1.0000
  C   C125      1.0  0.82597  0.48473  0.34495  1.0000
  C   C126      1.0  0.83673  0.50260  0.40477  1.0000
  C   C127      1.0  0.83188  0.51979  0.40528  1.0000
  C   C128      1.0  0.82174  0.68870  0.31107  1.0000
  C   C129      1.0  0.81030  0.66556  0.31448  1.0000
  C   C130      1.0  0.65136  0.48074  0.34548  1.0000
  C   C131      1.0  0.66892  0.47645  0.35102  1.0000
  C   C132      1.0  0.69081  0.49378  0.35456  1.0000
  H   H70       1.0  0.84810  0.50312  0.44916  1.0000
  H   H71       1.0  0.83980  0.53238  0.45028  1.0000
  H   H72       1.0  0.79393  0.65719  0.29816  1.0000
  H   H73       1.0  0.81345  0.69661  0.29246  1.0000
  H   H74       1.0  0.66588  0.46059  0.35225  1.0000
  H   H75       1.0  0.70317  0.49005  0.35827  1.0000
  C   C133      1.0  0.75675  0.55618  0.35092  1.0000
  C   C134      1.0  0.76789  0.57938  0.34839  1.0000
  C   C135      1.0  0.79113  0.59156  0.34680  1.0000
  C   C136      1.0  0.80320  0.58038  0.34772  1.0000
  C   C137      1.0  0.79215  0.55718  0.35030  1.0000
  C   C138      1.0  0.76896  0.54519  0.35179  1.0000
  H   H76       1.0  0.82009  0.58913  0.34633  1.0000
  H   H77       1.0  0.75903  0.58740  0.34754  1.0000
  H   H78       1.0  0.76087  0.52828  0.35330  1.0000
  C   C139      1.0  0.71601  0.53165  0.35209  1.0000
  C   C140      1.0  0.73532  0.54449  0.35179  1.0000
  C   C141      1.0  0.81027  0.53435  0.34903  1.0000
  C   C142      1.0  0.80283  0.54639  0.35024  1.0000
  C   C143      1.0  0.80139  0.61304  0.34421  1.0000
  C   C144      1.0  0.81083  0.63269  0.34183  1.0000
  N   N11       1.0  0.83048  0.46846  0.35093  1.0000
  N   N12       1.0  0.63125  0.46350  0.33836  1.0000
  C   C145      1.0  0.23445  0.12034  0.35481  1.0000
  C   C146      1.0  0.21928  0.11259  0.42674  1.0000
  C   C147      1.0  0.19638  0.10093  0.41176  1.0000
  H   H79       1.0  0.22484  0.11590  0.49159  1.0000
  O   O7        1.0  0.18288  0.09536  0.48434  1.0000
  H   H80       1.0  0.18108  0.08138  0.50662  1.0000
  C   C148      1.0  0.25671  0.13368  0.37334  1.0000
  H   H81       1.0  0.26097  0.14416  0.42444  1.0000
  C   C149      1.0  0.87438  0.11510  0.34774  1.0000
  C   C150      1.0  0.88024  0.10586  0.41939  1.0000
  C   C151      1.0  0.89527  0.09829  0.40741  1.0000
  H   H82       1.0  0.87371  0.10474  0.48192  1.0000
  O   O8        1.0  0.90022  0.08989  0.48020  1.0000
  H   H83       1.0  0.91398  0.10193  0.50486  1.0000
  C   C152      1.0  0.85908  0.12181  0.36250  1.0000
  H   H84       1.0  0.84626  0.11262  0.40177  1.0000
  C   C153      1.0  0.87941  0.76009  0.35457  1.0000
  C   C154      1.0  0.88685  0.77505  0.42723  1.0000
  C   C155      1.0  0.89821  0.79798  0.41326  1.0000
  H   H85       1.0  0.88460  0.76932  0.49180  1.0000
  O   O9        1.0  0.90627  0.81134  0.48623  1.0000
  H   H86       1.0  0.89418  0.81328  0.50877  1.0000
  C   C156      1.0  0.87046  0.73779  0.37212  1.0000
  H   H87       1.0  0.87673  0.73340  0.42264  1.0000
  C   C157      1.0  0.56842  0.15786  0.41540  1.0000
  C   C158      1.0  0.58974  0.16115  0.40153  1.0000
  C   C159      1.0  0.55444  0.15491  0.34237  1.0000
  O   O10       1.0  0.60274  0.16527  0.47497  1.0000
  H   H88       1.0  0.56338  0.15819  0.47957  1.0000
  H   H89       1.0  0.59918  0.15083  0.49923  1.0000
  C   C160      1.0  0.53411  0.15279  0.35740  1.0000
  H   H90       1.0  0.52232  0.13913  0.38552  1.0000
  C   C161      1.0  0.83704  0.41187  0.41553  1.0000
  C   C162      1.0  0.83377  0.42990  0.40163  1.0000
  C   C163      1.0  0.83994  0.40080  0.34253  1.0000
  O   O11       1.0  0.82971  0.43883  0.47506  1.0000
  H   H91       1.0  0.83673  0.40651  0.47972  1.0000
  H   H92       1.0  0.84415  0.44970  0.49919  1.0000
  C   C164      1.0  0.84207  0.38259  0.35763  1.0000
  H   H93       1.0  0.85570  0.38446  0.38606  1.0000
  C   C165      1.0  0.58288  0.42627  0.41546  1.0000
  C   C166      1.0  0.56486  0.40496  0.40157  1.0000
  C   C167      1.0  0.59394  0.44025  0.34245  1.0000
  O   O12       1.0  0.55595  0.39196  0.47499  1.0000
  H   H94       1.0  0.58825  0.43132  0.47964  1.0000
  H   H95       1.0  0.54509  0.39554  0.49923  1.0000
  C   C168      1.0  0.61215  0.46058  0.35752  1.0000
  H   H96       1.0  0.61029  0.47237  0.38570  1.0000
