data_image0
_chemical_formula_structural       C5HCH3NHC3HCH3NHC3HCH3NHNCNCNC3O3NCNCNC3O3C3HCH3NHC3HCH3NHC3HCH3NHC5HCH3NHC3HCH3NHC3HCH3NHNCNCNC3O3NCNCNC3O3C3HCH3NHC3HCH3NHC3HCH3NHC5HCH3NHC3HCH3NHC3HCH3NHNCNCNC3O3NCNCNC3O3C3HCH3NHC3HCH3NHC3HCH3NHC5HCH3NHC3HCH3NHC3HCH3NHNCNCNC3O3NCNCNC3O3C3HCH3NHC3HCH3NHC3HCH3NH
_chemical_formula_sum              "C144 H120 N48 O24"
_cell_length_a       43.7829
_cell_length_b       43.7829
_cell_length_c       15.0703
_cell_angle_alpha    90
_cell_angle_beta     90
_cell_angle_gamma    120

_space_group_name_H-M_alt    "P 1"
_space_group_IT_number       1

loop_
  _space_group_symop_operation_xyz
  'x, y, z'

loop_
  _atom_site_type_symbol
  _atom_site_label
  _atom_site_symmetry_multiplicity
  _atom_site_fract_x
  _atom_site_fract_y
  _atom_site_fract_z
  _atom_site_occupancy
  C   C1        1.0  0.12784  0.32001  0.39866  1.0000
  C   C2        1.0  0.36510  0.17531  0.25839  1.0000
  C   C3        1.0  0.21793  0.24582  0.27950  1.0000
  C   C4        1.0  0.23160  0.22336  0.26066  1.0000
  C   C5        1.0  0.26091  0.22568  0.30633  1.0000
  H   H1        1.0  0.22185  0.20684  0.20693  1.0000
  C   C6        1.0  0.19319  0.24646  0.21250  1.0000
  H   H2        1.0  0.18970  0.26929  0.21909  1.0000
  H   H3        1.0  0.16754  0.22251  0.21824  1.0000
  H   H4        1.0  0.20329  0.24768  0.14549  1.0000
  N   N1        1.0  0.27348  0.20448  0.27713  1.0000
  H   H5        1.0  0.25665  0.18231  0.24861  1.0000
  C   C7        1.0  0.24837  0.47097  0.27881  1.0000
  C   C8        1.0  0.27088  0.00712  0.26014  1.0000
  C   C9        1.0  0.26855  0.03410  0.30585  1.0000
  H   H6        1.0  0.28736  0.01389  0.20633  1.0000
  C   C10       1.0  0.24773  0.44561  0.21177  1.0000
  H   H7        1.0  0.22491  0.41928  0.21836  1.0000
  H   H8        1.0  0.27169  0.44392  0.21744  1.0000
  H   H9        1.0  0.24648  0.45450  0.14479  1.0000
  N   N2        1.0  0.28970  0.06787  0.27662  1.0000
  H   H10       1.0  0.31189  0.07323  0.24813  1.0000
  C   C11       1.0  0.02321  0.27612  0.27833  1.0000
  C   C12       1.0  0.48708  0.26248  0.25954  1.0000
  C   C13       1.0  0.46008  0.23324  0.30541  1.0000
  H   H11       1.0  0.48031  0.27219  0.20572  1.0000
  C   C14       1.0  0.04860  0.30078  0.21123  1.0000
  H   H12       1.0  0.07492  0.30429  0.21795  1.0000
  H   H13       1.0  0.05029  0.32644  0.21669  1.0000
  H   H14       1.0  0.03973  0.29059  0.14428  1.0000
  N   N3        1.0  0.42630  0.22070  0.27633  1.0000
  H   H15       1.0  0.42097  0.23751  0.24770  1.0000
  N   N4        1.0  0.15233  0.35485  0.39775  1.0000
  C   C15       1.0  0.18743  0.36630  0.39878  1.0000
  N   N5        1.0  0.19780  0.34182  0.39824  1.0000
  C   C16       1.0  0.17414  0.30672  0.39919  1.0000
  N   N6        1.0  0.13930  0.29635  0.39813  1.0000
  C   C17       1.0  0.21243  0.40213  0.38732  1.0000
  C   C18       1.0  0.18497  0.28170  0.38801  1.0000
  C   C19       1.0  0.09202  0.30915  0.38701  1.0000
  O   O1        1.0  0.15946  0.24731  0.38213  1.0000
  O   O2        1.0  0.08313  0.33465  0.38080  1.0000
  O   O3        1.0  0.24682  0.41101  0.38151  1.0000
  N   N7        1.0  0.34059  0.14048  0.25928  1.0000
  C   C20       1.0  0.30549  0.12908  0.25861  1.0000
  N   N8        1.0  0.29517  0.15359  0.25957  1.0000
  C   C21       1.0  0.31887  0.18868  0.25873  1.0000
  N   N9        1.0  0.35370  0.19901  0.25938  1.0000
  C   C22       1.0  0.28048  0.09325  0.26999  1.0000
  C   C23       1.0  0.30808  0.21371  0.27027  1.0000
  C   C24       1.0  0.40093  0.18610  0.26963  1.0000
  O   O4        1.0  0.33362  0.24809  0.27618  1.0000
  O   O5        1.0  0.40976  0.16055  0.27561  1.0000
  O   O6        1.0  0.24610  0.08440  0.27603  1.0000
  C   C25       1.0  0.23222  0.26983  0.35198  1.0000
  C   C26       1.0  0.27520  0.24969  0.37881  1.0000
  C   C27       1.0  0.26158  0.27221  0.39753  1.0000
  H   H16       1.0  0.27127  0.28866  0.45140  1.0000
  C   C28       1.0  0.29993  0.24904  0.44582  1.0000
  H   H17       1.0  0.30343  0.22622  0.43921  1.0000
  H   H18       1.0  0.28981  0.24780  0.51282  1.0000
  H   H19       1.0  0.32558  0.27299  0.44013  1.0000
  N   N10       1.0  0.21957  0.29095  0.38132  1.0000
  H   H20       1.0  0.23642  0.31317  0.40964  1.0000
  C   C29       1.0  0.22435  0.46123  0.35129  1.0000
  C   C30       1.0  0.24455  0.02435  0.37835  1.0000
  C   C31       1.0  0.22203  0.48821  0.39702  1.0000
  H   H21       1.0  0.20554  0.48142  0.45083  1.0000
  C   C32       1.0  0.24522  0.04971  0.44547  1.0000
  H   H22       1.0  0.26806  0.07603  0.43892  1.0000
  H   H23       1.0  0.24646  0.04079  0.51242  1.0000
  H   H24       1.0  0.22129  0.05143  0.43986  1.0000
  N   N11       1.0  0.20315  0.42745  0.38040  1.0000
  H   H25       1.0  0.18097  0.42210  0.40891  1.0000
  C   C33       1.0  0.03293  0.26189  0.35095  1.0000
  C   C34       1.0  0.46980  0.21901  0.37802  1.0000
  C   C35       1.0  0.00594  0.23260  0.39668  1.0000
  H   H26       1.0  0.01269  0.22295  0.45065  1.0000
  C   C36       1.0  0.44443  0.19437  0.44519  1.0000
  H   H27       1.0  0.41811  0.19091  0.43857  1.0000
  H   H28       1.0  0.45334  0.20456  0.51212  1.0000
  H   H29       1.0  0.44268  0.16870  0.43970  1.0000
  N   N12       1.0  0.06669  0.27454  0.38030  1.0000
  H   H30       1.0  0.07204  0.25771  0.40882  1.0000
  C   C37       1.0  0.12785  0.82001  0.39866  1.0000
  C   C38       1.0  0.36510  0.67532  0.25839  1.0000
  C   C39       1.0  0.21793  0.74582  0.27950  1.0000
  C   C40       1.0  0.23160  0.72336  0.26066  1.0000
  C   C41       1.0  0.26091  0.72568  0.30633  1.0000
  H   H31       1.0  0.22185  0.70684  0.20693  1.0000
  C   C42       1.0  0.19319  0.74646  0.21250  1.0000
  H   H32       1.0  0.18970  0.76929  0.21909  1.0000
  H   H33       1.0  0.16754  0.72251  0.21824  1.0000
  H   H34       1.0  0.20329  0.74768  0.14549  1.0000
  N   N13       1.0  0.27348  0.70449  0.27713  1.0000
  H   H35       1.0  0.25665  0.68231  0.24861  1.0000
  C   C43       1.0  0.24837  0.97097  0.27881  1.0000
  C   C44       1.0  0.27088  0.50712  0.26014  1.0000
  C   C45       1.0  0.26855  0.53410  0.30585  1.0000
  H   H36       1.0  0.28736  0.51389  0.20633  1.0000
  C   C46       1.0  0.24773  0.94561  0.21177  1.0000
  H   H37       1.0  0.22491  0.91928  0.21836  1.0000
  H   H38       1.0  0.27169  0.94392  0.21744  1.0000
  H   H39       1.0  0.24648  0.95450  0.14479  1.0000
  N   N14       1.0  0.28970  0.56787  0.27662  1.0000
  H   H40       1.0  0.31189  0.57323  0.24813  1.0000
  C   C47       1.0  0.02321  0.77612  0.27833  1.0000
  C   C48       1.0  0.48708  0.76248  0.25954  1.0000
  C   C49       1.0  0.46008  0.73324  0.30541  1.0000
  H   H41       1.0  0.48031  0.77219  0.20572  1.0000
  C   C50       1.0  0.04860  0.80078  0.21123  1.0000
  H   H42       1.0  0.07492  0.80429  0.21795  1.0000
  H   H43       1.0  0.05029  0.82644  0.21669  1.0000
  H   H44       1.0  0.03973  0.79059  0.14428  1.0000
  N   N15       1.0  0.42630  0.72070  0.27633  1.0000
  H   H45       1.0  0.42097  0.73752  0.24770  1.0000
  N   N16       1.0  0.15233  0.85486  0.39775  1.0000
  C   C51       1.0  0.18743  0.86630  0.39878  1.0000
  N   N17       1.0  0.19781  0.84182  0.39824  1.0000
  C   C52       1.0  0.17414  0.80672  0.39919  1.0000
  N   N18       1.0  0.13930  0.79636  0.39813  1.0000
  C   C53       1.0  0.21243  0.90213  0.38732  1.0000
  C   C54       1.0  0.18497  0.78171  0.38801  1.0000
  C   C55       1.0  0.09202  0.80915  0.38701  1.0000
  O   O7        1.0  0.15946  0.74731  0.38213  1.0000
  O   O8        1.0  0.08313  0.83465  0.38080  1.0000
  O   O9        1.0  0.24682  0.91101  0.38151  1.0000
  N   N19       1.0  0.34059  0.64048  0.25928  1.0000
  C   C56       1.0  0.30549  0.62908  0.25861  1.0000
  N   N20       1.0  0.29517  0.65359  0.25957  1.0000
  C   C57       1.0  0.31887  0.68868  0.25873  1.0000
  N   N21       1.0  0.35370  0.69901  0.25938  1.0000
  C   C58       1.0  0.28048  0.59325  0.26999  1.0000
  C   C59       1.0  0.30808  0.71371  0.27027  1.0000
  C   C60       1.0  0.40093  0.68610  0.26963  1.0000
  O   O10       1.0  0.33362  0.74809  0.27618  1.0000
  O   O11       1.0  0.40976  0.66055  0.27561  1.0000
  O   O12       1.0  0.24610  0.58440  0.27603  1.0000
  C   C61       1.0  0.23222  0.76984  0.35198  1.0000
  C   C62       1.0  0.27520  0.74969  0.37881  1.0000
  C   C63       1.0  0.26158  0.77221  0.39753  1.0000
  H   H46       1.0  0.27127  0.78866  0.45140  1.0000
  C   C64       1.0  0.29993  0.74904  0.44582  1.0000
  H   H47       1.0  0.30343  0.72622  0.43921  1.0000
  H   H48       1.0  0.28981  0.74781  0.51282  1.0000
  H   H49       1.0  0.32558  0.77299  0.44013  1.0000
  N   N22       1.0  0.21957  0.79095  0.38132  1.0000
  H   H50       1.0  0.23642  0.81317  0.40964  1.0000
  C   C65       1.0  0.22435  0.96123  0.35129  1.0000
  C   C66       1.0  0.24455  0.52435  0.37835  1.0000
  C   C67       1.0  0.22203  0.98821  0.39702  1.0000
  H   H51       1.0  0.20554  0.98142  0.45083  1.0000
  C   C68       1.0  0.24522  0.54971  0.44547  1.0000
  H   H52       1.0  0.26806  0.57603  0.43892  1.0000
  H   H53       1.0  0.24646  0.54079  0.51242  1.0000
  H   H54       1.0  0.22129  0.55144  0.43986  1.0000
  N   N23       1.0  0.20315  0.92746  0.38040  1.0000
  H   H55       1.0  0.18097  0.92210  0.40891  1.0000
  C   C69       1.0  0.03293  0.76189  0.35095  1.0000
  C   C70       1.0  0.46980  0.71901  0.37802  1.0000
  C   C71       1.0  0.00594  0.73260  0.39668  1.0000
  H   H56       1.0  0.01269  0.72295  0.45065  1.0000
  C   C72       1.0  0.44443  0.69437  0.44519  1.0000
  H   H57       1.0  0.41811  0.69091  0.43857  1.0000
  H   H58       1.0  0.45334  0.70456  0.51212  1.0000
  H   H59       1.0  0.44268  0.66870  0.43970  1.0000
  N   N24       1.0  0.06669  0.77454  0.38030  1.0000
  H   H60       1.0  0.07204  0.75771  0.40882  1.0000
  C   C73       1.0  0.62784  0.32001  0.39866  1.0000
  C   C74       1.0  0.86510  0.17531  0.25839  1.0000
  C   C75       1.0  0.71793  0.24582  0.27950  1.0000
  C   C76       1.0  0.73160  0.22336  0.26066  1.0000
  C   C77       1.0  0.76091  0.22568  0.30633  1.0000
  H   H61       1.0  0.72185  0.20684  0.20693  1.0000
  C   C78       1.0  0.69319  0.24646  0.21250  1.0000
  H   H62       1.0  0.68970  0.26929  0.21909  1.0000
  H   H63       1.0  0.66754  0.22251  0.21824  1.0000
  H   H64       1.0  0.70329  0.24768  0.14549  1.0000
  N   N25       1.0  0.77348  0.20448  0.27713  1.0000
  H   H65       1.0  0.75665  0.18231  0.24861  1.0000
  C   C79       1.0  0.74837  0.47097  0.27881  1.0000
  C   C80       1.0  0.77088  0.00712  0.26014  1.0000
  C   C81       1.0  0.76855  0.03410  0.30585  1.0000
  H   H66       1.0  0.78736  0.01389  0.20633  1.0000
  C   C82       1.0  0.74773  0.44561  0.21177  1.0000
  H   H67       1.0  0.72491  0.41928  0.21836  1.0000
  H   H68       1.0  0.77169  0.44392  0.21744  1.0000
  H   H69       1.0  0.74648  0.45450  0.14479  1.0000
  N   N26       1.0  0.78970  0.06787  0.27662  1.0000
  H   H70       1.0  0.81189  0.07323  0.24813  1.0000
  C   C83       1.0  0.52321  0.27612  0.27833  1.0000
  C   C84       1.0  0.98708  0.26248  0.25954  1.0000
  C   C85       1.0  0.96008  0.23324  0.30541  1.0000
  H   H71       1.0  0.98031  0.27219  0.20572  1.0000
  C   C86       1.0  0.54860  0.30078  0.21123  1.0000
  H   H72       1.0  0.57492  0.30429  0.21795  1.0000
  H   H73       1.0  0.55029  0.32644  0.21669  1.0000
  H   H74       1.0  0.53973  0.29059  0.14428  1.0000
  N   N27       1.0  0.92630  0.22070  0.27633  1.0000
  H   H75       1.0  0.92097  0.23751  0.24770  1.0000
  N   N28       1.0  0.65233  0.35485  0.39775  1.0000
  C   C87       1.0  0.68743  0.36630  0.39878  1.0000
  N   N29       1.0  0.69780  0.34182  0.39824  1.0000
  C   C88       1.0  0.67414  0.30672  0.39919  1.0000
  N   N30       1.0  0.63930  0.29635  0.39813  1.0000
  C   C89       1.0  0.71243  0.40213  0.38732  1.0000
  C   C90       1.0  0.68497  0.28170  0.38801  1.0000
  C   C91       1.0  0.59202  0.30915  0.38701  1.0000
  O   O13       1.0  0.65946  0.24731  0.38213  1.0000
  O   O14       1.0  0.58313  0.33465  0.38080  1.0000
  O   O15       1.0  0.74682  0.41101  0.38151  1.0000
  N   N31       1.0  0.84059  0.14048  0.25928  1.0000
  C   C92       1.0  0.80549  0.12908  0.25861  1.0000
  N   N32       1.0  0.79517  0.15359  0.25957  1.0000
  C   C93       1.0  0.81886  0.18868  0.25873  1.0000
  N   N33       1.0  0.85370  0.19901  0.25938  1.0000
  C   C94       1.0  0.78048  0.09325  0.26999  1.0000
  C   C95       1.0  0.80808  0.21371  0.27027  1.0000
  C   C96       1.0  0.90093  0.18610  0.26963  1.0000
  O   O16       1.0  0.83362  0.24809  0.27618  1.0000
  O   O17       1.0  0.90976  0.16055  0.27561  1.0000
  O   O18       1.0  0.74610  0.08440  0.27603  1.0000
  C   C97       1.0  0.73221  0.26983  0.35198  1.0000
  C   C98       1.0  0.77520  0.24969  0.37881  1.0000
  C   C99       1.0  0.76158  0.27221  0.39753  1.0000
  H   H76       1.0  0.77127  0.28866  0.45140  1.0000
  C   C100      1.0  0.79993  0.24904  0.44582  1.0000
  H   H77       1.0  0.80343  0.22622  0.43921  1.0000
  H   H78       1.0  0.78981  0.24780  0.51282  1.0000
  H   H79       1.0  0.82558  0.27299  0.44013  1.0000
  N   N34       1.0  0.71957  0.29095  0.38132  1.0000
  H   H80       1.0  0.73642  0.31317  0.40964  1.0000
  C   C101      1.0  0.72435  0.46123  0.35129  1.0000
  C   C102      1.0  0.74455  0.02435  0.37835  1.0000
  C   C103      1.0  0.72203  0.48821  0.39702  1.0000
  H   H81       1.0  0.70554  0.48142  0.45083  1.0000
  C   C104      1.0  0.74522  0.04971  0.44547  1.0000
  H   H82       1.0  0.76806  0.07603  0.43892  1.0000
  H   H83       1.0  0.74646  0.04079  0.51242  1.0000
  H   H84       1.0  0.72128  0.05143  0.43986  1.0000
  N   N35       1.0  0.70315  0.42745  0.38040  1.0000
  H   H85       1.0  0.68097  0.42210  0.40891  1.0000
  C   C105      1.0  0.53293  0.26189  0.35095  1.0000
  C   C106      1.0  0.96980  0.21901  0.37802  1.0000
  C   C107      1.0  0.50594  0.23260  0.39668  1.0000
  H   H86       1.0  0.51269  0.22295  0.45065  1.0000
  C   C108      1.0  0.94443  0.19437  0.44519  1.0000
  H   H87       1.0  0.91811  0.19091  0.43857  1.0000
  H   H88       1.0  0.95334  0.20456  0.51212  1.0000
  H   H89       1.0  0.94268  0.16870  0.43970  1.0000
  N   N36       1.0  0.56669  0.27454  0.38030  1.0000
  H   H90       1.0  0.57204  0.25771  0.40882  1.0000
  C   C109      1.0  0.62785  0.82001  0.39866  1.0000
  C   C110      1.0  0.86510  0.67532  0.25839  1.0000
  C   C111      1.0  0.71793  0.74582  0.27950  1.0000
  C   C112      1.0  0.73160  0.72336  0.26066  1.0000
  C   C113      1.0  0.76091  0.72568  0.30633  1.0000
  H   H91       1.0  0.72185  0.70684  0.20693  1.0000
  C   C114      1.0  0.69319  0.74646  0.21250  1.0000
  H   H92       1.0  0.68970  0.76929  0.21909  1.0000
  H   H93       1.0  0.66754  0.72251  0.21824  1.0000
  H   H94       1.0  0.70329  0.74768  0.14549  1.0000
  N   N37       1.0  0.77348  0.70449  0.27713  1.0000
  H   H95       1.0  0.75665  0.68231  0.24861  1.0000
  C   C115      1.0  0.74837  0.97097  0.27881  1.0000
  C   C116      1.0  0.77088  0.50712  0.26014  1.0000
  C   C117      1.0  0.76855  0.53410  0.30585  1.0000
  H   H96       1.0  0.78736  0.51389  0.20633  1.0000
  C   C118      1.0  0.74773  0.94561  0.21177  1.0000
  H   H97       1.0  0.72491  0.91928  0.21836  1.0000
  H   H98       1.0  0.77169  0.94392  0.21744  1.0000
  H   H99       1.0  0.74648  0.95450  0.14479  1.0000
  N   N38       1.0  0.78970  0.56787  0.27662  1.0000
  H   H100      1.0  0.81189  0.57323  0.24813  1.0000
  C   C119      1.0  0.52321  0.77612  0.27833  1.0000
  C   C120      1.0  0.98708  0.76248  0.25954  1.0000
  C   C121      1.0  0.96008  0.73324  0.30541  1.0000
  H   H101      1.0  0.98031  0.77219  0.20572  1.0000
  C   C122      1.0  0.54860  0.80078  0.21123  1.0000
  H   H102      1.0  0.57492  0.80429  0.21795  1.0000
  H   H103      1.0  0.55029  0.82644  0.21669  1.0000
  H   H104      1.0  0.53973  0.79059  0.14428  1.0000
  N   N39       1.0  0.92630  0.72070  0.27633  1.0000
  H   H105      1.0  0.92098  0.73752  0.24770  1.0000
  N   N40       1.0  0.65233  0.85486  0.39775  1.0000
  C   C123      1.0  0.68743  0.86630  0.39878  1.0000
  N   N41       1.0  0.69781  0.84182  0.39824  1.0000
  C   C124      1.0  0.67415  0.80672  0.39919  1.0000
  N   N42       1.0  0.63930  0.79636  0.39813  1.0000
  C   C125      1.0  0.71243  0.90213  0.38732  1.0000
  C   C126      1.0  0.68497  0.78171  0.38801  1.0000
  C   C127      1.0  0.59202  0.80915  0.38701  1.0000
  O   O19       1.0  0.65946  0.74731  0.38213  1.0000
  O   O20       1.0  0.58313  0.83465  0.38080  1.0000
  O   O21       1.0  0.74682  0.91101  0.38151  1.0000
  N   N43       1.0  0.84059  0.64048  0.25928  1.0000
  C   C128      1.0  0.80549  0.62908  0.25861  1.0000
  N   N44       1.0  0.79517  0.65359  0.25957  1.0000
  C   C129      1.0  0.81887  0.68868  0.25873  1.0000
  N   N45       1.0  0.85371  0.69901  0.25938  1.0000
  C   C130      1.0  0.78048  0.59325  0.26999  1.0000
  C   C131      1.0  0.80808  0.71371  0.27027  1.0000
  C   C132      1.0  0.90093  0.68610  0.26963  1.0000
  O   O22       1.0  0.83362  0.74809  0.27618  1.0000
  O   O23       1.0  0.90976  0.66055  0.27561  1.0000
  O   O24       1.0  0.74610  0.58440  0.27603  1.0000
  C   C133      1.0  0.73222  0.76984  0.35198  1.0000
  C   C134      1.0  0.77520  0.74969  0.37881  1.0000
  C   C135      1.0  0.76158  0.77221  0.39753  1.0000
  H   H106      1.0  0.77127  0.78866  0.45140  1.0000
  C   C136      1.0  0.79993  0.74904  0.44582  1.0000
  H   H107      1.0  0.80343  0.72622  0.43921  1.0000
  H   H108      1.0  0.78981  0.74781  0.51282  1.0000
  H   H109      1.0  0.82558  0.77299  0.44013  1.0000
  N   N46       1.0  0.71957  0.79095  0.38132  1.0000
  H   H110      1.0  0.73642  0.81317  0.40964  1.0000
  C   C137      1.0  0.72435  0.96123  0.35129  1.0000
  C   C138      1.0  0.74455  0.52435  0.37835  1.0000
  C   C139      1.0  0.72203  0.98821  0.39702  1.0000
  H   H111      1.0  0.70554  0.98142  0.45083  1.0000
  C   C140      1.0  0.74522  0.54971  0.44547  1.0000
  H   H112      1.0  0.76806  0.57603  0.43892  1.0000
  H   H113      1.0  0.74646  0.54079  0.51242  1.0000
  H   H114      1.0  0.72129  0.55144  0.43986  1.0000
  N   N47       1.0  0.70315  0.92746  0.38040  1.0000
  H   H115      1.0  0.68097  0.92210  0.40891  1.0000
  C   C141      1.0  0.53293  0.76189  0.35095  1.0000
  C   C142      1.0  0.96980  0.71901  0.37802  1.0000
  C   C143      1.0  0.50594  0.73260  0.39668  1.0000
  H   H116      1.0  0.51269  0.72295  0.45065  1.0000
  C   C144      1.0  0.94443  0.69437  0.44519  1.0000
  H   H117      1.0  0.91811  0.69091  0.43857  1.0000
  H   H118      1.0  0.95334  0.70456  0.51212  1.0000
  H   H119      1.0  0.94268  0.66870  0.43970  1.0000
  N   N48       1.0  0.56669  0.77454  0.38030  1.0000
  H   H120      1.0  0.57204  0.75771  0.40882  1.0000
