data_image0
_chemical_formula_structural       C5H3CH3C5H3CH3C5H3CH3CNCNCNC18H12CNCNCNC18H12C3HC4H2CH3C3HC4H2CH3C3HC4H2CH3
_chemical_formula_sum              "C84 H60 N6"
_cell_length_a       36.9688
_cell_length_b       36.969
_cell_length_c       14.9703
_cell_angle_alpha    90
_cell_angle_beta     90
_cell_angle_gamma    120

_space_group_name_H-M_alt    "P 1"
_space_group_IT_number       1

loop_
  _space_group_symop_operation_xyz
  'x, y, z'

loop_
  _atom_site_type_symbol
  _atom_site_label
  _atom_site_symmetry_multiplicity
  _atom_site_fract_x
  _atom_site_fract_y
  _atom_site_fract_z
  _atom_site_occupancy
  C   C1        1.0  0.44648  0.55708  0.33548  1.0000
  C   C2        1.0  0.42925  0.51692  0.29643  1.0000
  C   C3        1.0  0.45058  0.49401  0.29667  1.0000
  C   C4        1.0  0.53886  0.49382  0.26741  1.0000
  C   C5        1.0  0.56134  0.47243  0.26661  1.0000
  H   H1        1.0  0.54062  0.51135  0.21284  1.0000
  H   H2        1.0  0.57856  0.47471  0.21116  1.0000
  H   H3        1.0  0.40068  0.50423  0.26597  1.0000
  C   C6        1.0  0.43061  0.45176  0.25525  1.0000
  H   H4        1.0  0.39971  0.44216  0.22801  1.0000
  H   H5        1.0  0.42707  0.42863  0.30501  1.0000
  H   H6        1.0  0.45004  0.45144  0.20074  1.0000
  C   C7        1.0  0.44540  0.88990  0.33547  1.0000
  C   C8        1.0  0.48557  0.91283  0.29644  1.0000
  C   C9        1.0  0.50846  0.95706  0.29667  1.0000
  C   C10       1.0  0.50864  0.04554  0.26744  1.0000
  C   C11       1.0  0.53001  0.08941  0.26665  1.0000
  H   H7        1.0  0.49113  0.02977  0.21285  1.0000
  H   H8        1.0  0.52777  0.10434  0.21116  1.0000
  H   H9        1.0  0.49826  0.89696  0.26595  1.0000
  C   C12       1.0  0.55072  0.97937  0.25524  1.0000
  H   H10       1.0  0.56032  0.95806  0.22800  1.0000
  H   H11       1.0  0.57385  0.99895  0.30500  1.0000
  H   H12       1.0  0.55103  0.99911  0.20073  1.0000
  C   C13       1.0  0.11259  0.55600  0.33552  1.0000
  C   C14       1.0  0.08965  0.57324  0.29648  1.0000
  C   C15       1.0  0.04542  0.55190  0.29670  1.0000
  C   C16       1.0  0.95695  0.46360  0.26748  1.0000
  C   C17       1.0  0.91308  0.44111  0.26668  1.0000
  H   H13       1.0  0.97272  0.46186  0.21288  1.0000
  H   H14       1.0  0.89814  0.42393  0.21118  1.0000
  H   H15       1.0  0.10553  0.60179  0.26598  1.0000
  C   C18       1.0  0.02312  0.57185  0.25526  1.0000
  H   H16       1.0  0.04443  0.60275  0.22802  1.0000
  H   H17       1.0  0.00354  0.57539  0.30502  1.0000
  H   H18       1.0  0.00338  0.55241  0.20075  1.0000
  C   C19       1.0  0.35623  0.71076  0.33502  1.0000
  N   N1        1.0  0.37668  0.68872  0.33503  1.0000
  C   C20       1.0  0.35652  0.64626  0.33503  1.0000
  N   N2        1.0  0.31404  0.62581  0.33505  1.0000
  C   C21       1.0  0.29173  0.64597  0.33504  1.0000
  N   N3        1.0  0.31376  0.68845  0.33504  1.0000
  C   C22       1.0  0.37894  0.62413  0.33518  1.0000
  C   C23       1.0  0.42233  0.64464  0.31691  1.0000
  C   C24       1.0  0.44438  0.62273  0.31677  1.0000
  C   C25       1.0  0.42408  0.57942  0.33545  1.0000
  C   C26       1.0  0.38076  0.55895  0.35417  1.0000
  C   C27       1.0  0.35864  0.58077  0.35369  1.0000
  C   C28       1.0  0.37836  0.75531  0.33516  1.0000
  C   C29       1.0  0.42172  0.77836  0.35366  1.0000
  C   C30       1.0  0.44354  0.82231  0.35412  1.0000
  C   C31       1.0  0.42307  0.84516  0.33543  1.0000
  C   C32       1.0  0.37975  0.82215  0.31675  1.0000
  C   C33       1.0  0.35785  0.77819  0.31689  1.0000
  C   C34       1.0  0.24718  0.62355  0.33520  1.0000
  C   C35       1.0  0.22412  0.64385  0.35373  1.0000
  C   C36       1.0  0.18018  0.62173  0.35418  1.0000
  C   C37       1.0  0.15733  0.57840  0.33548  1.0000
  C   C38       1.0  0.18034  0.55810  0.31682  1.0000
  C   C39       1.0  0.22430  0.58016  0.31696  1.0000
  H   H19       1.0  0.47464  0.83749  0.36990  1.0000
  H   H20       1.0  0.43797  0.76342  0.36844  1.0000
  H   H21       1.0  0.36371  0.83723  0.30122  1.0000
  H   H22       1.0  0.32665  0.76310  0.30211  1.0000
  H   H23       1.0  0.23906  0.67505  0.36844  1.0000
  H   H24       1.0  0.16499  0.63765  0.36992  1.0000
  H   H25       1.0  0.23938  0.56405  0.30213  1.0000
  H   H26       1.0  0.16526  0.52698  0.30126  1.0000
  H   H27       1.0  0.32744  0.56452  0.36845  1.0000
  H   H28       1.0  0.36484  0.52785  0.36991  1.0000
  H   H29       1.0  0.47551  0.63877  0.30124  1.0000
  H   H30       1.0  0.43844  0.67583  0.30214  1.0000
  C   C40       1.0  0.64626  0.29124  0.33394  1.0000
  N   N4        1.0  0.62630  0.31374  0.33401  1.0000
  C   C41       1.0  0.64697  0.35623  0.33395  1.0000
  N   N5        1.0  0.68943  0.37619  0.33402  1.0000
  C   C42       1.0  0.71124  0.35551  0.33395  1.0000
  N   N6        1.0  0.68874  0.31305  0.33401  1.0000
  C   C43       1.0  0.62508  0.37887  0.33472  1.0000
  C   C44       1.0  0.58198  0.35895  0.35584  1.0000
  C   C45       1.0  0.56048  0.38137  0.35798  1.0000
  C   C46       1.0  0.58108  0.42449  0.33766  1.0000
  C   C47       1.0  0.62397  0.44444  0.31550  1.0000
  C   C48       1.0  0.64563  0.42213  0.31484  1.0000
  C   C49       1.0  0.62361  0.24670  0.33472  1.0000
  C   C50       1.0  0.58036  0.22400  0.31483  1.0000
  C   C51       1.0  0.55804  0.18004  0.31553  1.0000
  C   C52       1.0  0.57798  0.15709  0.33767  1.0000
  C   C53       1.0  0.62110  0.17960  0.35798  1.0000
  C   C54       1.0  0.64353  0.22353  0.35584  1.0000
  C   C55       1.0  0.75578  0.37740  0.33474  1.0000
  C   C56       1.0  0.77849  0.35686  0.31486  1.0000
  C   C57       1.0  0.82245  0.37850  0.31556  1.0000
  C   C58       1.0  0.84540  0.42140  0.33770  1.0000
  C   C59       1.0  0.82289  0.44200  0.35805  1.0000
  C   C60       1.0  0.77895  0.42050  0.35586  1.0000
  H   H31       1.0  0.52677  0.16491  0.30132  1.0000
  H   H32       1.0  0.56452  0.23921  0.29869  1.0000
  H   H33       1.0  0.63681  0.16414  0.37325  1.0000
  H   H34       1.0  0.67466  0.23838  0.37123  1.0000
  H   H35       1.0  0.76328  0.32581  0.29871  1.0000
  H   H36       1.0  0.83758  0.36236  0.30134  1.0000
  H   H37       1.0  0.76411  0.43678  0.37123  1.0000
  H   H38       1.0  0.83835  0.47317  0.37325  1.0000
  H   H39       1.0  0.67668  0.43797  0.29869  1.0000
  H   H40       1.0  0.64011  0.47571  0.30132  1.0000
  H   H41       1.0  0.52931  0.36567  0.37325  1.0000
  H   H42       1.0  0.56570  0.32782  0.37123  1.0000
  C   C61       1.0  0.49068  0.51205  0.33730  1.0000
  C   C62       1.0  0.50828  0.55220  0.37580  1.0000
  C   C63       1.0  0.48649  0.57429  0.37498  1.0000
  H   H43       1.0  0.49991  0.60289  0.40541  1.0000
  C   C64       1.0  0.51379  0.49077  0.34144  1.0000
  C   C65       1.0  0.55913  0.44709  0.33941  1.0000
  C   C66       1.0  0.53424  0.44442  0.41370  1.0000
  C   C67       1.0  0.51167  0.46606  0.41631  1.0000
  H   H44       1.0  0.53297  0.42671  0.46750  1.0000
  H   H45       1.0  0.53703  0.56558  0.40574  1.0000
  C   C68       1.0  0.48620  0.46234  0.49649  1.0000
  H   H46       1.0  0.45354  0.44945  0.47749  1.0000
  H   H47       1.0  0.49748  0.49310  0.52622  1.0000
  H   H48       1.0  0.48760  0.44206  0.54774  1.0000
  C   C69       1.0  0.49043  0.97913  0.33731  1.0000
  C   C70       1.0  0.45027  0.95657  0.37581  1.0000
  C   C71       1.0  0.42818  0.91269  0.37492  1.0000
  H   H49       1.0  0.39960  0.89752  0.40541  1.0000
  C   C72       1.0  0.51170  0.02352  0.34146  1.0000
  C   C73       1.0  0.55538  0.11254  0.33943  1.0000
  C   C74       1.0  0.55805  0.09032  0.41372  1.0000
  C   C75       1.0  0.53641  0.04610  0.41633  1.0000
  H   H50       1.0  0.57578  0.10676  0.46751  1.0000
  H   H51       1.0  0.43690  0.97194  0.40576  1.0000
  C   C76       1.0  0.54014  0.02436  0.49650  1.0000
  H   H52       1.0  0.55303  0.00459  0.47749  1.0000
  H   H53       1.0  0.50939  0.00487  0.52623  1.0000
  H   H54       1.0  0.56042  0.04603  0.54775  1.0000
  C   C77       1.0  0.02336  0.51179  0.33735  1.0000
  C   C78       1.0  0.04592  0.49421  0.37587  1.0000
  C   C79       1.0  0.08979  0.51599  0.37501  1.0000
  H   H55       1.0  0.10497  0.50258  0.40545  1.0000
  C   C80       1.0  0.97897  0.48868  0.34150  1.0000
  C   C81       1.0  0.88995  0.44334  0.33946  1.0000
  C   C82       1.0  0.91216  0.46823  0.41375  1.0000
  C   C83       1.0  0.95638  0.49081  0.41636  1.0000
  H   H56       1.0  0.89573  0.46952  0.46753  1.0000
  H   H57       1.0  0.03055  0.46545  0.40579  1.0000
  C   C84       1.0  0.97812  0.51628  0.49652  1.0000
  H   H58       1.0  0.99789  0.54894  0.47752  1.0000
  H   H59       1.0  0.99761  0.50501  0.52626  1.0000
  H   H60       1.0  0.95645  0.51489  0.54778  1.0000
