data_image0
_chemical_formula_structural       C18H17C4NC2NCHCH2C2NC2NCHCH2C3NC3NC5NC4NC35H25C2H5C4H5
_chemical_formula_sum              "C88 H58 N8"
_cell_length_a       30.0257
_cell_length_b       30.0253
_cell_length_c       14.8785
_cell_angle_alpha    90
_cell_angle_beta     90
_cell_angle_gamma    89.9285

_space_group_name_H-M_alt    "P 1"
_space_group_IT_number       1

loop_
  _space_group_symop_operation_xyz
  'x, y, z'

loop_
  _atom_site_type_symbol
  _atom_site_label
  _atom_site_symmetry_multiplicity
  _atom_site_fract_x
  _atom_site_fract_y
  _atom_site_fract_z
  _atom_site_occupancy
  C   C1        1.0  0.09679  0.04743  0.34425  1.0000
  C   C2        1.0  0.99450  0.24074  0.26667  1.0000
  C   C3        1.0  0.99471  0.19380  0.26619  1.0000
  C   C4        1.0  0.96898  0.33759  0.29874  1.0000
  C   C5        1.0  0.96961  0.38451  0.29727  1.0000
  C   C6        1.0  0.00287  0.40888  0.34336  1.0000
  C   C7        1.0  0.23682  0.01054  0.26132  1.0000
  C   C8        1.0  0.18988  0.01037  0.26185  1.0000
  C   C9        1.0  0.38056  0.03696  0.28730  1.0000
  C   C10       1.0  0.33363  0.03666  0.28846  1.0000
  C   C11       1.0  0.00769  0.81624  0.26138  1.0000
  C   C12       1.0  0.00843  0.76931  0.26041  1.0000
  C   C13       1.0  0.03597  0.62561  0.28666  1.0000
  C   C14       1.0  0.03534  0.67255  0.28811  1.0000
  C   C15       1.0  0.81206  0.99746  0.26659  1.0000
  C   C16       1.0  0.76512  0.99713  0.26724  1.0000
  C   C17       1.0  0.66868  0.97075  0.30143  1.0000
  C   C18       1.0  0.62175  0.97097  0.30014  1.0000
  H   H1        1.0  0.60568  0.94589  0.26675  1.0000
  H   H2        1.0  0.68500  0.94553  0.26886  1.0000
  H   H3        1.0  0.74880  0.99252  0.20759  1.0000
  H   H4        1.0  0.82846  0.99252  0.20709  1.0000
  H   H5        1.0  0.01172  0.83317  0.20222  1.0000
  H   H6        1.0  0.01241  0.75356  0.19995  1.0000
  H   H7        1.0  0.09133  0.15490  0.34472  1.0000
  H   H8        1.0  0.17312  0.01426  0.20245  1.0000
  H   H9        1.0  0.25272  0.01399  0.20090  1.0000
  H   H10       1.0  0.31712  0.06026  0.25164  1.0000
  H   H11       1.0  0.39651  0.06056  0.24953  1.0000
  H   H12       1.0  0.99027  0.17736  0.20659  1.0000
  H   H13       1.0  0.99043  0.25701  0.20679  1.0000
  H   H14       1.0  0.94521  0.40082  0.26225  1.0000
  H   H15       1.0  0.94411  0.32152  0.26475  1.0000
  H   H16       1.0  0.05931  0.68924  0.25275  1.0000
  H   H17       1.0  0.06022  0.60983  0.25022  1.0000
  C   C19       1.0  0.00498  0.55281  0.33492  1.0000
  C   C20       1.0  0.00314  0.52760  0.25453  1.0000
  C   C21       1.0  0.00307  0.48022  0.25662  1.0000
  C   C22       1.0  0.00437  0.45662  0.33918  1.0000
  N   N1        1.0  0.00249  0.45850  0.17657  1.0000
  C   C23       1.0  0.00056  0.47863  0.09502  1.0000
  C   C24       1.0  0.99877  0.52584  0.09332  1.0000
  N   N2        1.0  0.00049  0.54773  0.17301  1.0000
  C   C25       1.0  0.00122  0.44993  0.01444  1.0000
  H   H18       1.0  0.00330  0.41472  0.03247  1.0000
  C   C26       1.0  0.99496  0.55372  0.01212  1.0000
  H   H19       1.0  0.02584  0.57219  0.00194  1.0000
  H   H20       1.0  0.96757  0.57734  0.01998  1.0000
  C   C27       1.0  0.47807  0.00246  0.25672  1.0000
  C   C28       1.0  0.52545  0.00251  0.25828  1.0000
  N   N3        1.0  0.54693  0.00031  0.17807  1.0000
  C   C29       1.0  0.52661  0.99665  0.09694  1.0000
  C   C30       1.0  0.47941  0.99482  0.09576  1.0000
  N   N4        1.0  0.45776  0.99811  0.17560  1.0000
  C   C31       1.0  0.55511  0.99599  0.01612  1.0000
  H   H21       1.0  0.59039  0.99777  0.03371  1.0000
  C   C32       1.0  0.45132  0.98959  0.01502  1.0000
  H   H22       1.0  0.43164  0.01974  0.00470  1.0000
  H   H23       1.0  0.42876  0.96148  0.02418  1.0000
  C   C33       1.0  0.88572  0.08744  0.34622  1.0000
  C   C34       1.0  0.91819  0.11999  0.34647  1.0000
  C   C35       1.0  0.95986  0.09919  0.34612  1.0000
  N   N5        1.0  0.95094  0.05484  0.34620  1.0000
  C   C36       1.0  0.90662  0.04582  0.34642  1.0000
  C   C37       1.0  0.88403  0.00407  0.34634  1.0000
  C   C38       1.0  0.90569  0.96190  0.34562  1.0000
  N   N6        1.0  0.94995  0.95324  0.34505  1.0000
  C   C39       1.0  0.95874  0.90901  0.34456  1.0000
  C   C40       1.0  0.91731  0.88790  0.34464  1.0000
  C   C41       1.0  0.88472  0.92039  0.34575  1.0000
  C   C42       1.0  0.00097  0.88747  0.34371  1.0000
  C   C43       1.0  0.04265  0.91016  0.34357  1.0000
  N   N7        1.0  0.05155  0.95450  0.34395  1.0000
  C   C44       1.0  0.09586  0.96352  0.34383  1.0000
  C   C45       1.0  0.11679  0.92191  0.34327  1.0000
  C   C46       1.0  0.08432  0.88936  0.34346  1.0000
  C   C47       1.0  0.11843  0.00526  0.34378  1.0000
  N   N8        1.0  0.05254  0.05610  0.34507  1.0000
  C   C48       1.0  0.04377  0.10033  0.34561  1.0000
  C   C49       1.0  0.08521  0.12142  0.34489  1.0000
  C   C50       1.0  0.11779  0.08892  0.34442  1.0000
  C   C51       1.0  0.00154  0.12188  0.34616  1.0000
  C   C52       1.0  0.00112  0.16959  0.34658  1.0000
  C   C53       1.0  0.00753  0.19357  0.42725  1.0000
  C   C54       1.0  0.00769  0.24052  0.42735  1.0000
  C   C55       1.0  0.00109  0.26515  0.34716  1.0000
  C   C56       1.0  0.00129  0.31296  0.34720  1.0000
  C   C57       1.0  0.03472  0.38437  0.39316  1.0000
  C   C58       1.0  0.03392  0.33742  0.39507  1.0000
  C   C59       1.0  0.16612  0.00494  0.34304  1.0000
  C   C60       1.0  0.19052  0.99947  0.42346  1.0000
  C   C61       1.0  0.23747  0.99941  0.42257  1.0000
  C   C62       1.0  0.26171  0.00509  0.34159  1.0000
  C   C63       1.0  0.30956  0.00544  0.34083  1.0000
  C   C64       1.0  0.33467  0.97468  0.39242  1.0000
  C   C65       1.0  0.38161  0.97501  0.39151  1.0000
  C   C66       1.0  0.40543  0.00600  0.33847  1.0000
  C   C67       1.0  0.00146  0.83978  0.34263  1.0000
  C   C68       1.0  0.00265  0.74421  0.34028  1.0000
  C   C69       1.0  0.99619  0.76819  0.42135  1.0000
  C   C70       1.0  0.99577  0.81514  0.42270  1.0000
  C   C71       1.0  0.00331  0.69638  0.33901  1.0000
  C   C72       1.0  0.97197  0.67109  0.38861  1.0000
  C   C73       1.0  0.97258  0.62416  0.38726  1.0000
  C   C74       1.0  0.00447  0.60052  0.33591  1.0000
  C   C75       1.0  0.83632  0.00438  0.34673  1.0000
  C   C76       1.0  0.81237  0.01124  0.42733  1.0000
  C   C77       1.0  0.76542  0.01135  0.42759  1.0000
  C   C78       1.0  0.74078  0.00411  0.34768  1.0000
  C   C79       1.0  0.69298  0.00393  0.34792  1.0000
  C   C80       1.0  0.59706  0.00471  0.34426  1.0000
  C   C81       1.0  0.62130  0.03746  0.39207  1.0000
  C   C82       1.0  0.66826  0.03703  0.39397  1.0000
  H   H24       1.0  0.60490  0.06276  0.42422  1.0000
  H   H25       1.0  0.68431  0.06214  0.42728  1.0000
  H   H26       1.0  0.74932  0.01586  0.48752  1.0000
  H   H27       1.0  0.82902  0.01612  0.48655  1.0000
  H   H28       1.0  0.85227  0.09377  0.34600  1.0000
  H   H29       1.0  0.91178  0.15343  0.34670  1.0000
  H   H30       1.0  0.97359  0.03225  0.34637  1.0000
  H   H31       1.0  0.02889  0.97710  0.34401  1.0000
  H   H32       1.0  0.85127  0.91418  0.34638  1.0000
  H   H33       1.0  0.91122  0.85442  0.34418  1.0000
  H   H34       1.0  0.99137  0.83126  0.48267  1.0000
  H   H35       1.0  0.99263  0.75163  0.48100  1.0000
  H   H36       1.0  0.09074  0.85592  0.34348  1.0000
  H   H37       1.0  0.15024  0.91560  0.34288  1.0000
  H   H38       1.0  0.15126  0.09509  0.34410  1.0000
  H   H39       1.0  0.17422  0.99569  0.48341  1.0000
  H   H40       1.0  0.25385  0.99613  0.48251  1.0000
  H   H41       1.0  0.39835  0.95174  0.42882  1.0000
  H   H42       1.0  0.31892  0.95095  0.43015  1.0000
  H   H43       1.0  0.05844  0.32116  0.42983  1.0000
  H   H44       1.0  0.05965  0.40056  0.42678  1.0000
  H   H45       1.0  0.01195  0.25663  0.48733  1.0000
  H   H46       1.0  0.01219  0.17695  0.48659  1.0000
  H   H47       1.0  0.94766  0.68669  0.42517  1.0000
  H   H48       1.0  0.94891  0.60728  0.42315  1.0000
  C   C83       1.0  0.00705  0.48212  0.41890  1.0000
  C   C84       1.0  0.00741  0.52902  0.41665  1.0000
  H   H49       1.0  0.01022  0.54607  0.47560  1.0000
  H   H50       1.0  0.00810  0.46662  0.47994  1.0000
  H   H51       1.0  0.03017  0.45812  0.64005  1.0000
  H   H52       1.0  0.97089  0.45492  0.64197  1.0000
  H   H53       1.0  0.98821  0.53382  0.61949  1.0000
  C   C85       1.0  0.45312  0.00608  0.33726  1.0000
  C   C86       1.0  0.54928  0.00573  0.34038  1.0000
  C   C87       1.0  0.52398  0.00994  0.42012  1.0000
  C   C88       1.0  0.47707  0.01012  0.41858  1.0000
  H   H54       1.0  0.46028  0.01407  0.47774  1.0000
  H   H55       1.0  0.53966  0.01235  0.48079  1.0000
  H   H56       1.0  0.54713  0.02467  0.64080  1.0000
  H   H57       1.0  0.54968  0.96537  0.64486  1.0000
  H   H58       1.0  0.47095  0.98329  0.62164  1.0000
