data_image0
_chemical_formula_structural       C8H8C2NCHC16H4C2NHCNC2NCH2C8H8C2NCHC16H4C2NHCNC2NCH2C8H8C2NCHC16H4C2NHCNC2NCH2C8H8C2NCHC16H4C2NHCNC2NCH2
_chemical_formula_sum              "C132 H64 N16"
_cell_length_a       25.1846
_cell_length_b       25.1846
_cell_length_c       14.9551
_cell_angle_alpha    90
_cell_angle_beta     90
_cell_angle_gamma    89.9977

_space_group_name_H-M_alt    "P 1"
_space_group_IT_number       1

loop_
  _space_group_symop_operation_xyz
  'x, y, z'

loop_
  _atom_site_type_symbol
  _atom_site_label
  _atom_site_symmetry_multiplicity
  _atom_site_fract_x
  _atom_site_fract_y
  _atom_site_fract_z
  _atom_site_occupancy
  C   C1        1.0  0.99851  0.47142  0.29272  1.0000
  C   C2        1.0  0.99848  0.02681  0.29210  1.0000
  C   C3        1.0  0.00485  0.13749  0.32584  1.0000
  C   C4        1.0  0.00175  0.11731  0.23730  1.0000
  C   C5        1.0  0.99875  0.06260  0.22023  1.0000
  C   C6        1.0  0.99902  0.43496  0.22180  1.0000
  C   C7        1.0  0.00191  0.38040  0.24031  1.0000
  C   C8        1.0  0.00370  0.36099  0.32943  1.0000
  H   H1        1.0  0.14239  0.00171  0.03555  1.0000
  H   H2        1.0  0.04959  0.99765  0.06294  1.0000
  H   H3        1.0  0.44733  0.49826  0.06167  1.0000
  H   H4        1.0  0.35476  0.50262  0.03177  1.0000
  H   H5        1.0  0.00171  0.14240  0.18345  1.0000
  H   H6        1.0  0.99764  0.04961  0.15606  1.0000
  H   H7        1.0  0.99816  0.44736  0.15729  1.0000
  H   H8        1.0  0.00249  0.35479  0.18713  1.0000
  C   C9        1.0  0.01051  0.19339  0.33888  1.0000
  C   C10       1.0  0.04368  0.22405  0.28275  1.0000
  N   N1        1.0  0.54037  0.27759  0.28558  1.0000
  C   C11       1.0  0.50874  0.30512  0.34285  1.0000
  H   H9        1.0  0.06798  0.20699  0.23618  1.0000
  C   C12       1.0  0.99969  0.45359  0.38120  1.0000
  C   C13       1.0  0.99983  0.04544  0.38015  1.0000
  C   C14       1.0  0.00228  0.10072  0.39777  1.0000
  C   C15       1.0  0.00145  0.39846  0.40033  1.0000
  C   C16       1.0  0.04544  0.99977  0.50550  1.0000
  C   C17       1.0  0.02681  0.99848  0.59355  1.0000
  C   C18       1.0  0.47141  0.49853  0.59290  1.0000
  C   C19       1.0  0.45359  0.49969  0.50442  1.0000
  C   C20       1.0  0.43494  0.49911  0.66381  1.0000
  C   C21       1.0  0.38038  0.50201  0.64527  1.0000
  C   C22       1.0  0.36098  0.50378  0.55615  1.0000
  C   C23       1.0  0.39847  0.50154  0.48526  1.0000
  C   C24       1.0  0.10073  0.00217  0.48789  1.0000
  C   C25       1.0  0.13749  0.00482  0.55982  1.0000
  C   C26       1.0  0.11730  0.00173  0.64837  1.0000
  C   C27       1.0  0.06259  0.99873  0.66543  1.0000
  H   H10       1.0  0.38615  0.50345  0.42019  1.0000
  H   H11       1.0  0.11368  0.00450  0.42319  1.0000
  H   H12       1.0  0.00451  0.11368  0.46247  1.0000
  H   H13       1.0  0.00342  0.38612  0.46539  1.0000
  C   C28       1.0  0.99975  0.99974  0.44282  1.0000
  C   C29       1.0  0.47877  0.27475  0.40438  1.0000
  N   N2        1.0  0.97973  0.22065  0.39834  1.0000
  H   H14       1.0  0.45277  0.29244  0.44751  1.0000
  C   C30       1.0  0.22403  0.54370  0.60282  1.0000
  N   N3        1.0  0.27757  0.54042  0.59996  1.0000
  C   C31       1.0  0.30512  0.50884  0.54262  1.0000
  C   C32       1.0  0.27474  0.47873  0.48132  1.0000
  N   N4        1.0  0.22064  0.47969  0.48732  1.0000
  C   C33       1.0  0.19339  0.51048  0.54676  1.0000
  H   H15       1.0  0.20697  0.56793  0.64951  1.0000
  H   H16       1.0  0.29246  0.45282  0.43806  1.0000
  C   C34       1.0  0.99851  0.97142  0.29272  1.0000
  C   C35       1.0  0.99848  0.52682  0.29210  1.0000
  C   C36       1.0  0.00485  0.63749  0.32584  1.0000
  C   C37       1.0  0.00175  0.61731  0.23730  1.0000
  C   C38       1.0  0.99875  0.56259  0.22023  1.0000
  C   C39       1.0  0.99902  0.93496  0.22180  1.0000
  C   C40       1.0  0.00191  0.88040  0.24031  1.0000
  C   C41       1.0  0.00369  0.86099  0.32942  1.0000
  H   H17       1.0  0.14239  0.50170  0.03555  1.0000
  H   H18       1.0  0.04959  0.49765  0.06294  1.0000
  H   H19       1.0  0.44732  0.99826  0.06167  1.0000
  H   H20       1.0  0.35476  0.00262  0.03177  1.0000
  H   H21       1.0  0.00171  0.64240  0.18345  1.0000
  H   H22       1.0  0.99764  0.54961  0.15606  1.0000
  H   H23       1.0  0.99816  0.94736  0.15729  1.0000
  H   H24       1.0  0.00249  0.85479  0.18713  1.0000
  C   C42       1.0  0.01051  0.69339  0.33888  1.0000
  C   C43       1.0  0.04368  0.72405  0.28275  1.0000
  N   N5        1.0  0.54037  0.77759  0.28557  1.0000
  C   C44       1.0  0.50874  0.80512  0.34285  1.0000
  H   H25       1.0  0.06798  0.70698  0.23617  1.0000
  C   C45       1.0  0.99969  0.95359  0.38120  1.0000
  C   C46       1.0  0.99983  0.54544  0.38015  1.0000
  C   C47       1.0  0.00228  0.60072  0.39777  1.0000
  C   C48       1.0  0.00145  0.89846  0.40033  1.0000
  C   C49       1.0  0.04544  0.49977  0.50550  1.0000
  C   C50       1.0  0.02681  0.49848  0.59355  1.0000
  C   C51       1.0  0.47141  0.99853  0.59290  1.0000
  C   C52       1.0  0.45359  0.99969  0.50442  1.0000
  C   C53       1.0  0.43494  0.99911  0.66381  1.0000
  C   C54       1.0  0.38037  0.00201  0.64527  1.0000
  C   C55       1.0  0.36098  0.00378  0.55615  1.0000
  C   C56       1.0  0.39847  0.00154  0.48526  1.0000
  C   C57       1.0  0.10073  0.50217  0.48789  1.0000
  C   C58       1.0  0.13749  0.50482  0.55982  1.0000
  C   C59       1.0  0.11730  0.50173  0.64837  1.0000
  C   C60       1.0  0.06259  0.49874  0.66543  1.0000
  H   H26       1.0  0.38614  0.00346  0.42019  1.0000
  H   H27       1.0  0.11368  0.50450  0.42319  1.0000
  H   H28       1.0  0.00451  0.61368  0.46247  1.0000
  H   H29       1.0  0.00342  0.88612  0.46539  1.0000
  C   C61       1.0  0.99975  0.49974  0.44282  1.0000
  C   C62       1.0  0.47877  0.77474  0.40438  1.0000
  N   N6        1.0  0.97973  0.72064  0.39833  1.0000
  H   H30       1.0  0.45277  0.79244  0.44751  1.0000
  C   C63       1.0  0.22402  0.04370  0.60282  1.0000
  N   N7        1.0  0.27757  0.04042  0.59996  1.0000
  C   C64       1.0  0.30512  0.00884  0.54262  1.0000
  C   C65       1.0  0.27474  0.97873  0.48132  1.0000
  N   N8        1.0  0.22064  0.97969  0.48732  1.0000
  C   C66       1.0  0.19339  0.01048  0.54676  1.0000
  H   H31       1.0  0.20697  0.06793  0.64951  1.0000
  H   H32       1.0  0.29246  0.95281  0.43806  1.0000
  C   C67       1.0  0.49851  0.47142  0.29272  1.0000
  C   C68       1.0  0.49848  0.02681  0.29210  1.0000
  C   C69       1.0  0.50485  0.13749  0.32584  1.0000
  C   C70       1.0  0.50175  0.11731  0.23730  1.0000
  C   C71       1.0  0.49875  0.06260  0.22023  1.0000
  C   C72       1.0  0.49902  0.43496  0.22180  1.0000
  C   C73       1.0  0.50191  0.38040  0.24031  1.0000
  C   C74       1.0  0.50370  0.36099  0.32943  1.0000
  H   H33       1.0  0.64239  0.00171  0.03555  1.0000
  H   H34       1.0  0.54959  0.99765  0.06294  1.0000
  H   H35       1.0  0.94732  0.49826  0.06167  1.0000
  H   H36       1.0  0.85476  0.50262  0.03177  1.0000
  H   H37       1.0  0.50171  0.14240  0.18345  1.0000
  H   H38       1.0  0.49764  0.04961  0.15606  1.0000
  H   H39       1.0  0.49816  0.44736  0.15729  1.0000
  H   H40       1.0  0.50249  0.35479  0.18713  1.0000
  C   C75       1.0  0.51052  0.19339  0.33888  1.0000
  C   C76       1.0  0.54368  0.22405  0.28275  1.0000
  N   N9        1.0  0.04037  0.27759  0.28558  1.0000
  C   C77       1.0  0.00874  0.30512  0.34285  1.0000
  H   H41       1.0  0.56798  0.20699  0.23618  1.0000
  C   C78       1.0  0.49969  0.45359  0.38120  1.0000
  C   C79       1.0  0.49983  0.04544  0.38015  1.0000
  C   C80       1.0  0.50228  0.10072  0.39777  1.0000
  C   C81       1.0  0.50145  0.39846  0.40033  1.0000
  C   C82       1.0  0.54544  0.99977  0.50550  1.0000
  C   C83       1.0  0.52681  0.99848  0.59355  1.0000
  C   C84       1.0  0.97141  0.49853  0.59290  1.0000
  C   C85       1.0  0.95359  0.49969  0.50442  1.0000
  C   C86       1.0  0.93494  0.49911  0.66381  1.0000
  C   C87       1.0  0.88038  0.50201  0.64527  1.0000
  C   C88       1.0  0.86098  0.50378  0.55615  1.0000
  C   C89       1.0  0.89848  0.50154  0.48526  1.0000
  C   C90       1.0  0.60073  0.00217  0.48789  1.0000
  C   C91       1.0  0.63749  0.00482  0.55982  1.0000
  C   C92       1.0  0.61730  0.00173  0.64837  1.0000
  C   C93       1.0  0.56259  0.99873  0.66543  1.0000
  H   H42       1.0  0.88615  0.50345  0.42019  1.0000
  H   H43       1.0  0.61368  0.00450  0.42319  1.0000
  H   H44       1.0  0.50451  0.11368  0.46247  1.0000
  H   H45       1.0  0.50342  0.38612  0.46539  1.0000
  C   C94       1.0  0.49975  0.99974  0.44282  1.0000
  C   C95       1.0  0.97877  0.27475  0.40438  1.0000
  N   N10       1.0  0.47973  0.22065  0.39834  1.0000
  H   H46       1.0  0.95277  0.29244  0.44751  1.0000
  C   C96       1.0  0.72403  0.54370  0.60282  1.0000
  N   N11       1.0  0.77757  0.54042  0.59996  1.0000
  C   C97       1.0  0.80512  0.50884  0.54262  1.0000
  C   C98       1.0  0.77474  0.47873  0.48132  1.0000
  N   N12       1.0  0.72064  0.47969  0.48732  1.0000
  C   C99       1.0  0.69339  0.51048  0.54676  1.0000
  H   H47       1.0  0.70697  0.56793  0.64951  1.0000
  H   H48       1.0  0.79246  0.45282  0.43806  1.0000
  C   C100      1.0  0.49851  0.97142  0.29272  1.0000
  C   C101      1.0  0.49848  0.52682  0.29210  1.0000
  C   C102      1.0  0.50485  0.63749  0.32584  1.0000
  C   C103      1.0  0.50175  0.61731  0.23730  1.0000
  C   C104      1.0  0.49875  0.56259  0.22023  1.0000
  C   C105      1.0  0.49902  0.93496  0.22180  1.0000
  C   C106      1.0  0.50191  0.88040  0.24031  1.0000
  C   C107      1.0  0.50370  0.86099  0.32942  1.0000
  H   H49       1.0  0.64239  0.50170  0.03555  1.0000
  H   H50       1.0  0.54959  0.49765  0.06294  1.0000
  H   H51       1.0  0.94732  0.99826  0.06167  1.0000
  H   H52       1.0  0.85475  0.00262  0.03177  1.0000
  H   H53       1.0  0.50171  0.64240  0.18345  1.0000
  H   H54       1.0  0.49764  0.54961  0.15606  1.0000
  H   H55       1.0  0.49816  0.94736  0.15729  1.0000
  H   H56       1.0  0.50249  0.85479  0.18713  1.0000
  C   C108      1.0  0.51052  0.69339  0.33888  1.0000
  C   C109      1.0  0.54368  0.72405  0.28275  1.0000
  N   N13       1.0  0.04037  0.77759  0.28557  1.0000
  C   C110      1.0  0.00874  0.80512  0.34285  1.0000
  H   H57       1.0  0.56798  0.70698  0.23617  1.0000
  C   C111      1.0  0.49969  0.95359  0.38120  1.0000
  C   C112      1.0  0.49983  0.54544  0.38015  1.0000
  C   C113      1.0  0.50228  0.60072  0.39777  1.0000
  C   C114      1.0  0.50145  0.89846  0.40033  1.0000
  C   C115      1.0  0.54544  0.49977  0.50550  1.0000
  C   C116      1.0  0.52681  0.49848  0.59355  1.0000
  C   C117      1.0  0.97141  0.99853  0.59290  1.0000
  C   C118      1.0  0.95359  0.99969  0.50442  1.0000
  C   C119      1.0  0.93494  0.99911  0.66381  1.0000
  C   C120      1.0  0.88037  0.00201  0.64527  1.0000
  C   C121      1.0  0.86098  0.00378  0.55615  1.0000
  C   C122      1.0  0.89847  0.00154  0.48526  1.0000
  C   C123      1.0  0.60073  0.50217  0.48789  1.0000
  C   C124      1.0  0.63749  0.50482  0.55982  1.0000
  C   C125      1.0  0.61730  0.50173  0.64837  1.0000
  C   C126      1.0  0.56259  0.49874  0.66543  1.0000
  H   H58       1.0  0.88614  0.00346  0.42019  1.0000
  H   H59       1.0  0.61368  0.50450  0.42319  1.0000
  H   H60       1.0  0.50451  0.61368  0.46247  1.0000
  H   H61       1.0  0.50342  0.88612  0.46539  1.0000
  C   C127      1.0  0.49975  0.49974  0.44282  1.0000
  C   C128      1.0  0.97877  0.77474  0.40438  1.0000
  N   N14       1.0  0.47973  0.72064  0.39833  1.0000
  H   H62       1.0  0.95277  0.79244  0.44751  1.0000
  C   C129      1.0  0.72403  0.04370  0.60282  1.0000
  N   N15       1.0  0.77757  0.04042  0.59996  1.0000
  C   C130      1.0  0.80512  0.00884  0.54262  1.0000
  C   C131      1.0  0.77474  0.97873  0.48132  1.0000
  N   N16       1.0  0.72064  0.97969  0.48732  1.0000
  C   C132      1.0  0.69339  0.01048  0.54676  1.0000
  H   H63       1.0  0.70697  0.06793  0.64951  1.0000
  H   H64       1.0  0.79246  0.95281  0.43806  1.0000
