data_image0
_chemical_formula_structural       C4H2C4H2N2C4H2C4H2N2C4H2C4H2N2C3NH2NH2CHC3NH2NH2CHC3NH2NH2CHC3NH2NH2CHC3NH2NH2CHC3NH2NH2CHC2HC2HN2C2HC2HN2C2HC2HN2C3NH2NH2CHC3NH2NH2CHC3NH2NH2CHC3NH2NH2CHC3NH2NH2CHC3NH2NH2CH
_chemical_formula_sum              "C84 H78 N36"
_cell_length_a       31.9425
_cell_length_b       31.9426
_cell_length_c       15.0094
_cell_angle_alpha    90
_cell_angle_beta     90
_cell_angle_gamma    120

_space_group_name_H-M_alt    "P 1"
_space_group_IT_number       1

loop_
  _space_group_symop_operation_xyz
  'x, y, z'

loop_
  _atom_site_type_symbol
  _atom_site_label
  _atom_site_symmetry_multiplicity
  _atom_site_fract_x
  _atom_site_fract_y
  _atom_site_fract_z
  _atom_site_occupancy
  C   C1        1.0  0.97342  0.48578  0.36176  1.0000
  C   C2        1.0  0.87115  0.42872  0.34051  1.0000
  C   C3        1.0  0.89839  0.40577  0.35526  1.0000
  C   C4        1.0  0.94821  0.43455  0.37278  1.0000
  H   H1        1.0  0.96631  0.41669  0.38776  1.0000
  H   H2        1.0  0.83458  0.40807  0.33206  1.0000
  C   C5        1.0  0.02522  0.51408  0.36199  1.0000
  C   C6        1.0  0.05047  0.56531  0.37289  1.0000
  C   C7        1.0  0.10039  0.59401  0.35607  1.0000
  C   C8        1.0  0.12762  0.57096  0.34220  1.0000
  H   H3        1.0  0.03236  0.58324  0.38720  1.0000
  H   H4        1.0  0.16422  0.59152  0.33422  1.0000
  N   N1        1.0  0.12095  0.64285  0.35370  1.0000
  N   N2        1.0  0.87793  0.35694  0.35334  1.0000
  C   C9        1.0  0.51350  0.48784  0.36185  1.0000
  C   C10       1.0  0.57024  0.44217  0.34231  1.0000
  C   C11       1.0  0.59335  0.49245  0.35625  1.0000
  C   C12       1.0  0.56472  0.51375  0.37288  1.0000
  H   H5        1.0  0.58266  0.54975  0.38748  1.0000
  H   H6        1.0  0.59077  0.42610  0.33432  1.0000
  C   C13       1.0  0.48533  0.51149  0.36157  1.0000
  C   C14       1.0  0.43412  0.48562  0.37264  1.0000
  C   C15       1.0  0.40547  0.50685  0.35555  1.0000
  C   C16       1.0  0.42857  0.55707  0.34098  1.0000
  H   H7        1.0  0.41617  0.44966  0.38770  1.0000
  H   H8        1.0  0.40804  0.57312  0.33270  1.0000
  N   N3        1.0  0.35664  0.47861  0.35370  1.0000
  N   N4        1.0  0.64217  0.52075  0.35385  1.0000
  C   C17       1.0  0.51125  0.02528  0.36167  1.0000
  C   C18       1.0  0.55656  0.12768  0.34203  1.0000
  C   C19       1.0  0.50632  0.10036  0.35624  1.0000
  C   C20       1.0  0.48520  0.05044  0.37286  1.0000
  H   H9        1.0  0.44922  0.03227  0.38762  1.0000
  H   H10       1.0  0.57253  0.16428  0.33413  1.0000
  C   C21       1.0  0.48780  0.97348  0.36143  1.0000
  C   C22       1.0  0.51391  0.94835  0.37209  1.0000
  C   C23       1.0  0.49292  0.89853  0.35468  1.0000
  C   C24       1.0  0.44270  0.87120  0.34024  1.0000
  H   H11       1.0  0.54988  0.96650  0.38703  1.0000
  H   H12       1.0  0.42683  0.83465  0.33170  1.0000
  N   N5        1.0  0.52138  0.87819  0.35238  1.0000
  N   N6        1.0  0.47796  0.12083  0.35443  1.0000
  C   C25       1.0  0.27537  0.46559  0.31321  1.0000
  C   C26       1.0  0.24776  0.46602  0.23893  1.0000
  C   C27       1.0  0.20970  0.47657  0.25227  1.0000
  N   N7        1.0  0.25801  0.45425  0.15712  1.0000
  H   H13       1.0  0.28079  0.44258  0.15137  1.0000
  H   H14       1.0  0.23678  0.44723  0.10653  1.0000
  N   N8        1.0  0.18773  0.48413  0.18050  1.0000
  H   H15       1.0  0.16212  0.49170  0.18671  1.0000
  H   H16       1.0  0.19835  0.48518  0.11981  1.0000
  C   C28       1.0  0.32566  0.48444  0.30057  1.0000
  H   H17       1.0  0.34079  0.50520  0.24485  1.0000
  C   C29       1.0  0.53480  0.81026  0.31129  1.0000
  C   C30       1.0  0.53420  0.78223  0.23688  1.0000
  C   C31       1.0  0.52361  0.73361  0.25016  1.0000
  N   N9        1.0  0.54588  0.80432  0.15515  1.0000
  H   H18       1.0  0.55731  0.83871  0.14919  1.0000
  H   H19       1.0  0.55213  0.79001  0.10377  1.0000
  N   N10       1.0  0.51634  0.70414  0.17841  1.0000
  H   H20       1.0  0.50888  0.67100  0.18470  1.0000
  H   H21       1.0  0.51568  0.71379  0.11764  1.0000
  C   C32       1.0  0.51571  0.84154  0.29898  1.0000
  H   H22       1.0  0.49484  0.83585  0.24339  1.0000
  C   C33       1.0  0.18931  0.72399  0.31227  1.0000
  C   C34       1.0  0.21724  0.75112  0.23752  1.0000
  C   C35       1.0  0.26597  0.78903  0.25028  1.0000
  N   N11       1.0  0.19498  0.74059  0.15595  1.0000
  H   H23       1.0  0.16054  0.71775  0.15027  1.0000
  H   H24       1.0  0.20926  0.76096  0.10435  1.0000
  N   N12       1.0  0.29532  0.81097  0.17828  1.0000
  H   H25       1.0  0.32849  0.83664  0.18431  1.0000
  H   H26       1.0  0.28553  0.80054  0.11761  1.0000
  C   C36       1.0  0.15778  0.67363  0.30036  1.0000
  H   H27       1.0  0.16333  0.65826  0.24489  1.0000
  C   C37       1.0  0.72337  0.53391  0.31212  1.0000
  C   C38       1.0  0.75071  0.53348  0.23740  1.0000
  C   C39       1.0  0.78906  0.52330  0.25016  1.0000
  N   N13       1.0  0.73984  0.54483  0.15578  1.0000
  H   H28       1.0  0.71666  0.55599  0.15006  1.0000
  H   H29       1.0  0.76017  0.55103  0.10408  1.0000
  N   N14       1.0  0.81138  0.51635  0.17825  1.0000
  H   H30       1.0  0.83748  0.50948  0.18440  1.0000
  H   H31       1.0  0.80111  0.51579  0.11749  1.0000
  C   C40       1.0  0.67297  0.51476  0.30048  1.0000
  H   H32       1.0  0.65762  0.49378  0.24508  1.0000
  C   C41       1.0  0.46486  0.18907  0.31393  1.0000
  C   C42       1.0  0.46522  0.21702  0.23956  1.0000
  C   C43       1.0  0.47572  0.26562  0.25273  1.0000
  N   N15       1.0  0.45342  0.19491  0.15783  1.0000
  H   H33       1.0  0.44179  0.16048  0.15219  1.0000
  H   H34       1.0  0.44632  0.20905  0.10721  1.0000
  N   N16       1.0  0.48328  0.29508  0.18084  1.0000
  H   H35       1.0  0.49080  0.32825  0.18693  1.0000
  H   H36       1.0  0.48438  0.28547  0.12020  1.0000
  C   C44       1.0  0.48377  0.15766  0.30136  1.0000
  H   H37       1.0  0.50456  0.16334  0.24566  1.0000
  C   C45       1.0  0.80981  0.27556  0.31278  1.0000
  C   C46       1.0  0.78180  0.24801  0.23845  1.0000
  C   C47       1.0  0.73319  0.20994  0.25177  1.0000
  N   N17       1.0  0.80390  0.25827  0.15673  1.0000
  H   H38       1.0  0.83828  0.28124  0.15071  1.0000
  H   H39       1.0  0.78963  0.23753  0.10554  1.0000
  N   N18       1.0  0.70373  0.18782  0.17998  1.0000
  H   H40       1.0  0.67055  0.16224  0.18620  1.0000
  H   H41       1.0  0.71335  0.19832  0.11926  1.0000
  C   C48       1.0  0.84117  0.32589  0.30017  1.0000
  H   H42       1.0  0.83549  0.34099  0.24446  1.0000
  C   C49       1.0  0.94404  0.50698  0.34535  1.0000
  C   C50       1.0  0.89325  0.47950  0.34031  1.0000
  H   H43       1.0  0.95910  0.54331  0.33613  1.0000
  C   C51       1.0  0.10539  0.52018  0.34176  1.0000
  C   C52       1.0  0.05458  0.49282  0.34596  1.0000
  H   H44       1.0  0.03949  0.45649  0.33653  1.0000
  N   N19       1.0  0.13069  0.49654  0.33523  1.0000
  N   N20       1.0  0.86783  0.50301  0.33342  1.0000
  C   C53       1.0  0.49215  0.43721  0.34582  1.0000
  C   C54       1.0  0.51944  0.41369  0.34170  1.0000
  H   H45       1.0  0.45582  0.41604  0.33637  1.0000
  C   C55       1.0  0.47937  0.58557  0.34039  1.0000
  C   C56       1.0  0.50667  0.56207  0.34508  1.0000
  H   H46       1.0  0.54301  0.58322  0.33563  1.0000
  N   N21       1.0  0.50308  0.63449  0.33348  1.0000
  N   N22       1.0  0.49574  0.36475  0.33526  1.0000
  C   C57       1.0  0.56184  0.05473  0.34542  1.0000
  C   C58       1.0  0.58520  0.10554  0.34125  1.0000
  H   H47       1.0  0.58312  0.03970  0.33580  1.0000
  C   C59       1.0  0.41395  0.89323  0.34023  1.0000
  C   C60       1.0  0.43721  0.94402  0.34526  1.0000
  H   H48       1.0  0.41587  0.95904  0.33620  1.0000
  N   N23       1.0  0.36502  0.86773  0.33345  1.0000
  N   N24       1.0  0.63414  0.13092  0.33462  1.0000
  C   C61       1.0  0.19981  0.48514  0.34128  1.0000
  C   C62       1.0  0.22145  0.47524  0.41582  1.0000
  C   C63       1.0  0.25638  0.46054  0.40072  1.0000
  N   N25       1.0  0.27168  0.44197  0.46699  1.0000
  H   H49       1.0  0.25560  0.43307  0.52418  1.0000
  H   H50       1.0  0.28896  0.42516  0.45188  1.0000
  N   N26       1.0  0.20811  0.47934  0.50070  1.0000
  H   H51       1.0  0.18167  0.48531  0.51262  1.0000
  H   H52       1.0  0.22533  0.47829  0.55295  1.0000
  C   C64       1.0  0.17797  0.51374  0.35385  1.0000
  H   H53       1.0  0.19278  0.54089  0.40021  1.0000
  C   C65       1.0  0.51483  0.71504  0.33913  1.0000
  C   C66       1.0  0.52479  0.74655  0.41373  1.0000
  C   C67       1.0  0.53973  0.79625  0.39878  1.0000
  N   N27       1.0  0.55839  0.83007  0.46511  1.0000
  H   H54       1.0  0.56721  0.82279  0.52228  1.0000
  H   H55       1.0  0.57530  0.86417  0.45004  1.0000
  N   N28       1.0  0.52045  0.72899  0.49855  1.0000
  H   H56       1.0  0.51423  0.69648  0.51037  1.0000
  H   H57       1.0  0.52157  0.74727  0.55083  1.0000
  C   C68       1.0  0.48582  0.66460  0.35130  1.0000
  H   H58       1.0  0.45857  0.65260  0.39739  1.0000
  C   C69       1.0  0.28475  0.79910  0.33908  1.0000
  C   C70       1.0  0.25339  0.77788  0.41399  1.0000
  C   C71       1.0  0.20364  0.74312  0.39957  1.0000
  N   N29       1.0  0.17003  0.72821  0.46620  1.0000
  H   H59       1.0  0.17738  0.74385  0.52384  1.0000
  H   H60       1.0  0.13581  0.71065  0.45212  1.0000
  N   N30       1.0  0.27122  0.79148  0.49856  1.0000
  H   H61       1.0  0.30378  0.81782  0.50989  1.0000
  H   H62       1.0  0.25307  0.77467  0.55118  1.0000
  C   C72       1.0  0.33519  0.82021  0.35068  1.0000
  H   H63       1.0  0.34745  0.80548  0.39728  1.0000
  C   C73       1.0  0.79922  0.51471  0.33893  1.0000
  C   C74       1.0  0.77783  0.52462  0.41384  1.0000
  C   C75       1.0  0.74277  0.53921  0.39935  1.0000
  N   N31       1.0  0.72763  0.55772  0.46599  1.0000
  H   H64       1.0  0.74395  0.56671  0.52296  1.0000
  H   H65       1.0  0.71019  0.57441  0.45126  1.0000
  N   N32       1.0  0.79155  0.52058  0.49843  1.0000
  H   H66       1.0  0.81804  0.51460  0.50977  1.0000
  H   H67       1.0  0.77456  0.52166  0.55101  1.0000
  C   C76       1.0  0.82033  0.48538  0.35065  1.0000
  H   H68       1.0  0.80555  0.45838  0.39724  1.0000
  C   C77       1.0  0.48426  0.28416  0.34166  1.0000
  C   C78       1.0  0.47438  0.25268  0.41631  1.0000
  C   C79       1.0  0.45982  0.20306  0.40139  1.0000
  N   N33       1.0  0.44139  0.16926  0.46780  1.0000
  H   H69       1.0  0.43252  0.17646  0.52499  1.0000
  H   H70       1.0  0.42467  0.13516  0.45282  1.0000
  N   N34       1.0  0.47838  0.27020  0.50110  1.0000
  H   H71       1.0  0.48423  0.30258  0.51286  1.0000
  H   H72       1.0  0.47732  0.25200  0.55348  1.0000
  C   C80       1.0  0.51286  0.33462  0.35412  1.0000
  H   H73       1.0  0.53999  0.34698  0.40053  1.0000
  C   C81       1.0  0.71465  0.20011  0.34076  1.0000
  C   C82       1.0  0.74616  0.22182  0.41532  1.0000
  C   C83       1.0  0.79582  0.25671  0.40033  1.0000
  N   N35       1.0  0.82964  0.27204  0.46669  1.0000
  H   H74       1.0  0.82240  0.25601  0.52394  1.0000
  H   H75       1.0  0.86374  0.28927  0.45163  1.0000
  N   N36       1.0  0.72865  0.20858  0.50018  1.0000
  H   H76       1.0  0.69622  0.18217  0.51210  1.0000
  H   H77       1.0  0.74689  0.22584  0.55243  1.0000
  C   C84       1.0  0.66419  0.17823  0.35312  1.0000
  H   H78       1.0  0.65179  0.19303  0.39940  1.0000
