data_image0
_chemical_formula_structural       C5H2NH2NO2C5H2NH2NO2C5H2NH2NO2C24H15C24H15C3HC4HN2H2O2C3HC4HN2H2O2C3HC4HN2H2O2
_chemical_formula_sum              "C84 H54 N12 O12"
_cell_length_a       37.2507
_cell_length_b       37.2507
_cell_length_c       14.7648
_cell_angle_alpha    90
_cell_angle_beta     90
_cell_angle_gamma    120

_space_group_name_H-M_alt    "P 1"
_space_group_IT_number       1

loop_
  _space_group_symop_operation_xyz
  'x, y, z'

loop_
  _atom_site_type_symbol
  _atom_site_label
  _atom_site_symmetry_multiplicity
  _atom_site_fract_x
  _atom_site_fract_y
  _atom_site_fract_z
  _atom_site_occupancy
  C   C1        1.0  0.45691  0.56380  0.34902  1.0000
  C   C2        1.0  0.44294  0.52680  0.29868  1.0000
  C   C3        1.0  0.46631  0.50633  0.30057  1.0000
  C   C4        1.0  0.54175  0.49372  0.26954  1.0000
  C   C5        1.0  0.56396  0.47200  0.26695  1.0000
  H   H1        1.0  0.53895  0.50725  0.21156  1.0000
  H   H2        1.0  0.45576  0.47947  0.26424  1.0000
  N   N1        1.0  0.58114  0.47059  0.18646  1.0000
  H   H3        1.0  0.57807  0.48372  0.13228  1.0000
  H   H4        1.0  0.59865  0.45828  0.18091  1.0000
  N   N2        1.0  0.40641  0.51153  0.24602  1.0000
  O   O1        1.0  0.37945  0.47573  0.27052  1.0000
  O   O2        1.0  0.41386  0.51061  0.16331  1.0000
  C   C6        1.0  0.45610  0.89705  0.34937  1.0000
  C   C7        1.0  0.49305  0.92009  0.29891  1.0000
  C   C8        1.0  0.51350  0.96394  0.30074  1.0000
  C   C9        1.0  0.52614  0.05194  0.26955  1.0000
  C   C10       1.0  0.54785  0.09586  0.26683  1.0000
  H   H5        1.0  0.51264  0.03558  0.21159  1.0000
  H   H6        1.0  0.54033  0.98024  0.26435  1.0000
  N   N3        1.0  0.54932  0.11440  0.18624  1.0000
  H   H7        1.0  0.53616  0.09817  0.13213  1.0000
  H   H8        1.0  0.56156  0.14422  0.18065  1.0000
  N   N4        1.0  0.50832  0.89885  0.24620  1.0000
  O   O3        1.0  0.54415  0.90773  0.27059  1.0000
  O   O4        1.0  0.50918  0.90719  0.16348  1.0000
  C   C11       1.0  0.12290  0.56303  0.34924  1.0000
  C   C12       1.0  0.09988  0.57698  0.29882  1.0000
  C   C13       1.0  0.05604  0.55362  0.30070  1.0000
  C   C14       1.0  0.96797  0.47860  0.26939  1.0000
  C   C15       1.0  0.92405  0.45645  0.26668  1.0000
  H   H9        1.0  0.98431  0.48166  0.21129  1.0000
  H   H10       1.0  0.03975  0.56418  0.26434  1.0000
  N   N5        1.0  0.90549  0.43971  0.18590  1.0000
  H   H11       1.0  0.92170  0.44306  0.13160  1.0000
  H   H12       1.0  0.87566  0.42228  0.18018  1.0000
  N   N6        1.0  0.12115  0.61348  0.24607  1.0000
  O   O5        1.0  0.11231  0.64046  0.27041  1.0000
  O   O6        1.0  0.11279  0.60597  0.16336  1.0000
  C   C16       1.0  0.30077  0.65228  0.34966  1.0000
  C   C17       1.0  0.32373  0.63131  0.34962  1.0000
  C   C18       1.0  0.36767  0.65243  0.34961  1.0000
  C   C19       1.0  0.38864  0.69636  0.34965  1.0000
  C   C20       1.0  0.36752  0.71918  0.34969  1.0000
  C   C21       1.0  0.32359  0.69622  0.34971  1.0000
  C   C22       1.0  0.39009  0.63014  0.34949  1.0000
  C   C23       1.0  0.37591  0.59286  0.39930  1.0000
  C   C24       1.0  0.39760  0.57087  0.39873  1.0000
  C   C25       1.0  0.43479  0.58578  0.34924  1.0000
  C   C26       1.0  0.44951  0.62298  0.29990  1.0000
  C   C27       1.0  0.42736  0.64450  0.29955  1.0000
  C   C28       1.0  0.25606  0.62985  0.34961  1.0000
  C   C29       1.0  0.23314  0.59259  0.29965  1.0000
  C   C30       1.0  0.18947  0.57043  0.30005  1.0000
  C   C31       1.0  0.16701  0.58515  0.34946  1.0000
  C   C32       1.0  0.18929  0.62232  0.39896  1.0000
  C   C33       1.0  0.23297  0.64402  0.39949  1.0000
  C   C34       1.0  0.38980  0.76389  0.34964  1.0000
  C   C35       1.0  0.37544  0.78681  0.29974  1.0000
  C   C36       1.0  0.39693  0.83048  0.30020  1.0000
  C   C37       1.0  0.43412  0.85294  0.34957  1.0000
  C   C38       1.0  0.44905  0.83066  0.39895  1.0000
  C   C39       1.0  0.42709  0.78699  0.39943  1.0000
  H   H13       1.0  0.17416  0.54378  0.26269  1.0000
  H   H14       1.0  0.24803  0.58139  0.26059  1.0000
  H   H15       1.0  0.17385  0.63357  0.43612  1.0000
  H   H16       1.0  0.24774  0.67014  0.43850  1.0000
  H   H17       1.0  0.34931  0.77192  0.26079  1.0000
  H   H18       1.0  0.38556  0.84579  0.26294  1.0000
  H   H19       1.0  0.43845  0.77221  0.43842  1.0000
  H   H20       1.0  0.47575  0.84611  0.43609  1.0000
  H   H21       1.0  0.43858  0.67062  0.26057  1.0000
  H   H22       1.0  0.47618  0.63434  0.26259  1.0000
  H   H23       1.0  0.38634  0.54417  0.43585  1.0000
  H   H24       1.0  0.34978  0.58150  0.43830  1.0000
  H   H25       1.0  0.30794  0.59962  0.34958  1.0000
  H   H26       1.0  0.30769  0.71200  0.34974  1.0000
  H   H27       1.0  0.42033  0.71226  0.34963  1.0000
  C   C40       1.0  0.72315  0.36354  0.35096  1.0000
  C   C41       1.0  0.70029  0.38461  0.35119  1.0000
  C   C42       1.0  0.65636  0.36358  0.35114  1.0000
  C   C43       1.0  0.63528  0.31965  0.35093  1.0000
  C   C44       1.0  0.65631  0.29675  0.35081  1.0000
  C   C45       1.0  0.70024  0.31960  0.35071  1.0000
  C   C46       1.0  0.63406  0.38595  0.35109  1.0000
  C   C47       1.0  0.64826  0.42309  0.40133  1.0000
  C   C48       1.0  0.62697  0.44544  0.40005  1.0000
  C   C49       1.0  0.59011  0.43120  0.34941  1.0000
  C   C50       1.0  0.57520  0.39382  0.30046  1.0000
  C   C51       1.0  0.59700  0.37193  0.30059  1.0000
  C   C52       1.0  0.76784  0.38586  0.35086  1.0000
  C   C53       1.0  0.79090  0.42319  0.30124  1.0000
  C   C54       1.0  0.83457  0.44501  0.30119  1.0000
  C   C55       1.0  0.85705  0.42986  0.34926  1.0000
  C   C56       1.0  0.83445  0.39273  0.39898  1.0000
  C   C57       1.0  0.79080  0.37141  0.40026  1.0000
  C   C58       1.0  0.63391  0.25207  0.35069  1.0000
  C   C59       1.0  0.64793  0.22900  0.30032  1.0000
  C   C60       1.0  0.62603  0.18533  0.30023  1.0000
  C   C61       1.0  0.58863  0.16287  0.34914  1.0000
  C   C62       1.0  0.57437  0.18551  0.39963  1.0000
  C   C63       1.0  0.59674  0.22916  0.40086  1.0000
  H   H28       1.0  0.84992  0.47185  0.26448  1.0000
  H   H29       1.0  0.77610  0.43468  0.26275  1.0000
  H   H30       1.0  0.84968  0.38087  0.43486  1.0000
  H   H31       1.0  0.77596  0.34522  0.43904  1.0000
  H   H32       1.0  0.67406  0.24379  0.26133  1.0000
  H   H33       1.0  0.63733  0.16996  0.26302  1.0000
  H   H34       1.0  0.58561  0.24404  0.44018  1.0000
  H   H35       1.0  0.54746  0.17031  0.43611  1.0000
  H   H36       1.0  0.58570  0.34583  0.26153  1.0000
  H   H37       1.0  0.54856  0.38252  0.26313  1.0000
  H   H38       1.0  0.63864  0.47234  0.43657  1.0000
  H   H39       1.0  0.67426  0.43423  0.44070  1.0000
  H   H40       1.0  0.71615  0.41630  0.35134  1.0000
  H   H41       1.0  0.71604  0.30372  0.35044  1.0000
  H   H42       1.0  0.60359  0.30384  0.35085  1.0000
  C   C64       1.0  0.50329  0.52170  0.35152  1.0000
  C   C65       1.0  0.51763  0.55921  0.40139  1.0000
  C   C66       1.0  0.49401  0.57947  0.39929  1.0000
  H   H43       1.0  0.50417  0.60645  0.43502  1.0000
  C   C67       1.0  0.52464  0.49878  0.35045  1.0000
  C   C68       1.0  0.56839  0.45384  0.34841  1.0000
  C   C69       1.0  0.55066  0.45821  0.43022  1.0000
  C   C70       1.0  0.52904  0.48047  0.43004  1.0000
  H   H44       1.0  0.51634  0.48331  0.48924  1.0000
  N   N7        1.0  0.55428  0.43988  0.51139  1.0000
  N   N8        1.0  0.55373  0.57716  0.44923  1.0000
  H   H45       1.0  0.56317  0.60312  0.48163  1.0000
  H   H46       1.0  0.57223  0.56586  0.44945  1.0000
  O   O7        1.0  0.57340  0.46663  0.57158  1.0000
  O   O8        1.0  0.51944  0.41343  0.54192  1.0000
  C   C71       1.0  0.49813  0.98553  0.35174  1.0000
  C   C72       1.0  0.46066  0.96236  0.40172  1.0000
  C   C73       1.0  0.44043  0.91847  0.39971  1.0000
  H   H47       1.0  0.41348  0.90165  0.43552  1.0000
  C   C74       1.0  0.52102  0.02981  0.35056  1.0000
  C   C75       1.0  0.56597  0.11850  0.34827  1.0000
  C   C76       1.0  0.56154  0.09646  0.43019  1.0000
  C   C77       1.0  0.53927  0.05257  0.43013  1.0000
  H   H48       1.0  0.53640  0.03707  0.48941  1.0000
  N   N9        1.0  0.57981  0.11845  0.51135  1.0000
  N   N10       1.0  0.44272  0.98049  0.44965  1.0000
  H   H49       1.0  0.41669  0.96396  0.48179  1.0000
  H   H50       1.0  0.45388  0.01027  0.44943  1.0000
  O   O9        1.0  0.55300  0.11086  0.57139  1.0000
  O   O10       1.0  0.60623  0.11008  0.54211  1.0000
  C   C78       1.0  0.03441  0.51664  0.35164  1.0000
  C   C79       1.0  0.05757  0.50230  0.40154  1.0000
  C   C80       1.0  0.10146  0.52594  0.39952  1.0000
  H   H51       1.0  0.11827  0.51577  0.43526  1.0000
  C   C81       1.0  0.99013  0.49529  0.35052  1.0000
  C   C82       1.0  0.90143  0.45161  0.34831  1.0000
  C   C83       1.0  0.92349  0.46892  0.43036  1.0000
  C   C84       1.0  0.96737  0.49054  0.43025  1.0000
  H   H52       1.0  0.98288  0.50295  0.48962  1.0000
  N   N11       1.0  0.90151  0.46489  0.51172  1.0000
  N   N12       1.0  0.03944  0.46617  0.44926  1.0000
  H   H53       1.0  0.05596  0.45672  0.48163  1.0000
  H   H54       1.0  0.00965  0.44761  0.44929  1.0000
  O   O11       1.0  0.90911  0.44544  0.57116  1.0000
  O   O12       1.0  0.90989  0.49956  0.54325  1.0000
