data_image0
_chemical_formula_structural       C2H2C4H3C2H2C4H4C3H4C3H3C2HC7HC2HC7HC2H2C2H2C2H2C2H3C6H3C7H3NH2C5HNH2C4HNHC2H2C2H2C2H2C2H3C6H3C7H3NH2C5HNH2C4HNHC2H2C2H2C2H2C2H2C2H2C2H2C6H3C6H3C8H3NH2C8H3NH2C8H3NH2C2H2C2H2C2H2C2H2C2H2C2H2C6H3C6H3C8H3NH2C8H3NH2C8H3NH2
_chemical_formula_sum              "C192 H132 N12"
_cell_length_a       44.5275
_cell_length_b       44.5275
_cell_length_c       14.8562
_cell_angle_alpha    90
_cell_angle_beta     90
_cell_angle_gamma    120

_space_group_name_H-M_alt    "P 1"
_space_group_IT_number       1

loop_
  _space_group_symop_operation_xyz
  'x, y, z'

loop_
  _atom_site_type_symbol
  _atom_site_label
  _atom_site_symmetry_multiplicity
  _atom_site_fract_x
  _atom_site_fract_y
  _atom_site_fract_z
  _atom_site_occupancy
  C   C1        1.0  0.08042  0.31004  0.28942  1.0000
  C   C2        1.0  0.04389  0.29185  0.29034  1.0000
  H   H1        1.0  0.09290  0.32993  0.24444  1.0000
  H   H2        1.0  0.03089  0.29935  0.24735  1.0000
  C   C3        1.0  0.02539  0.26405  0.35067  1.0000
  C   C4        1.0  0.04431  0.25455  0.40899  1.0000
  C   C5        1.0  0.08083  0.27260  0.40739  1.0000
  C   C6        1.0  0.09965  0.30081  0.34791  1.0000
  H   H3        1.0  0.03159  0.23451  0.45348  1.0000
  H   H4        1.0  0.09362  0.26536  0.45181  1.0000
  H   H5        1.0  0.01032  0.28615  0.50012  1.0000
  C   C7        1.0  0.08042  0.81004  0.28942  1.0000
  C   C8        1.0  0.04389  0.79185  0.29034  1.0000
  H   H6        1.0  0.09291  0.82993  0.24444  1.0000
  H   H7        1.0  0.03089  0.79935  0.24735  1.0000
  C   C9        1.0  0.02539  0.76405  0.35067  1.0000
  C   C10       1.0  0.04431  0.75455  0.40899  1.0000
  C   C11       1.0  0.08083  0.77260  0.40739  1.0000
  C   C12       1.0  0.09965  0.80082  0.34791  1.0000
  H   H8        1.0  0.03159  0.73451  0.45348  1.0000
  H   H9        1.0  0.09362  0.76536  0.45181  1.0000
  H   H10       1.0  0.01032  0.78615  0.50012  1.0000
  H   H11       1.0  0.18217  0.26540  0.24442  1.0000
  C   C13       1.0  0.13682  0.31950  0.34735  1.0000
  C   C14       1.0  0.15564  0.35623  0.34736  1.0000
  C   C15       1.0  0.15587  0.30184  0.34735  1.0000
  H   H12       1.0  0.14267  0.27528  0.34755  1.0000
  H   H13       1.0  0.14228  0.36943  0.34756  1.0000
  H   H14       1.0  0.18143  0.41848  0.45185  1.0000
  H   H15       1.0  0.18217  0.76540  0.24442  1.0000
  C   C16       1.0  0.13682  0.81950  0.34735  1.0000
  C   C17       1.0  0.15564  0.85623  0.34736  1.0000
  C   C18       1.0  0.15587  0.80184  0.34735  1.0000
  H   H16       1.0  0.14267  0.77528  0.34755  1.0000
  H   H17       1.0  0.14228  0.86943  0.34756  1.0000
  H   H18       1.0  0.18143  0.91848  0.45185  1.0000
  C   C19       1.0  0.20206  0.27281  0.28940  1.0000
  C   C20       1.0  0.22025  0.25446  0.29032  1.0000
  H   H19       1.0  0.21275  0.23396  0.24731  1.0000
  C   C21       1.0  0.19236  0.37528  0.34735  1.0000
  C   C22       1.0  0.21026  0.35646  0.34735  1.0000
  C   C23       1.0  0.19260  0.31974  0.34734  1.0000
  C   C24       1.0  0.21128  0.30126  0.34790  1.0000
  C   C25       1.0  0.21993  0.46779  0.40901  1.0000
  C   C26       1.0  0.20144  0.43127  0.40737  1.0000
  C   C27       1.0  0.21084  0.41245  0.34791  1.0000
  H   H20       1.0  0.21261  0.48051  0.45352  1.0000
  C   C28       1.0  0.20206  0.77281  0.28940  1.0000
  C   C29       1.0  0.22025  0.75446  0.29032  1.0000
  H   H21       1.0  0.21275  0.73396  0.24731  1.0000
  C   C30       1.0  0.19236  0.87528  0.34735  1.0000
  C   C31       1.0  0.21026  0.85646  0.34735  1.0000
  C   C32       1.0  0.19260  0.81974  0.34734  1.0000
  C   C33       1.0  0.21128  0.80126  0.34790  1.0000
  C   C34       1.0  0.21993  0.96779  0.40901  1.0000
  C   C35       1.0  0.20144  0.93127  0.40737  1.0000
  C   C36       1.0  0.21084  0.91245  0.34791  1.0000
  H   H22       1.0  0.21261  0.98051  0.45352  1.0000
  C   C37       1.0  0.28869  0.24920  0.28146  1.0000
  C   C38       1.0  0.30746  0.23150  0.28040  1.0000
  H   H23       1.0  0.29215  0.26577  0.22956  1.0000
  H   H24       1.0  0.32368  0.23531  0.22738  1.0000
  C   C39       1.0  0.26285  0.04192  0.28155  1.0000
  C   C40       1.0  0.28055  0.07837  0.28048  1.0000
  H   H25       1.0  0.24625  0.02880  0.22970  1.0000
  H   H26       1.0  0.27671  0.09079  0.22752  1.0000
  C   C41       1.0  0.23929  0.43167  0.28942  1.0000
  C   C42       1.0  0.25763  0.46821  0.29033  1.0000
  H   H27       1.0  0.24669  0.41920  0.24441  1.0000
  H   H28       1.0  0.27813  0.48121  0.24730  1.0000
  C   C43       1.0  0.47018  0.22338  0.28151  1.0000
  C   C44       1.0  0.43373  0.20463  0.28043  1.0000
  H   H29       1.0  0.48330  0.21990  0.22964  1.0000
  H   H30       1.0  0.42131  0.18838  0.22746  1.0000
  H   H31       1.0  0.23682  0.36982  0.34754  1.0000
  C   C45       1.0  0.37753  0.19010  0.34853  1.0000
  C   C46       1.0  0.35894  0.15342  0.34854  1.0000
  C   C47       1.0  0.32225  0.13457  0.34854  1.0000
  C   C48       1.0  0.30416  0.15316  0.34852  1.0000
  C   C49       1.0  0.32200  0.18985  0.34853  1.0000
  C   C50       1.0  0.35868  0.20794  0.34852  1.0000
  H   H32       1.0  0.27758  0.13978  0.34904  1.0000
  H   H33       1.0  0.37187  0.23452  0.34902  1.0000
  H   H34       1.0  0.37232  0.14023  0.34903  1.0000
  C   C51       1.0  0.30340  0.20819  0.34999  1.0000
  C   C52       1.0  0.28041  0.20351  0.42123  1.0000
  C   C53       1.0  0.26169  0.22156  0.42461  1.0000
  C   C54       1.0  0.26589  0.24471  0.35310  1.0000
  C   C55       1.0  0.24805  0.26376  0.35066  1.0000
  C   C56       1.0  0.25755  0.29218  0.40897  1.0000
  C   C57       1.0  0.23951  0.31066  0.40735  1.0000
  H   H35       1.0  0.27758  0.29950  0.45348  1.0000
  H   H36       1.0  0.24673  0.33067  0.45183  1.0000
  H   H37       1.0  0.27754  0.18685  0.47242  1.0000
  N   N1        1.0  0.24003  0.21561  0.49549  1.0000
  H   H38       1.0  0.23739  0.19951  0.54330  1.0000
  H   H39       1.0  0.22597  0.22661  0.50013  1.0000
  C   C58       1.0  0.30391  0.09763  0.35000  1.0000
  C   C59       1.0  0.30863  0.07932  0.42117  1.0000
  C   C60       1.0  0.29058  0.04255  0.42454  1.0000
  C   C61       1.0  0.26739  0.02360  0.35311  1.0000
  C   C62       1.0  0.24833  0.48670  0.35067  1.0000
  H   H40       1.0  0.32532  0.09311  0.47230  1.0000
  N   N2        1.0  0.29657  0.02684  0.49535  1.0000
  H   H41       1.0  0.31268  0.04030  0.54315  1.0000
  H   H42       1.0  0.28555  0.50178  0.50004  1.0000
  C   C63       1.0  0.41448  0.20871  0.35000  1.0000
  C   C64       1.0  0.43278  0.23172  0.42119  1.0000
  C   C65       1.0  0.46955  0.25043  0.42458  1.0000
  C   C66       1.0  0.48850  0.24621  0.35311  1.0000
  H   H43       1.0  0.41899  0.23460  0.47236  1.0000
  N   N3        1.0  0.48526  0.27212  0.49542  1.0000
  H   H44       1.0  0.47180  0.27475  0.54325  1.0000
  C   C67       1.0  0.28869  0.74920  0.28146  1.0000
  C   C68       1.0  0.30746  0.73150  0.28040  1.0000
  H   H45       1.0  0.29215  0.76578  0.22956  1.0000
  H   H46       1.0  0.32368  0.73531  0.22738  1.0000
  C   C69       1.0  0.26285  0.54192  0.28155  1.0000
  C   C70       1.0  0.28055  0.57837  0.28048  1.0000
  H   H47       1.0  0.24625  0.52880  0.22970  1.0000
  H   H48       1.0  0.27671  0.59079  0.22752  1.0000
  C   C71       1.0  0.23929  0.93168  0.28942  1.0000
  C   C72       1.0  0.25763  0.96821  0.29033  1.0000
  H   H49       1.0  0.24669  0.91919  0.24441  1.0000
  H   H50       1.0  0.27813  0.98121  0.24730  1.0000
  C   C73       1.0  0.47018  0.72338  0.28151  1.0000
  C   C74       1.0  0.43373  0.70463  0.28043  1.0000
  H   H51       1.0  0.48330  0.71990  0.22964  1.0000
  H   H52       1.0  0.42131  0.68838  0.22746  1.0000
  H   H53       1.0  0.23682  0.86982  0.34754  1.0000
  C   C75       1.0  0.37753  0.69011  0.34853  1.0000
  C   C76       1.0  0.35894  0.65342  0.34854  1.0000
  C   C77       1.0  0.32225  0.63457  0.34854  1.0000
  C   C78       1.0  0.30416  0.65316  0.34852  1.0000
  C   C79       1.0  0.32200  0.68985  0.34853  1.0000
  C   C80       1.0  0.35868  0.70794  0.34852  1.0000
  H   H54       1.0  0.27758  0.63978  0.34904  1.0000
  H   H55       1.0  0.37187  0.73452  0.34902  1.0000
  H   H56       1.0  0.37232  0.64023  0.34903  1.0000
  C   C81       1.0  0.30340  0.70819  0.34999  1.0000
  C   C82       1.0  0.28041  0.70351  0.42123  1.0000
  C   C83       1.0  0.26169  0.72156  0.42461  1.0000
  C   C84       1.0  0.26589  0.74471  0.35310  1.0000
  C   C85       1.0  0.24805  0.76376  0.35066  1.0000
  C   C86       1.0  0.25755  0.79218  0.40897  1.0000
  C   C87       1.0  0.23951  0.81066  0.40735  1.0000
  H   H57       1.0  0.27758  0.79950  0.45348  1.0000
  H   H58       1.0  0.24673  0.83067  0.45183  1.0000
  H   H59       1.0  0.27754  0.68685  0.47242  1.0000
  N   N4        1.0  0.24003  0.71561  0.49549  1.0000
  H   H60       1.0  0.23739  0.69951  0.54330  1.0000
  H   H61       1.0  0.22597  0.72660  0.50013  1.0000
  C   C88       1.0  0.30391  0.59763  0.35000  1.0000
  C   C89       1.0  0.30863  0.57932  0.42117  1.0000
  C   C90       1.0  0.29058  0.54255  0.42454  1.0000
  C   C91       1.0  0.26738  0.52360  0.35311  1.0000
  C   C92       1.0  0.24833  0.98671  0.35067  1.0000
  H   H62       1.0  0.32532  0.59311  0.47230  1.0000
  N   N5        1.0  0.29657  0.52684  0.49535  1.0000
  H   H63       1.0  0.31268  0.54030  0.54315  1.0000
  H   H64       1.0  0.28555  0.00178  0.50004  1.0000
  C   C93       1.0  0.41447  0.70871  0.35000  1.0000
  C   C94       1.0  0.43278  0.73172  0.42119  1.0000
  C   C95       1.0  0.46955  0.75043  0.42458  1.0000
  C   C96       1.0  0.48850  0.74621  0.35311  1.0000
  H   H65       1.0  0.41899  0.73460  0.47236  1.0000
  N   N6        1.0  0.48526  0.77212  0.49542  1.0000
  H   H66       1.0  0.47180  0.77475  0.54325  1.0000
  C   C97       1.0  0.78869  0.24920  0.28146  1.0000
  C   C98       1.0  0.80746  0.23150  0.28040  1.0000
  H   H67       1.0  0.79215  0.26577  0.22956  1.0000
  H   H68       1.0  0.82368  0.23531  0.22738  1.0000
  C   C99       1.0  0.70206  0.27281  0.28940  1.0000
  C   C100      1.0  0.72025  0.25446  0.29032  1.0000
  H   H69       1.0  0.68217  0.26540  0.24442  1.0000
  H   H70       1.0  0.71275  0.23396  0.24731  1.0000
  C   C101      1.0  0.76285  0.04192  0.28155  1.0000
  C   C102      1.0  0.78055  0.07837  0.28048  1.0000
  H   H71       1.0  0.74625  0.02880  0.22970  1.0000
  H   H72       1.0  0.77671  0.09079  0.22752  1.0000
  C   C103      1.0  0.73929  0.43167  0.28942  1.0000
  C   C104      1.0  0.75763  0.46821  0.29033  1.0000
  H   H73       1.0  0.74669  0.41920  0.24441  1.0000
  H   H74       1.0  0.77813  0.48121  0.24730  1.0000
  C   C105      1.0  0.97018  0.22338  0.28151  1.0000
  C   C106      1.0  0.93373  0.20463  0.28043  1.0000
  H   H75       1.0  0.98330  0.21990  0.22964  1.0000
  H   H76       1.0  0.92131  0.18838  0.22746  1.0000
  C   C107      1.0  0.58042  0.31004  0.28942  1.0000
  C   C108      1.0  0.54390  0.29185  0.29034  1.0000
  H   H77       1.0  0.59290  0.32993  0.24444  1.0000
  H   H78       1.0  0.53089  0.29935  0.24735  1.0000
  C   C109      1.0  0.63682  0.31950  0.34735  1.0000
  C   C110      1.0  0.65564  0.35623  0.34736  1.0000
  C   C111      1.0  0.69236  0.37528  0.34735  1.0000
  C   C112      1.0  0.71026  0.35646  0.34735  1.0000
  C   C113      1.0  0.69260  0.31974  0.34734  1.0000
  C   C114      1.0  0.65587  0.30184  0.34735  1.0000
  H   H79       1.0  0.73682  0.36982  0.34754  1.0000
  H   H80       1.0  0.64267  0.27528  0.34755  1.0000
  H   H81       1.0  0.64228  0.36943  0.34756  1.0000
  C   C115      1.0  0.87753  0.19010  0.34853  1.0000
  C   C116      1.0  0.85894  0.15342  0.34854  1.0000
  C   C117      1.0  0.82225  0.13457  0.34854  1.0000
  C   C118      1.0  0.80416  0.15316  0.34852  1.0000
  C   C119      1.0  0.82200  0.18985  0.34853  1.0000
  C   C120      1.0  0.85868  0.20794  0.34852  1.0000
  H   H82       1.0  0.77758  0.13978  0.34904  1.0000
  H   H83       1.0  0.87187  0.23452  0.34902  1.0000
  H   H84       1.0  0.87233  0.14023  0.34903  1.0000
  C   C121      1.0  0.80340  0.20819  0.34999  1.0000
  C   C122      1.0  0.78041  0.20351  0.42123  1.0000
  C   C123      1.0  0.76169  0.22156  0.42461  1.0000
  C   C124      1.0  0.76589  0.24471  0.35310  1.0000
  C   C125      1.0  0.74805  0.26376  0.35066  1.0000
  C   C126      1.0  0.75755  0.29218  0.40897  1.0000
  C   C127      1.0  0.73950  0.31066  0.40735  1.0000
  C   C128      1.0  0.71128  0.30126  0.34790  1.0000
  H   H85       1.0  0.77758  0.29950  0.45348  1.0000
  H   H86       1.0  0.74673  0.33067  0.45183  1.0000
  H   H87       1.0  0.77754  0.18685  0.47242  1.0000
  N   N7        1.0  0.74003  0.21561  0.49549  1.0000
  H   H88       1.0  0.73739  0.19951  0.54330  1.0000
  H   H89       1.0  0.72597  0.22661  0.50013  1.0000
  C   C129      1.0  0.80391  0.09763  0.35000  1.0000
  C   C130      1.0  0.80863  0.07932  0.42117  1.0000
  C   C131      1.0  0.79058  0.04255  0.42454  1.0000
  C   C132      1.0  0.76738  0.02360  0.35311  1.0000
  C   C133      1.0  0.74833  0.48670  0.35067  1.0000
  C   C134      1.0  0.71993  0.46779  0.40901  1.0000
  C   C135      1.0  0.70144  0.43127  0.40737  1.0000
  C   C136      1.0  0.71084  0.41245  0.34791  1.0000
  H   H90       1.0  0.71261  0.48051  0.45352  1.0000
  H   H91       1.0  0.68143  0.41848  0.45185  1.0000
  H   H92       1.0  0.82532  0.09311  0.47230  1.0000
  N   N8        1.0  0.79657  0.02684  0.49535  1.0000
  H   H93       1.0  0.81268  0.04030  0.54315  1.0000
  H   H94       1.0  0.78555  0.50178  0.50004  1.0000
  C   C137      1.0  0.91447  0.20871  0.35000  1.0000
  C   C138      1.0  0.93278  0.23172  0.42119  1.0000
  C   C139      1.0  0.96955  0.25043  0.42458  1.0000
  C   C140      1.0  0.98850  0.24621  0.35311  1.0000
  C   C141      1.0  0.52539  0.26405  0.35067  1.0000
  C   C142      1.0  0.54431  0.25455  0.40899  1.0000
  C   C143      1.0  0.58083  0.27260  0.40739  1.0000
  C   C144      1.0  0.59965  0.30081  0.34791  1.0000
  H   H95       1.0  0.53159  0.23451  0.45348  1.0000
  H   H96       1.0  0.59362  0.26536  0.45181  1.0000
  H   H97       1.0  0.91899  0.23460  0.47236  1.0000
  N   N9        1.0  0.98526  0.27212  0.49542  1.0000
  H   H98       1.0  0.97180  0.27475  0.54325  1.0000
  H   H99       1.0  0.51032  0.28615  0.50012  1.0000
  C   C145      1.0  0.78869  0.74920  0.28146  1.0000
  C   C146      1.0  0.80746  0.73150  0.28040  1.0000
  H   H100      1.0  0.79215  0.76578  0.22956  1.0000
  H   H101      1.0  0.82368  0.73531  0.22738  1.0000
  C   C147      1.0  0.70206  0.77281  0.28940  1.0000
  C   C148      1.0  0.72025  0.75446  0.29032  1.0000
  H   H102      1.0  0.68217  0.76540  0.24442  1.0000
  H   H103      1.0  0.71275  0.73396  0.24731  1.0000
  C   C149      1.0  0.76285  0.54192  0.28155  1.0000
  C   C150      1.0  0.78055  0.57837  0.28048  1.0000
  H   H104      1.0  0.74625  0.52880  0.22970  1.0000
  H   H105      1.0  0.77671  0.59079  0.22752  1.0000
  C   C151      1.0  0.73929  0.93168  0.28942  1.0000
  C   C152      1.0  0.75763  0.96821  0.29033  1.0000
  H   H106      1.0  0.74669  0.91919  0.24441  1.0000
  H   H107      1.0  0.77813  0.98121  0.24730  1.0000
  C   C153      1.0  0.97018  0.72338  0.28151  1.0000
  C   C154      1.0  0.93373  0.70463  0.28043  1.0000
  H   H108      1.0  0.98330  0.71990  0.22964  1.0000
  H   H109      1.0  0.92131  0.68838  0.22746  1.0000
  C   C155      1.0  0.58042  0.81004  0.28942  1.0000
  C   C156      1.0  0.54390  0.79185  0.29034  1.0000
  H   H110      1.0  0.59290  0.82993  0.24444  1.0000
  H   H111      1.0  0.53089  0.79935  0.24735  1.0000
  C   C157      1.0  0.63682  0.81950  0.34735  1.0000
  C   C158      1.0  0.65564  0.85623  0.34736  1.0000
  C   C159      1.0  0.69236  0.87528  0.34735  1.0000
  C   C160      1.0  0.71026  0.85646  0.34735  1.0000
  C   C161      1.0  0.69260  0.81974  0.34734  1.0000
  C   C162      1.0  0.65587  0.80184  0.34735  1.0000
  H   H112      1.0  0.73682  0.86982  0.34754  1.0000
  H   H113      1.0  0.64267  0.77528  0.34755  1.0000
  H   H114      1.0  0.64228  0.86943  0.34756  1.0000
  C   C163      1.0  0.87753  0.69011  0.34853  1.0000
  C   C164      1.0  0.85894  0.65342  0.34854  1.0000
  C   C165      1.0  0.82225  0.63457  0.34854  1.0000
  C   C166      1.0  0.80416  0.65316  0.34852  1.0000
  C   C167      1.0  0.82200  0.68985  0.34853  1.0000
  C   C168      1.0  0.85868  0.70794  0.34852  1.0000
  H   H115      1.0  0.77758  0.63978  0.34904  1.0000
  H   H116      1.0  0.87187  0.73452  0.34902  1.0000
  H   H117      1.0  0.87232  0.64023  0.34903  1.0000
  C   C169      1.0  0.80340  0.70819  0.34999  1.0000
  C   C170      1.0  0.78041  0.70351  0.42123  1.0000
  C   C171      1.0  0.76169  0.72156  0.42461  1.0000
  C   C172      1.0  0.76589  0.74471  0.35310  1.0000
  C   C173      1.0  0.74805  0.76376  0.35066  1.0000
  C   C174      1.0  0.75755  0.79218  0.40897  1.0000
  C   C175      1.0  0.73951  0.81066  0.40735  1.0000
  C   C176      1.0  0.71128  0.80126  0.34790  1.0000
  H   H118      1.0  0.77758  0.79950  0.45348  1.0000
  H   H119      1.0  0.74673  0.83067  0.45183  1.0000
  H   H120      1.0  0.77754  0.68685  0.47242  1.0000
  N   N10       1.0  0.74003  0.71561  0.49549  1.0000
  H   H121      1.0  0.73739  0.69951  0.54330  1.0000
  H   H122      1.0  0.72597  0.72660  0.50013  1.0000
  C   C177      1.0  0.80391  0.59763  0.35000  1.0000
  C   C178      1.0  0.80863  0.57932  0.42117  1.0000
  C   C179      1.0  0.79058  0.54255  0.42454  1.0000
  C   C180      1.0  0.76739  0.52360  0.35311  1.0000
  C   C181      1.0  0.74833  0.98671  0.35067  1.0000
  C   C182      1.0  0.71993  0.96779  0.40901  1.0000
  C   C183      1.0  0.70144  0.93127  0.40737  1.0000
  C   C184      1.0  0.71084  0.91245  0.34791  1.0000
  H   H123      1.0  0.71261  0.98051  0.45352  1.0000
  H   H124      1.0  0.68143  0.91848  0.45185  1.0000
  H   H125      1.0  0.82532  0.59311  0.47230  1.0000
  N   N11       1.0  0.79657  0.52684  0.49535  1.0000
  H   H126      1.0  0.81268  0.54030  0.54315  1.0000
  H   H127      1.0  0.78555  0.00178  0.50004  1.0000
  C   C185      1.0  0.91447  0.70871  0.35000  1.0000
  C   C186      1.0  0.93278  0.73172  0.42119  1.0000
  C   C187      1.0  0.96955  0.75043  0.42458  1.0000
  C   C188      1.0  0.98850  0.74621  0.35311  1.0000
  C   C189      1.0  0.52539  0.76405  0.35067  1.0000
  C   C190      1.0  0.54431  0.75455  0.40899  1.0000
  C   C191      1.0  0.58083  0.77260  0.40739  1.0000
  C   C192      1.0  0.59965  0.80082  0.34791  1.0000
  H   H128      1.0  0.53159  0.73451  0.45348  1.0000
  H   H129      1.0  0.59362  0.76536  0.45181  1.0000
  H   H130      1.0  0.91899  0.73460  0.47236  1.0000
  N   N12       1.0  0.98526  0.77212  0.49542  1.0000
  H   H131      1.0  0.97180  0.77475  0.54325  1.0000
  H   H132      1.0  0.51032  0.78615  0.50012  1.0000
