data_image0
_chemical_formula_structural       C12H6CH2C2O2C12H6CH2C2O2C12H6CH2C2O2CN3HCN3HCN3HCN3HCN3HCN3HC12H6C2H2C2O2C12H6C2H2C2O2C12H6C2H2C2O2C3NH3NHC3NH3NHC3NH3NHC3NH3NHC3NH3NHC3NH3NH
_chemical_formula_sum              "C117 H78 O12 N30"
_cell_length_a       34.2941
_cell_length_b       34.2942
_cell_length_c       15.0815
_cell_angle_alpha    90
_cell_angle_beta     90
_cell_angle_gamma    120

_space_group_name_H-M_alt    "P 1"
_space_group_IT_number       1

loop_
  _space_group_symop_operation_xyz
  'x, y, z'

loop_
  _atom_site_type_symbol
  _atom_site_label
  _atom_site_symmetry_multiplicity
  _atom_site_fract_x
  _atom_site_fract_y
  _atom_site_fract_z
  _atom_site_occupancy
  C   C1        1.0  0.96632  0.50940  0.27123  1.0000
  C   C2        1.0  0.96779  0.51042  0.17702  1.0000
  C   C3        1.0  0.02414  0.48420  0.17703  1.0000
  C   C4        1.0  0.02559  0.48522  0.27124  1.0000
  C   C5        1.0  0.05693  0.47574  0.31354  1.0000
  C   C6        1.0  0.08644  0.46642  0.26453  1.0000
  C   C7        1.0  0.08215  0.46300  0.17146  1.0000
  C   C8        1.0  0.05134  0.47180  0.12818  1.0000
  C   C9        1.0  0.94055  0.52277  0.12815  1.0000
  C   C10       1.0  0.90972  0.53155  0.17142  1.0000
  C   C11       1.0  0.90543  0.52815  0.26448  1.0000
  C   C12       1.0  0.93497  0.51887  0.31351  1.0000
  H   H1        1.0  0.06280  0.58003  0.27105  1.0000
  H   H2        1.0  0.92908  0.41461  0.27097  1.0000
  H   H3        1.0  0.10222  0.45526  0.13390  1.0000
  H   H4        1.0  0.05022  0.47080  0.06033  1.0000
  H   H5        1.0  0.94169  0.52379  0.06030  1.0000
  H   H6        1.0  0.88965  0.53928  0.13385  1.0000
  C   C13       1.0  0.99596  0.49731  0.12554  1.0000
  H   H7        1.0  0.01821  0.52571  0.08307  1.0000
  H   H8        1.0  0.97370  0.46890  0.08309  1.0000
  C   C14       1.0  0.87000  0.53059  0.30726  1.0000
  C   C15       1.0  0.12186  0.46396  0.30732  1.0000
  O   O1        1.0  0.11812  0.67453  0.27890  1.0000
  O   O2        1.0  0.87370  0.32009  0.27879  1.0000
  C   C16       1.0  0.48387  0.45551  0.27130  1.0000
  C   C17       1.0  0.48288  0.45598  0.17709  1.0000
  C   C18       1.0  0.50905  0.53853  0.17711  1.0000
  C   C19       1.0  0.50805  0.53897  0.27133  1.0000
  C   C20       1.0  0.51756  0.57979  0.31364  1.0000
  C   C21       1.0  0.52685  0.61862  0.26463  1.0000
  C   C22       1.0  0.53028  0.61776  0.17156  1.0000
  C   C23       1.0  0.52142  0.57813  0.12827  1.0000
  C   C24       1.0  0.47055  0.41639  0.12822  1.0000
  C   C25       1.0  0.46180  0.37679  0.17147  1.0000
  C   C26       1.0  0.46520  0.37590  0.26454  1.0000
  C   C27       1.0  0.47442  0.41470  0.31358  1.0000
  H   H9        1.0  0.41326  0.48143  0.27102  1.0000
  H   H10       1.0  0.57870  0.51316  0.27115  1.0000
  H   H11       1.0  0.53799  0.64555  0.13401  1.0000
  H   H12       1.0  0.52245  0.57801  0.06042  1.0000
  H   H13       1.0  0.46952  0.41651  0.06037  1.0000
  H   H14       1.0  0.45408  0.34899  0.13389  1.0000
  C   C28       1.0  0.49595  0.49725  0.12562  1.0000
  H   H15       1.0  0.46752  0.49108  0.08320  1.0000
  H   H16       1.0  0.52435  0.50342  0.08312  1.0000
  C   C29       1.0  0.46275  0.33802  0.30732  1.0000
  C   C30       1.0  0.52930  0.65649  0.30742  1.0000
  O   O3        1.0  0.31875  0.44229  0.27879  1.0000
  O   O4        1.0  0.67299  0.55204  0.27851  1.0000
  C   C31       1.0  0.53784  0.02697  0.27119  1.0000
  C   C32       1.0  0.53734  0.02551  0.17699  1.0000
  C   C33       1.0  0.45479  0.96913  0.17716  1.0000
  C   C34       1.0  0.45438  0.96768  0.27138  1.0000
  C   C35       1.0  0.41359  0.93632  0.31372  1.0000
  C   C36       1.0  0.37473  0.90682  0.26476  1.0000
  C   C37       1.0  0.37556  0.91114  0.17170  1.0000
  C   C38       1.0  0.41517  0.94190  0.12837  1.0000
  C   C39       1.0  0.57691  0.05278  0.12807  1.0000
  C   C40       1.0  0.61655  0.08358  0.17129  1.0000
  C   C41       1.0  0.61745  0.08787  0.26435  1.0000
  C   C42       1.0  0.57868  0.05829  0.31343  1.0000
  H   H17       1.0  0.51147  0.93012  0.27091  1.0000
  H   H18       1.0  0.47976  0.06384  0.27123  1.0000
  H   H19       1.0  0.34774  0.89109  0.13417  1.0000
  H   H20       1.0  0.41525  0.94308  0.06052  1.0000
  H   H21       1.0  0.57676  0.05161  0.06021  1.0000
  H   H22       1.0  0.64431  0.10369  0.13368  1.0000
  C   C43       1.0  0.49604  0.99730  0.12559  1.0000
  H   H23       1.0  0.50219  0.97504  0.08314  1.0000
  H   H24       1.0  0.48985  0.01953  0.08312  1.0000
  C   C44       1.0  0.65531  0.12330  0.30715  1.0000
  C   C45       1.0  0.33682  0.87141  0.30754  1.0000
  O   O5        1.0  0.55068  0.87479  0.27824  1.0000
  O   O6        1.0  0.44110  0.11936  0.27874  1.0000
  C   C46       1.0  0.20100  0.48570  0.30837  1.0000
  N   N1        1.0  0.26804  0.48602  0.27937  1.0000
  N   N2        1.0  0.23104  0.48405  0.25222  1.0000
  N   N3        1.0  0.16423  0.48479  0.27255  1.0000
  H   H25       1.0  0.16923  0.50000  0.21554  1.0000
  C   C47       1.0  0.50747  0.71382  0.30852  1.0000
  N   N4        1.0  0.50708  0.78049  0.27949  1.0000
  N   N5        1.0  0.50905  0.74546  0.25234  1.0000
  N   N6        1.0  0.50838  0.67795  0.27273  1.0000
  H   H26       1.0  0.49315  0.66771  0.21574  1.0000
  C   C48       1.0  0.27932  0.79229  0.30850  1.0000
  N   N7        1.0  0.21257  0.72527  0.27952  1.0000
  N   N8        1.0  0.24762  0.76225  0.25236  1.0000
  N   N9        1.0  0.31522  0.82905  0.27272  1.0000
  H   H27       1.0  0.32540  0.82405  0.21568  1.0000
  C   C49       1.0  0.79085  0.50880  0.30838  1.0000
  N   N10       1.0  0.72382  0.50852  0.27950  1.0000
  N   N11       1.0  0.76079  0.51045  0.25228  1.0000
  N   N12       1.0  0.82763  0.50972  0.27254  1.0000
  H   H28       1.0  0.82263  0.49451  0.21553  1.0000
  C   C50       1.0  0.48445  0.28059  0.30838  1.0000
  N   N13       1.0  0.48470  0.21382  0.27946  1.0000
  N   N14       1.0  0.48279  0.24888  0.25226  1.0000
  N   N15       1.0  0.48357  0.31648  0.27256  1.0000
  H   H29       1.0  0.49878  0.32667  0.21554  1.0000
  C   C51       1.0  0.71258  0.20247  0.30832  1.0000
  N   N16       1.0  0.77928  0.26952  0.27935  1.0000
  N   N17       1.0  0.74425  0.23253  0.25218  1.0000
  N   N18       1.0  0.67673  0.16568  0.27248  1.0000
  H   H30       1.0  0.66650  0.17068  0.21549  1.0000
  C   C52       1.0  0.96545  0.45575  0.38013  1.0000
  C   C53       1.0  0.96742  0.45619  0.47435  1.0000
  C   C54       1.0  0.02444  0.53839  0.47439  1.0000
  C   C55       1.0  0.02644  0.53884  0.38017  1.0000
  C   C56       1.0  0.05179  0.57769  0.52384  1.0000
  C   C57       1.0  0.08369  0.61690  0.48128  1.0000
  C   C58       1.0  0.08900  0.61755  0.38850  1.0000
  C   C59       1.0  0.05902  0.57936  0.33846  1.0000
  C   C60       1.0  0.93292  0.41523  0.33836  1.0000
  C   C61       1.0  0.90288  0.37706  0.38838  1.0000
  C   C62       1.0  0.90819  0.37768  0.48117  1.0000
  C   C63       1.0  0.94010  0.41687  0.52376  1.0000
  H   H31       1.0  0.88753  0.35026  0.51918  1.0000
  H   H32       1.0  0.94158  0.41707  0.59160  1.0000
  H   H33       1.0  0.05022  0.57749  0.59167  1.0000
  H   H34       1.0  0.10427  0.64434  0.51932  1.0000
  H   H35       1.0  0.06000  0.47827  0.38112  1.0000
  H   H36       1.0  0.93187  0.51630  0.38108  1.0000
  C   C64       1.0  0.99595  0.49731  0.32569  1.0000
  C   C65       1.0  0.99592  0.49729  0.52581  1.0000
  H   H37       1.0  0.97388  0.50377  0.56825  1.0000
  H   H38       1.0  0.01794  0.49079  0.56829  1.0000
  C   C66       1.0  0.12630  0.65487  0.34875  1.0000
  C   C67       1.0  0.86555  0.33980  0.34861  1.0000
  O   O7        1.0  0.11214  0.44069  0.38443  1.0000
  O   O8        1.0  0.87973  0.55389  0.38435  1.0000
  C   C68       1.0  0.53748  0.50828  0.38026  1.0000
  C   C69       1.0  0.53701  0.50982  0.47448  1.0000
  C   C70       1.0  0.45483  0.48467  0.47441  1.0000
  C   C71       1.0  0.45439  0.48619  0.38019  1.0000
  C   C72       1.0  0.41553  0.47276  0.52382  1.0000
  C   C73       1.0  0.37633  0.46546  0.48120  1.0000
  C   C74       1.0  0.37571  0.47012  0.38841  1.0000
  C   C75       1.0  0.41388  0.47823  0.33840  1.0000
  C   C76       1.0  0.57801  0.51626  0.33856  1.0000
  C   C77       1.0  0.61621  0.52450  0.38862  1.0000
  C   C78       1.0  0.61555  0.52916  0.48141  1.0000
  C   C79       1.0  0.57630  0.52177  0.52395  1.0000
  H   H39       1.0  0.64299  0.53603  0.51947  1.0000
  H   H40       1.0  0.57612  0.52317  0.59178  1.0000
  H   H41       1.0  0.41569  0.47138  0.59164  1.0000
  H   H42       1.0  0.34889  0.45865  0.51921  1.0000
  H   H43       1.0  0.51498  0.58030  0.38121  1.0000
  H   H44       1.0  0.47698  0.41416  0.38115  1.0000
  C   C80       1.0  0.49595  0.49724  0.32577  1.0000
  C   C81       1.0  0.49591  0.49724  0.52590  1.0000
  H   H45       1.0  0.48939  0.46870  0.56834  1.0000
  H   H46       1.0  0.50240  0.52576  0.56836  1.0000
  C   C82       1.0  0.33843  0.47015  0.34861  1.0000
  C   C83       1.0  0.65357  0.52457  0.34896  1.0000
  O   O9        1.0  0.55262  0.67008  0.38446  1.0000
  O   O10       1.0  0.43945  0.32445  0.38439  1.0000
  C   C84       1.0  0.48519  0.02783  0.38033  1.0000
  C   C85       1.0  0.48425  0.02619  0.47459  1.0000
  C   C86       1.0  0.50946  0.96920  0.47422  1.0000
  C   C87       1.0  0.50730  0.96685  0.38006  1.0000
  C   C88       1.0  0.52158  0.94193  0.52348  1.0000
  C   C89       1.0  0.52848  0.90978  0.48086  1.0000
  C   C90       1.0  0.52328  0.90418  0.38820  1.0000
  C   C91       1.0  0.51495  0.93411  0.33824  1.0000
  C   C92       1.0  0.47686  0.06017  0.33867  1.0000
  C   C93       1.0  0.46886  0.09027  0.38882  1.0000
  C   C94       1.0  0.46466  0.08520  0.48170  1.0000
  C   C95       1.0  0.47241  0.05358  0.52421  1.0000
  H   H47       1.0  0.45797  0.10587  0.51985  1.0000
  H   H48       1.0  0.47156  0.05234  0.59206  1.0000
  H   H49       1.0  0.52338  0.94375  0.59127  1.0000
  H   H50       1.0  0.53539  0.88920  0.51881  1.0000
  H   H51       1.0  0.41309  0.93325  0.38130  1.0000
  H   H52       1.0  0.57922  0.06141  0.38100  1.0000
  C   C96       1.0  0.49615  0.99732  0.32574  1.0000
  C   C97       1.0  0.49742  0.99808  0.52584  1.0000
  H   H53       1.0  0.52638  0.02041  0.56705  1.0000
  H   H54       1.0  0.46934  0.97634  0.56951  1.0000
  C   C98       1.0  0.52311  0.86679  0.34849  1.0000
  C   C99       1.0  0.46864  0.12748  0.34911  1.0000
  O   O11       1.0  0.32329  0.88116  0.38462  1.0000
  O   O12       1.0  0.66889  0.11360  0.38423  1.0000
  C   C100      1.0  0.21168  0.49146  0.39944  1.0000
  C   C101      1.0  0.25153  0.49346  0.43030  1.0000
  C   C102      1.0  0.28017  0.49013  0.36612  1.0000
  N   N19       1.0  0.25998  0.49731  0.51896  1.0000
  H   H55       1.0  0.23899  0.49840  0.56095  1.0000
  H   H56       1.0  0.28537  0.49598  0.54391  1.0000
  H   H57       1.0  0.19091  0.49505  0.44316  1.0000
  N   N20       1.0  0.32017  0.49324  0.38749  1.0000
  H   H58       1.0  0.33696  0.51377  0.43567  1.0000
  C   C103      1.0  0.50178  0.71877  0.39960  1.0000
  C   C104      1.0  0.49978  0.75663  0.43045  1.0000
  C   C105      1.0  0.50302  0.78855  0.36624  1.0000
  N   N21       1.0  0.49601  0.76126  0.51913  1.0000
  H   H59       1.0  0.49487  0.73915  0.56112  1.0000
  H   H60       1.0  0.49721  0.78791  0.54410  1.0000
  H   H61       1.0  0.49825  0.69444  0.44335  1.0000
  N   N22       1.0  0.50002  0.82551  0.38760  1.0000
  H   H62       1.0  0.47967  0.82190  0.43603  1.0000
  C   C106      1.0  0.27438  0.78161  0.39958  1.0000
  C   C107      1.0  0.23653  0.74177  0.43043  1.0000
  C   C108      1.0  0.20454  0.71313  0.36626  1.0000
  N   N23       1.0  0.23192  0.73335  0.51910  1.0000
  H   H63       1.0  0.25413  0.75421  0.56108  1.0000
  H   H64       1.0  0.20533  0.70782  0.54408  1.0000
  H   H65       1.0  0.29874  0.80238  0.44331  1.0000
  N   N24       1.0  0.16764  0.67314  0.38765  1.0000
  H   H66       1.0  0.17138  0.65635  0.43582  1.0000
  C   C109      1.0  0.78022  0.50309  0.39947  1.0000
  C   C110      1.0  0.74042  0.50114  0.43040  1.0000
  C   C111      1.0  0.71174  0.50445  0.36626  1.0000
  N   N25       1.0  0.73203  0.49736  0.51909  1.0000
  H   H67       1.0  0.75306  0.49629  0.56105  1.0000
  H   H68       1.0  0.70669  0.49874  0.54410  1.0000
  H   H69       1.0  0.80102  0.49952  0.44317  1.0000
  N   N26       1.0  0.67179  0.50143  0.38775  1.0000
  H   H70       1.0  0.65506  0.48100  0.43609  1.0000
  C   C112      1.0  0.49017  0.27565  0.39946  1.0000
  C   C113      1.0  0.49209  0.23778  0.43036  1.0000
  C   C114      1.0  0.48875  0.20579  0.36622  1.0000
  N   N27       1.0  0.49589  0.23317  0.51905  1.0000
  H   H71       1.0  0.49698  0.25527  0.56102  1.0000
  H   H72       1.0  0.49449  0.20643  0.54403  1.0000
  H   H73       1.0  0.49376  0.30003  0.44317  1.0000
  N   N28       1.0  0.49184  0.16889  0.38769  1.0000
  H   H74       1.0  0.51239  0.17269  0.43585  1.0000
  C   C115      1.0  0.71750  0.21311  0.39941  1.0000
  C   C116      1.0  0.75535  0.25295  0.43028  1.0000
  C   C117      1.0  0.78730  0.28162  0.36611  1.0000
  N   N29       1.0  0.75997  0.26138  0.51896  1.0000
  H   H75       1.0  0.73783  0.24042  0.56094  1.0000
  H   H76       1.0  0.78661  0.28683  0.54393  1.0000
  H   H77       1.0  0.69315  0.19231  0.44312  1.0000
  N   N30       1.0  0.82422  0.32160  0.38750  1.0000
  H   H78       1.0  0.82050  0.33839  0.43569  1.0000
