data_image0
_chemical_formula_structural       C2HC2H3N2C2NHCHC2NHCHC4NC4NH4N2CNCHCHCNCHCHC2HC2H3N2C2NHCHC2NHCHC4NC4NH4N2CNCHCHCNCHCHC2HC2H3N2C2NHCHC2NHCHC4NC4NH4N2CNCHCHCNCHCHC2HC2H3N2C2NHCHC2NHCHC4NC4NH4N2CNCHCHCNCHCH
_chemical_formula_sum              "C96 H64 N40"
_cell_length_a       31.1854
_cell_length_b       31.1854
_cell_length_c       14.8911
_cell_angle_alpha    90
_cell_angle_beta     90
_cell_angle_gamma    90

_space_group_name_H-M_alt    "P 1"
_space_group_IT_number       1

loop_
  _space_group_symop_operation_xyz
  'x, y, z'

loop_
  _atom_site_type_symbol
  _atom_site_label
  _atom_site_symmetry_multiplicity
  _atom_site_fract_x
  _atom_site_fract_y
  _atom_site_fract_z
  _atom_site_occupancy
  C   C1        1.0  0.49673  0.44249  0.33959  1.0000
  C   C2        1.0  0.46514  0.40992  0.34011  1.0000
  H   H1        1.0  0.02753  0.43217  0.33687  1.0000
  C   C3        1.0  0.04217  0.09741  0.33933  1.0000
  C   C4        1.0  0.01056  0.06485  0.33921  1.0000
  H   H2        1.0  0.47977  0.07516  0.33663  1.0000
  H   H3        1.0  0.11040  0.14768  0.33918  1.0000
  H   H4        1.0  0.39691  0.35965  0.34123  1.0000
  N   N1        1.0  0.03198  0.13972  0.33826  1.0000
  N   N2        1.0  0.47532  0.36761  0.33902  1.0000
  C   C5        1.0  0.99949  0.20892  0.33705  1.0000
  C   C6        1.0  0.96308  0.23580  0.33710  1.0000
  N   N3        1.0  0.96867  0.27898  0.33735  1.0000
  H   H5        1.0  0.93268  0.22354  0.33721  1.0000
  C   C7        1.0  0.99615  0.16398  0.33728  1.0000
  H   H6        1.0  0.96664  0.14971  0.33746  1.0000
  C   C8        1.0  0.29839  0.00783  0.34549  1.0000
  C   C9        1.0  0.27152  0.04424  0.34519  1.0000
  N   N4        1.0  0.22834  0.03865  0.34515  1.0000
  H   H7        1.0  0.28378  0.07464  0.34477  1.0000
  C   C10       1.0  0.34333  0.01117  0.34513  1.0000
  H   H8        1.0  0.35761  0.04068  0.34470  1.0000
  C   C11       1.0  0.48723  0.48725  0.34145  1.0000
  C   C12       1.0  0.42105  0.42106  0.34189  1.0000
  C   C13       1.0  0.40991  0.46515  0.34331  1.0000
  C   C14       1.0  0.44247  0.49675  0.34342  1.0000
  N   N5        1.0  0.39001  0.39002  0.34219  1.0000
  C   C15       1.0  0.02007  0.02009  0.34130  1.0000
  C   C16       1.0  0.06483  0.01058  0.34328  1.0000
  C   C17       1.0  0.09739  0.04218  0.34275  1.0000
  C   C18       1.0  0.08626  0.08627  0.34086  1.0000
  N   N6        1.0  0.11730  0.11731  0.34056  1.0000
  H   H9        1.0  0.14767  0.11041  0.34160  1.0000
  H   H10       1.0  0.35964  0.39692  0.34348  1.0000
  H   H11       1.0  0.43215  0.02755  0.34589  1.0000
  H   H12       1.0  0.07514  0.47979  0.34609  1.0000
  N   N7        1.0  0.13970  0.03200  0.34389  1.0000
  N   N8        1.0  0.36760  0.47534  0.34432  1.0000
  C   C19       1.0  0.04422  0.27154  0.33710  1.0000
  N   N9        1.0  0.03864  0.22835  0.33706  1.0000
  C   C20       1.0  0.00781  0.29841  0.33736  1.0000
  H   H13       1.0  0.07462  0.28380  0.33718  1.0000
  C   C21       1.0  0.01115  0.34335  0.33781  1.0000
  H   H14       1.0  0.04066  0.35762  0.33786  1.0000
  C   C22       1.0  0.23578  0.96310  0.34607  1.0000
  N   N10       1.0  0.27896  0.96868  0.34592  1.0000
  C   C23       1.0  0.20891  0.99951  0.34558  1.0000
  H   H15       1.0  0.22352  0.93270  0.34634  1.0000
  C   C24       1.0  0.16397  0.99617  0.34528  1.0000
  H   H16       1.0  0.14969  0.96666  0.34546  1.0000
  C   C25       1.0  0.49673  0.94249  0.33959  1.0000
  C   C26       1.0  0.46514  0.90992  0.34011  1.0000
  H   H17       1.0  0.02753  0.93218  0.33687  1.0000
  C   C27       1.0  0.04217  0.59741  0.33933  1.0000
  C   C28       1.0  0.01056  0.56485  0.33921  1.0000
  H   H18       1.0  0.47977  0.57516  0.33663  1.0000
  H   H19       1.0  0.11040  0.64767  0.33918  1.0000
  H   H20       1.0  0.39691  0.85965  0.34123  1.0000
  N   N11       1.0  0.03198  0.63972  0.33826  1.0000
  N   N12       1.0  0.47532  0.86761  0.33902  1.0000
  C   C29       1.0  0.99949  0.70892  0.33705  1.0000
  C   C30       1.0  0.96308  0.73580  0.33710  1.0000
  N   N13       1.0  0.96867  0.77898  0.33735  1.0000
  H   H21       1.0  0.93268  0.72354  0.33721  1.0000
  C   C31       1.0  0.99615  0.66399  0.33728  1.0000
  H   H22       1.0  0.96664  0.64971  0.33746  1.0000
  C   C32       1.0  0.29839  0.50783  0.34549  1.0000
  C   C33       1.0  0.27152  0.54424  0.34519  1.0000
  N   N14       1.0  0.22834  0.53865  0.34515  1.0000
  H   H23       1.0  0.28378  0.57464  0.34477  1.0000
  C   C34       1.0  0.34333  0.51117  0.34513  1.0000
  H   H24       1.0  0.35761  0.54068  0.34470  1.0000
  C   C35       1.0  0.48723  0.98725  0.34145  1.0000
  C   C36       1.0  0.42105  0.92106  0.34189  1.0000
  C   C37       1.0  0.40991  0.96515  0.34331  1.0000
  C   C38       1.0  0.44247  0.99675  0.34342  1.0000
  N   N15       1.0  0.39001  0.89002  0.34219  1.0000
  C   C39       1.0  0.02007  0.52009  0.34130  1.0000
  C   C40       1.0  0.06483  0.51058  0.34328  1.0000
  C   C41       1.0  0.09739  0.54218  0.34275  1.0000
  C   C42       1.0  0.08626  0.58627  0.34086  1.0000
  N   N16       1.0  0.11730  0.61731  0.34056  1.0000
  H   H25       1.0  0.14767  0.61041  0.34160  1.0000
  H   H26       1.0  0.35964  0.89692  0.34348  1.0000
  H   H27       1.0  0.43215  0.52755  0.34589  1.0000
  H   H28       1.0  0.07514  0.97979  0.34609  1.0000
  N   N17       1.0  0.13970  0.53199  0.34389  1.0000
  N   N18       1.0  0.36760  0.97534  0.34432  1.0000
  C   C43       1.0  0.04422  0.77154  0.33710  1.0000
  N   N19       1.0  0.03864  0.72835  0.33706  1.0000
  C   C44       1.0  0.00781  0.79841  0.33736  1.0000
  H   H29       1.0  0.07462  0.78380  0.33718  1.0000
  C   C45       1.0  0.01115  0.84335  0.33781  1.0000
  H   H30       1.0  0.04066  0.85762  0.33786  1.0000
  C   C46       1.0  0.23578  0.46310  0.34607  1.0000
  N   N20       1.0  0.27896  0.46868  0.34592  1.0000
  C   C47       1.0  0.20891  0.49951  0.34558  1.0000
  H   H31       1.0  0.22352  0.43270  0.34634  1.0000
  C   C48       1.0  0.16397  0.49617  0.34528  1.0000
  H   H32       1.0  0.14969  0.46666  0.34546  1.0000
  C   C49       1.0  0.99673  0.44249  0.33959  1.0000
  C   C50       1.0  0.96514  0.40992  0.34011  1.0000
  H   H33       1.0  0.52753  0.43217  0.33687  1.0000
  C   C51       1.0  0.54217  0.09741  0.33933  1.0000
  C   C52       1.0  0.51057  0.06485  0.33921  1.0000
  H   H34       1.0  0.97977  0.07516  0.33663  1.0000
  H   H35       1.0  0.61040  0.14768  0.33918  1.0000
  H   H36       1.0  0.89691  0.35965  0.34123  1.0000
  N   N21       1.0  0.53198  0.13972  0.33826  1.0000
  N   N22       1.0  0.97532  0.36761  0.33902  1.0000
  C   C53       1.0  0.49949  0.20892  0.33705  1.0000
  C   C54       1.0  0.46308  0.23580  0.33710  1.0000
  N   N23       1.0  0.46866  0.27898  0.33735  1.0000
  H   H37       1.0  0.43268  0.22354  0.33721  1.0000
  C   C55       1.0  0.49615  0.16398  0.33728  1.0000
  H   H38       1.0  0.46664  0.14971  0.33746  1.0000
  C   C56       1.0  0.79839  0.00783  0.34549  1.0000
  C   C57       1.0  0.77152  0.04424  0.34519  1.0000
  N   N24       1.0  0.72833  0.03865  0.34515  1.0000
  H   H39       1.0  0.78378  0.07464  0.34477  1.0000
  C   C58       1.0  0.84333  0.01117  0.34513  1.0000
  H   H40       1.0  0.85761  0.04068  0.34470  1.0000
  C   C59       1.0  0.98723  0.48725  0.34145  1.0000
  C   C60       1.0  0.92105  0.42106  0.34189  1.0000
  C   C61       1.0  0.90991  0.46515  0.34331  1.0000
  C   C62       1.0  0.94247  0.49675  0.34342  1.0000
  N   N25       1.0  0.89001  0.39002  0.34219  1.0000
  C   C63       1.0  0.52007  0.02009  0.34130  1.0000
  C   C64       1.0  0.56483  0.01058  0.34328  1.0000
  C   C65       1.0  0.59740  0.04218  0.34275  1.0000
  C   C66       1.0  0.58626  0.08627  0.34086  1.0000
  N   N26       1.0  0.61730  0.11731  0.34056  1.0000
  H   H41       1.0  0.64767  0.11041  0.34160  1.0000
  H   H42       1.0  0.85964  0.39692  0.34348  1.0000
  H   H43       1.0  0.93216  0.02755  0.34589  1.0000
  H   H44       1.0  0.57514  0.47979  0.34609  1.0000
  N   N27       1.0  0.63970  0.03200  0.34389  1.0000
  N   N28       1.0  0.86760  0.47534  0.34432  1.0000
  C   C67       1.0  0.54422  0.27154  0.33710  1.0000
  N   N29       1.0  0.53864  0.22835  0.33706  1.0000
  C   C68       1.0  0.50781  0.29841  0.33736  1.0000
  H   H45       1.0  0.57462  0.28380  0.33718  1.0000
  C   C69       1.0  0.51115  0.34335  0.33781  1.0000
  H   H46       1.0  0.54066  0.35762  0.33786  1.0000
  C   C70       1.0  0.73578  0.96310  0.34607  1.0000
  N   N30       1.0  0.77896  0.96868  0.34592  1.0000
  C   C71       1.0  0.70891  0.99951  0.34558  1.0000
  H   H47       1.0  0.72352  0.93270  0.34634  1.0000
  C   C72       1.0  0.66397  0.99617  0.34528  1.0000
  H   H48       1.0  0.64969  0.96666  0.34546  1.0000
  C   C73       1.0  0.99673  0.94249  0.33959  1.0000
  C   C74       1.0  0.96514  0.90992  0.34011  1.0000
  H   H49       1.0  0.52753  0.93218  0.33687  1.0000
  C   C75       1.0  0.54217  0.59741  0.33933  1.0000
  C   C76       1.0  0.51057  0.56485  0.33921  1.0000
  H   H50       1.0  0.97977  0.57516  0.33663  1.0000
  H   H51       1.0  0.61040  0.64767  0.33918  1.0000
  H   H52       1.0  0.89691  0.85965  0.34123  1.0000
  N   N31       1.0  0.53198  0.63972  0.33826  1.0000
  N   N32       1.0  0.97532  0.86761  0.33902  1.0000
  C   C77       1.0  0.49949  0.70892  0.33705  1.0000
  C   C78       1.0  0.46308  0.73580  0.33710  1.0000
  N   N33       1.0  0.46866  0.77898  0.33735  1.0000
  H   H53       1.0  0.43268  0.72354  0.33721  1.0000
  C   C79       1.0  0.49615  0.66399  0.33728  1.0000
  H   H54       1.0  0.46664  0.64971  0.33746  1.0000
  C   C80       1.0  0.79839  0.50783  0.34549  1.0000
  C   C81       1.0  0.77152  0.54424  0.34519  1.0000
  N   N34       1.0  0.72833  0.53865  0.34515  1.0000
  H   H55       1.0  0.78378  0.57464  0.34477  1.0000
  C   C82       1.0  0.84333  0.51117  0.34513  1.0000
  H   H56       1.0  0.85761  0.54068  0.34470  1.0000
  C   C83       1.0  0.98723  0.98725  0.34145  1.0000
  C   C84       1.0  0.92105  0.92106  0.34189  1.0000
  C   C85       1.0  0.90991  0.96515  0.34331  1.0000
  C   C86       1.0  0.94247  0.99675  0.34342  1.0000
  N   N35       1.0  0.89001  0.89002  0.34219  1.0000
  C   C87       1.0  0.52007  0.52009  0.34130  1.0000
  C   C88       1.0  0.56483  0.51058  0.34328  1.0000
  C   C89       1.0  0.59740  0.54218  0.34275  1.0000
  C   C90       1.0  0.58626  0.58627  0.34086  1.0000
  N   N36       1.0  0.61730  0.61731  0.34056  1.0000
  H   H57       1.0  0.64767  0.61041  0.34160  1.0000
  H   H58       1.0  0.85964  0.89692  0.34348  1.0000
  H   H59       1.0  0.93216  0.52755  0.34589  1.0000
  H   H60       1.0  0.57514  0.97979  0.34609  1.0000
  N   N37       1.0  0.63970  0.53199  0.34389  1.0000
  N   N38       1.0  0.86760  0.97534  0.34432  1.0000
  C   C91       1.0  0.54422  0.77154  0.33710  1.0000
  N   N39       1.0  0.53864  0.72835  0.33706  1.0000
  C   C92       1.0  0.50781  0.79841  0.33736  1.0000
  H   H61       1.0  0.57462  0.78380  0.33718  1.0000
  C   C93       1.0  0.51115  0.84335  0.33781  1.0000
  H   H62       1.0  0.54066  0.85762  0.33786  1.0000
  C   C94       1.0  0.73578  0.46310  0.34607  1.0000
  N   N40       1.0  0.77896  0.46868  0.34592  1.0000
  C   C95       1.0  0.70891  0.49951  0.34558  1.0000
  H   H63       1.0  0.72352  0.43270  0.34634  1.0000
  C   C96       1.0  0.66397  0.49617  0.34528  1.0000
  H   H64       1.0  0.64969  0.46666  0.34546  1.0000
