data_image0
_chemical_formula_structural       C2HCHC3HC4HOC2OHCHCHC5OHC4HOC4OHC4HOC4OHCNHOCNC2H2CO2HNC2HCO2HCNC2H2CO2HCNC2H2CO2HCNC2H2CO2HC2H3C4H4C4H4C4HCNCO2HC4HC3NHCO2HC4NHCO2HC4HC3NHCO2HC4HC3NHCO2HC4HC3NHCO2H
_chemical_formula_sum              "C108 H54 O30 N12"
_cell_length_a       31.7087
_cell_length_b       31.7086
_cell_length_c       14.8215
_cell_angle_alpha    90
_cell_angle_beta     90
_cell_angle_gamma    120

_space_group_name_H-M_alt    "P 1"
_space_group_IT_number       1

loop_
  _space_group_symop_operation_xyz
  'x, y, z'

loop_
  _atom_site_type_symbol
  _atom_site_label
  _atom_site_symmetry_multiplicity
  _atom_site_fract_x
  _atom_site_fract_y
  _atom_site_fract_z
  _atom_site_occupancy
  C   C1        1.0  0.03595  0.51967  0.36257  1.0000
  C   C2        1.0  0.06366  0.57168  0.35662  1.0000
  H   H1        1.0  0.04677  0.59164  0.35097  1.0000
  C   C3        1.0  0.06450  0.49628  0.36898  1.0000
  H   H2        1.0  0.04822  0.45955  0.37643  1.0000
  C   C4        1.0  0.11522  0.59850  0.35634  1.0000
  C   C5        1.0  0.14118  0.57312  0.36110  1.0000
  C   C6        1.0  0.15181  0.47702  0.29583  1.0000
  H   H3        1.0  0.13084  0.47212  0.23985  1.0000
  C   C7        1.0  0.11610  0.52183  0.36872  1.0000
  C   C8        1.0  0.14402  0.49786  0.37377  1.0000
  C   C9        1.0  0.14233  0.65046  0.35632  1.0000
  C   C10       1.0  0.15413  0.67611  0.43889  1.0000
  H   H4        1.0  0.13577  0.65787  0.49599  1.0000
  O   O1        1.0  0.19104  0.59872  0.36167  1.0000
  C   C11       1.0  0.19053  0.46672  0.29098  1.0000
  C   C12       1.0  0.19676  0.44637  0.21250  1.0000
  O   O2        1.0  0.18341  0.40260  0.20697  1.0000
  H   H5        1.0  0.17645  0.38279  0.25374  1.0000
  C   C13       1.0  0.17039  0.67565  0.28030  1.0000
  H   H6        1.0  0.16591  0.65821  0.22004  1.0000
  C   C14       1.0  0.17531  0.50645  0.44769  1.0000
  H   H7        1.0  0.17332  0.52385  0.50423  1.0000
  C   C15       1.0  0.19327  0.72474  0.44581  1.0000
  C   C16       1.0  0.98215  0.49234  0.36259  1.0000
  C   C17       1.0  0.87692  0.43891  0.36117  1.0000
  C   C18       1.0  0.90288  0.41351  0.35643  1.0000
  C   C19       1.0  0.95444  0.44033  0.35668  1.0000
  O   O3        1.0  0.82706  0.41330  0.36175  1.0000
  H   H8        1.0  0.97133  0.42037  0.35096  1.0000
  C   C20       1.0  0.49537  0.51927  0.36260  1.0000
  C   C21       1.0  0.44336  0.49496  0.35665  1.0000
  C   C22       1.0  0.41653  0.51970  0.35639  1.0000
  C   C23       1.0  0.44192  0.57105  0.36113  1.0000
  H   H9        1.0  0.42340  0.45811  0.35092  1.0000
  O   O4        1.0  0.41630  0.59530  0.36167  1.0000
  C   C24       1.0  0.52270  0.49281  0.36258  1.0000
  C   C25       1.0  0.57616  0.44103  0.36108  1.0000
  C   C26       1.0  0.60154  0.49238  0.35636  1.0000
  C   C27       1.0  0.57471  0.51711  0.35662  1.0000
  O   O5        1.0  0.60177  0.41679  0.36162  1.0000
  H   H10       1.0  0.59466  0.55397  0.35095  1.0000
  C   C28       1.0  0.49579  0.97915  0.36259  1.0000
  C   C29       1.0  0.52009  0.95143  0.35665  1.0000
  C   C30       1.0  0.49535  0.89987  0.35636  1.0000
  C   C31       1.0  0.44400  0.87391  0.36111  1.0000
  H   H11       1.0  0.55694  0.96832  0.35102  1.0000
  O   O6        1.0  0.41975  0.82405  0.36168  1.0000
  C   C32       1.0  0.52225  0.03294  0.36261  1.0000
  C   C33       1.0  0.57404  0.13817  0.36121  1.0000
  C   C34       1.0  0.52269  0.11221  0.35649  1.0000
  C   C35       1.0  0.49795  0.06065  0.35673  1.0000
  O   O7        1.0  0.59829  0.18803  0.36179  1.0000
  H   H12       1.0  0.46110  0.04376  0.35104  1.0000
  C   C36       1.0  0.33939  0.49769  0.28023  1.0000
  N   N1        1.0  0.29353  0.48999  0.28953  1.0000
  H   H13       1.0  0.35684  0.51066  0.21997  1.0000
  O   O8        1.0  0.20083  0.46720  0.14084  1.0000
  C   C37       1.0  0.51733  0.84470  0.28033  1.0000
  N   N2        1.0  0.52502  0.80653  0.28961  1.0000
  C   C38       1.0  0.54827  0.72679  0.29102  1.0000
  C   C39       1.0  0.53798  0.67778  0.29585  1.0000
  H   H14       1.0  0.54288  0.66170  0.23988  1.0000
  H   H15       1.0  0.50438  0.84918  0.22006  1.0000
  C   C40       1.0  0.56861  0.75337  0.21252  1.0000
  O   O9        1.0  0.54776  0.73660  0.14088  1.0000
  O   O10       1.0  0.61238  0.78378  0.20696  1.0000
  H   H16       1.0  0.63220  0.79663  0.25371  1.0000
  N   N3        1.0  0.20855  0.72151  0.28957  1.0000
  C   C41       1.0  0.28827  0.82452  0.29098  1.0000
  C   C42       1.0  0.33728  0.86325  0.29581  1.0000
  H   H17       1.0  0.35335  0.88421  0.23983  1.0000
  C   C43       1.0  0.26169  0.81826  0.21247  1.0000
  O   O11       1.0  0.27846  0.81418  0.14084  1.0000
  O   O12       1.0  0.23126  0.83160  0.20689  1.0000
  H   H18       1.0  0.21840  0.83857  0.25364  1.0000
  C   C44       1.0  0.67873  0.51438  0.28029  1.0000
  N   N4        1.0  0.72457  0.52206  0.28957  1.0000
  C   C45       1.0  0.82755  0.54527  0.29101  1.0000
  C   C46       1.0  0.86627  0.53498  0.29585  1.0000
  H   H19       1.0  0.88725  0.53987  0.23988  1.0000
  H   H20       1.0  0.66130  0.50146  0.22000  1.0000
  C   C47       1.0  0.82132  0.56561  0.21251  1.0000
  O   O13       1.0  0.81723  0.54476  0.14087  1.0000
  O   O14       1.0  0.83468  0.60938  0.20694  1.0000
  H   H21       1.0  0.84166  0.62920  0.25368  1.0000
  C   C48       1.0  0.50071  0.16737  0.28042  1.0000
  N   N5        1.0  0.49302  0.20554  0.28967  1.0000
  C   C49       1.0  0.46973  0.28526  0.29105  1.0000
  C   C50       1.0  0.48002  0.33428  0.29582  1.0000
  H   H22       1.0  0.47511  0.35034  0.23985  1.0000
  H   H23       1.0  0.51365  0.16287  0.22015  1.0000
  C   C51       1.0  0.44934  0.25865  0.21261  1.0000
  O   O15       1.0  0.47014  0.27538  0.14091  1.0000
  O   O16       1.0  0.40557  0.22821  0.20716  1.0000
  H   H24       1.0  0.38579  0.21538  0.25395  1.0000
  C   C52       1.0  0.84770  0.33638  0.28035  1.0000
  N   N6        1.0  0.80953  0.29052  0.28961  1.0000
  C   C53       1.0  0.72978  0.18753  0.29100  1.0000
  C   C54       1.0  0.68076  0.14882  0.29583  1.0000
  H   H25       1.0  0.66467  0.12785  0.23985  1.0000
  H   H26       1.0  0.85219  0.35383  0.22009  1.0000
  C   C55       1.0  0.75634  0.19377  0.21249  1.0000
  O   O17       1.0  0.73958  0.19786  0.14086  1.0000
  O   O18       1.0  0.78676  0.18043  0.20691  1.0000
  H   H27       1.0  0.79962  0.17346  0.25364  1.0000
  C   C56       1.0  0.95360  0.51574  0.36903  1.0000
  C   C57       1.0  0.90200  0.49019  0.36878  1.0000
  H   H28       1.0  0.20149  0.59798  0.29948  1.0000
  H   H29       1.0  0.81661  0.41404  0.29957  1.0000
  H   H30       1.0  0.96988  0.55247  0.37641  1.0000
  C   C58       1.0  0.49320  0.59725  0.36877  1.0000
  C   C59       1.0  0.51875  0.57121  0.36908  1.0000
  C   C60       1.0  0.49931  0.44086  0.36898  1.0000
  C   C61       1.0  0.52487  0.41482  0.36872  1.0000
  H   H31       1.0  0.41704  0.60648  0.29948  1.0000
  H   H32       1.0  0.60103  0.40561  0.29942  1.0000
  H   H33       1.0  0.55549  0.59166  0.37646  1.0000
  H   H34       1.0  0.46258  0.42041  0.37645  1.0000
  C   C62       1.0  0.41780  0.89899  0.36872  1.0000
  C   C63       1.0  0.44384  0.95059  0.36898  1.0000
  C   C64       1.0  0.57420  0.06149  0.36903  1.0000
  C   C65       1.0  0.60025  0.11309  0.36879  1.0000
  H   H35       1.0  0.40856  0.81359  0.29950  1.0000
  H   H36       1.0  0.60948  0.19849  0.29960  1.0000
  H   H37       1.0  0.42339  0.96687  0.37642  1.0000
  H   H38       1.0  0.59465  0.04521  0.37638  1.0000
  C   C66       1.0  0.36457  0.49485  0.35627  1.0000
  C   C67       1.0  0.26716  0.47687  0.36741  1.0000
  C   C68       1.0  0.29032  0.47151  0.44579  1.0000
  C   C69       1.0  0.33895  0.48100  0.43888  1.0000
  H   H39       1.0  0.35720  0.48089  0.49598  1.0000
  C   C70       1.0  0.22214  0.47769  0.36676  1.0000
  N   N7        1.0  0.21254  0.49726  0.44028  1.0000
  C   C71       1.0  0.26859  0.45901  0.52996  1.0000
  O   O19       1.0  0.28041  0.49184  0.58514  1.0000
  O   O20       1.0  0.22857  0.42142  0.53677  1.0000
  H   H40       1.0  0.21058  0.41261  0.58640  1.0000
  C   C72       1.0  0.52019  0.87276  0.35635  1.0000
  C   C73       1.0  0.53813  0.79327  0.36747  1.0000
  C   C74       1.0  0.54350  0.82179  0.44585  1.0000
  C   C75       1.0  0.53402  0.86094  0.43892  1.0000
  H   H41       1.0  0.53415  0.87931  0.49603  1.0000
  C   C76       1.0  0.53732  0.74743  0.36681  1.0000
  C   C77       1.0  0.51716  0.64914  0.37381  1.0000
  C   C78       1.0  0.50858  0.67185  0.44774  1.0000
  N   N8        1.0  0.51776  0.71826  0.44033  1.0000
  H   H42       1.0  0.49119  0.65246  0.50429  1.0000
  C   C79       1.0  0.55600  0.81256  0.53002  1.0000
  O   O21       1.0  0.52316  0.79155  0.58520  1.0000
  O   O22       1.0  0.59359  0.81013  0.53683  1.0000
  H   H43       1.0  0.60239  0.80094  0.58646  1.0000
  C   C80       1.0  0.22180  0.74790  0.36743  1.0000
  C   C81       1.0  0.26762  0.79292  0.36677  1.0000
  C   C82       1.0  0.36591  0.87107  0.37377  1.0000
  C   C83       1.0  0.34320  0.83980  0.44771  1.0000
  N   N9        1.0  0.29679  0.80255  0.44031  1.0000
  H   H44       1.0  0.36259  0.84180  0.50427  1.0000
  C   C84       1.0  0.20250  0.74648  0.52997  1.0000
  O   O23       1.0  0.22351  0.73467  0.58516  1.0000
  O   O24       1.0  0.20491  0.78649  0.53677  1.0000
  H   H45       1.0  0.21409  0.80448  0.58640  1.0000
  C   C85       1.0  0.65349  0.51724  0.35625  1.0000
  C   C86       1.0  0.75094  0.53514  0.36745  1.0000
  C   C87       1.0  0.72776  0.54048  0.44582  1.0000
  C   C88       1.0  0.67913  0.53100  0.43885  1.0000
  H   H46       1.0  0.66089  0.53111  0.49597  1.0000
  C   C89       1.0  0.79595  0.53433  0.36679  1.0000
  C   C90       1.0  0.87408  0.51415  0.37381  1.0000
  C   C91       1.0  0.84280  0.50559  0.44774  1.0000
  N   N10       1.0  0.80556  0.51476  0.44033  1.0000
  H   H47       1.0  0.84479  0.48820  0.50429  1.0000
  C   C92       1.0  0.74946  0.55293  0.53002  1.0000
  O   O25       1.0  0.73762  0.52007  0.58514  1.0000
  O   O26       1.0  0.78947  0.59052  0.53692  1.0000
  H   H48       1.0  0.80745  0.59930  0.58657  1.0000
  C   C93       1.0  0.49784  0.13932  0.35645  1.0000
  C   C94       1.0  0.47991  0.21881  0.36753  1.0000
  C   C95       1.0  0.47454  0.19030  0.44592  1.0000
  C   C96       1.0  0.48402  0.15116  0.43902  1.0000
  H   H49       1.0  0.48391  0.13280  0.49614  1.0000
  C   C97       1.0  0.48072  0.26465  0.36684  1.0000
  C   C98       1.0  0.50092  0.36293  0.37371  1.0000
  C   C99       1.0  0.50951  0.34027  0.44770  1.0000
  N   N11       1.0  0.50032  0.29385  0.44033  1.0000
  H   H50       1.0  0.52693  0.35967  0.50421  1.0000
  C   C100      1.0  0.46206  0.19956  0.53008  1.0000
  O   O27       1.0  0.49490  0.22057  0.58525  1.0000
  O   O28       1.0  0.42447  0.20200  0.53690  1.0000
  H   H51       1.0  0.41568  0.21119  0.58652  1.0000
  C   C101      1.0  0.87577  0.36156  0.35637  1.0000
  C   C102      1.0  0.79627  0.26413  0.36746  1.0000
  C   C103      1.0  0.82481  0.28727  0.44584  1.0000
  C   C104      1.0  0.86396  0.33590  0.43893  1.0000
  H   H52       1.0  0.88233  0.35413  0.49604  1.0000
  C   C105      1.0  0.75043  0.21912  0.36680  1.0000
  C   C106      1.0  0.65213  0.14101  0.37380  1.0000
  C   C107      1.0  0.67485  0.17228  0.44774  1.0000
  N   N12       1.0  0.72127  0.20951  0.44033  1.0000
  H   H53       1.0  0.65548  0.17028  0.50431  1.0000
  C   C108      1.0  0.81557  0.26552  0.52999  1.0000
  O   O29       1.0  0.79458  0.27735  0.58520  1.0000
  O   O30       1.0  0.81314  0.22550  0.53677  1.0000
  H   H54       1.0  0.80395  0.20750  0.58639  1.0000
