data_image0
_chemical_formula_structural       NC2H3C3H3CHC2HCHC2HCHNC8H4N3C12H6N3C4H3CH3CHC4H3CH3CHC3H3CHC4H4C6H6C4H3CH3CHC4H3CH3CHC2H3
_chemical_formula_sum              "N8 C72 H66"
_cell_length_a       32.3575
_cell_length_b       32.3573
_cell_length_c       14.7002
_cell_angle_alpha    90
_cell_angle_beta     90
_cell_angle_gamma    120.001

_space_group_name_H-M_alt    "P 1"
_space_group_IT_number       1

loop_
  _space_group_symop_operation_xyz
  'x, y, z'

loop_
  _atom_site_type_symbol
  _atom_site_label
  _atom_site_symmetry_multiplicity
  _atom_site_fract_x
  _atom_site_fract_y
  _atom_site_fract_z
  _atom_site_occupancy
  N   N1        1.0  0.14750  0.58366  0.33594  1.0000
  C   C1        1.0  0.04062  0.50961  0.27448  1.0000
  C   C2        1.0  0.06663  0.50672  0.19193  1.0000
  H   H1        1.0  0.10439  0.51926  0.20198  1.0000
  H   H2        1.0  0.06439  0.52812  0.13689  1.0000
  H   H3        1.0  0.05069  0.46973  0.16951  1.0000
  C   C3        1.0  0.06535  0.52948  0.35799  1.0000
  C   C4        1.0  0.03967  0.53056  0.43630  1.0000
  C   C5        1.0  0.06549  0.55407  0.52295  1.0000
  H   H4        1.0  0.10427  0.57302  0.51833  1.0000
  H   H5        1.0  0.05552  0.52726  0.57625  1.0000
  H   H6        1.0  0.05608  0.58065  0.54419  1.0000
  C   C6        1.0  0.11378  0.54353  0.36671  1.0000
  H   H7        1.0  0.12184  0.52174  0.39996  1.0000
  C   C7        1.0  0.19518  0.60387  0.33994  1.0000
  C   C8        1.0  0.22254  0.63445  0.26826  1.0000
  H   H8        1.0  0.20586  0.63961  0.21394  1.0000
  C   C9        1.0  0.22002  0.59845  0.41416  1.0000
  H   H9        1.0  0.20157  0.57761  0.46842  1.0000
  C   C10       1.0  0.29761  0.65255  0.34355  1.0000
  C   C11       1.0  0.27287  0.65794  0.26945  1.0000
  H   H10       1.0  0.29157  0.67953  0.21614  1.0000
  C   C12       1.0  0.27040  0.62254  0.41600  1.0000
  H   H11       1.0  0.28731  0.61820  0.47083  1.0000
  N   N2        1.0  0.34863  0.67687  0.34520  1.0000
  C   C13       1.0  0.37533  0.72789  0.34355  1.0000
  C   C14       1.0  0.37294  0.65016  0.34353  1.0000
  C   C15       1.0  0.42904  0.83032  0.33989  1.0000
  C   C16       1.0  0.43229  0.80296  0.26824  1.0000
  C   C17       1.0  0.40544  0.75263  0.26943  1.0000
  C   C18       1.0  0.42166  0.59645  0.33986  1.0000
  C   C19       1.0  0.39106  0.59321  0.26821  1.0000
  C   C20       1.0  0.36757  0.62005  0.26941  1.0000
  H   H12       1.0  0.40835  0.73393  0.21614  1.0000
  H   H13       1.0  0.45412  0.81964  0.21390  1.0000
  H   H14       1.0  0.38589  0.57137  0.21388  1.0000
  H   H15       1.0  0.34597  0.61716  0.21612  1.0000
  N   N3        1.0  0.44184  0.56895  0.33585  1.0000
  N   N4        1.0  0.45653  0.87800  0.33589  1.0000
  N   N5        1.0  0.68197  0.34353  0.33580  1.0000
  C   C21       1.0  0.65469  0.29248  0.33566  1.0000
  C   C22       1.0  0.73302  0.36730  0.33568  1.0000
  C   C23       1.0  0.65819  0.37081  0.33568  1.0000
  C   C24       1.0  0.83526  0.41400  0.33621  1.0000
  C   C25       1.0  0.80835  0.38265  0.26515  1.0000
  C   C26       1.0  0.75806  0.36031  0.26408  1.0000
  C   C27       1.0  0.59919  0.19023  0.33611  1.0000
  C   C28       1.0  0.59474  0.21716  0.26507  1.0000
  C   C29       1.0  0.62267  0.26744  0.26404  1.0000
  C   C30       1.0  0.61150  0.42635  0.33620  1.0000
  C   C31       1.0  0.64286  0.43080  0.26514  1.0000
  C   C32       1.0  0.66520  0.40285  0.26409  1.0000
  H   H16       1.0  0.82530  0.37606  0.21321  1.0000
  H   H17       1.0  0.73958  0.33798  0.21150  1.0000
  H   H18       1.0  0.61882  0.28593  0.21146  1.0000
  H   H19       1.0  0.57120  0.20020  0.21312  1.0000
  H   H20       1.0  0.64946  0.45435  0.21321  1.0000
  H   H21       1.0  0.68754  0.40671  0.21151  1.0000
  N   N6        1.0  0.59264  0.45496  0.33753  1.0000
  N   N7        1.0  0.57056  0.14277  0.33745  1.0000
  N   N8        1.0  0.88273  0.43287  0.33755  1.0000
  C   C33       1.0  0.53361  0.47761  0.34752  1.0000
  C   C34       1.0  0.53320  0.50310  0.26841  1.0000
  C   C35       1.0  0.51587  0.53608  0.27444  1.0000
  C   C36       1.0  0.55102  0.49610  0.17834  1.0000
  H   H22       1.0  0.56206  0.46939  0.17812  1.0000
  H   H23       1.0  0.58188  0.52951  0.15639  1.0000
  H   H24       1.0  0.52296  0.48462  0.12724  1.0000
  C   C37       1.0  0.51877  0.56498  0.19187  1.0000
  H   H25       1.0  0.50622  0.59019  0.20190  1.0000
  H   H26       1.0  0.49737  0.54132  0.13683  1.0000
  H   H27       1.0  0.55576  0.58604  0.16946  1.0000
  C   C38       1.0  0.54839  0.44354  0.34264  1.0000
  H   H28       1.0  0.52332  0.40929  0.34605  1.0000
  C   C39       1.0  0.54790  0.06109  0.34743  1.0000
  C   C40       1.0  0.52236  0.03518  0.26836  1.0000
  C   C41       1.0  0.48937  0.98487  0.27444  1.0000
  C   C42       1.0  0.52933  0.05999  0.17828  1.0000
  H   H29       1.0  0.55605  0.09773  0.17802  1.0000
  H   H30       1.0  0.49591  0.05745  0.15639  1.0000
  H   H31       1.0  0.54077  0.04338  0.12716  1.0000
  C   C43       1.0  0.46043  0.95886  0.19191  1.0000
  H   H32       1.0  0.43521  0.92110  0.20197  1.0000
  H   H33       1.0  0.48407  0.96109  0.13685  1.0000
  H   H34       1.0  0.43939  0.97480  0.16951  1.0000
  C   C44       1.0  0.58197  0.10993  0.34247  1.0000
  H   H35       1.0  0.61623  0.11911  0.34585  1.0000
  C   C45       1.0  0.96440  0.49191  0.34752  1.0000
  C   C46       1.0  0.99031  0.49229  0.26843  1.0000
  C   C47       1.0  0.96549  0.47446  0.17835  1.0000
  H   H36       1.0  0.92775  0.46343  0.17811  1.0000
  H   H37       1.0  0.96804  0.44359  0.15643  1.0000
  H   H38       1.0  0.98209  0.50252  0.12724  1.0000
  C   C48       1.0  0.91556  0.47712  0.34260  1.0000
  H   H39       1.0  0.90636  0.50218  0.34597  1.0000
  C   C49       1.0  0.37254  0.75510  0.41600  1.0000
  C   C50       1.0  0.39884  0.80548  0.41417  1.0000
  C   C51       1.0  0.40295  0.65295  0.41598  1.0000
  C   C52       1.0  0.42704  0.62666  0.41413  1.0000
  H   H40       1.0  0.35131  0.73819  0.47085  1.0000
  H   H41       1.0  0.39643  0.82393  0.46841  1.0000
  H   H42       1.0  0.40728  0.67418  0.47083  1.0000
  H   H43       1.0  0.44788  0.62905  0.46839  1.0000
  C   C53       1.0  0.75994  0.39808  0.40757  1.0000
  C   C54       1.0  0.81029  0.42130  0.40766  1.0000
  C   C55       1.0  0.65854  0.26555  0.40755  1.0000
  C   C56       1.0  0.63142  0.21520  0.40759  1.0000
  C   C57       1.0  0.62740  0.36694  0.40755  1.0000
  C   C58       1.0  0.60420  0.39409  0.40764  1.0000
  H   H44       1.0  0.74284  0.40359  0.46066  1.0000
  H   H45       1.0  0.82867  0.44281  0.46129  1.0000
  H   H46       1.0  0.68112  0.28265  0.46068  1.0000
  H   H47       1.0  0.63452  0.19682  0.46126  1.0000
  H   H48       1.0  0.62189  0.34433  0.46062  1.0000
  H   H49       1.0  0.58267  0.39093  0.46125  1.0000
  C   C59       1.0  0.49599  0.54095  0.35792  1.0000
  C   C60       1.0  0.49492  0.51420  0.43625  1.0000
  C   C61       1.0  0.51534  0.48384  0.43188  1.0000
  C   C62       1.0  0.51867  0.45807  0.51453  1.0000
  H   H50       1.0  0.50797  0.46679  0.57845  1.0000
  H   H51       1.0  0.55558  0.46659  0.52402  1.0000
  H   H52       1.0  0.49632  0.41962  0.50487  1.0000
  C   C63       1.0  0.47140  0.51651  0.52289  1.0000
  H   H53       1.0  0.45241  0.53629  0.51823  1.0000
  H   H54       1.0  0.49820  0.53339  0.57618  1.0000
  H   H55       1.0  0.44484  0.48050  0.54416  1.0000
  C   C64       1.0  0.48195  0.57534  0.36666  1.0000
  H   H56       1.0  0.50375  0.60518  0.39994  1.0000
  C   C65       1.0  0.48451  0.96015  0.35795  1.0000
  C   C66       1.0  0.51129  0.98584  0.43625  1.0000
  C   C67       1.0  0.54169  0.03661  0.43181  1.0000
  C   C68       1.0  0.56752  0.06572  0.51440  1.0000
  H   H57       1.0  0.55883  0.04632  0.57834  1.0000
  H   H58       1.0  0.55902  0.09413  0.52392  1.0000
  H   H59       1.0  0.60597  0.08182  0.50465  1.0000
  C   C69       1.0  0.50896  0.96002  0.52291  1.0000
  H   H60       1.0  0.48912  0.92124  0.51832  1.0000
  H   H61       1.0  0.49214  0.97002  0.57621  1.0000
  H   H62       1.0  0.54496  0.96942  0.54414  1.0000
  C   C70       1.0  0.45013  0.91172  0.36668  1.0000
  H   H63       1.0  0.42028  0.90366  0.39995  1.0000
  C   C71       1.0  0.98890  0.51017  0.43189  1.0000
  C   C72       1.0  0.95979  0.50687  0.51450  1.0000
  H   H64       1.0  0.97920  0.51759  0.57843  1.0000
  H   H65       1.0  0.93139  0.46996  0.52402  1.0000
  H   H66       1.0  0.94368  0.52922  0.50478  1.0000
