data_image0
_chemical_formula_structural       C31H17NHNHNHC30H17NHNHNHNC2HCH2NC2HCH2NC2HCH10CNC2NCH2CNC2NCH2CNCNCH2
_chemical_formula_sum              "C81 H63 N15"
_cell_length_a       44.7664
_cell_length_b       44.7664
_cell_length_c       14.9932
_cell_angle_alpha    90
_cell_angle_beta     90
_cell_angle_gamma    120

_space_group_name_H-M_alt    "P 1"
_space_group_IT_number       1

loop_
  _space_group_symop_operation_xyz
  'x, y, z'

loop_
  _atom_site_type_symbol
  _atom_site_label
  _atom_site_symmetry_multiplicity
  _atom_site_fract_x
  _atom_site_fract_y
  _atom_site_fract_z
  _atom_site_occupancy
  C   C1        1.0  0.00933  0.50857  0.42552  1.0000
  C   C2        1.0  0.13107  0.56698  0.31718  1.0000
  C   C3        1.0  0.15045  0.60092  0.35083  1.0000
  C   C4        1.0  0.18616  0.61587  0.36533  1.0000
  C   C5        1.0  0.20311  0.59710  0.34646  1.0000
  C   C6        1.0  0.18361  0.56303  0.31373  1.0000
  C   C7        1.0  0.14797  0.54826  0.29855  1.0000
  C   C8        1.0  0.23829  0.61151  0.35898  1.0000
  C   C9        1.0  0.26166  0.63807  0.30977  1.0000
  C   C10       1.0  0.29715  0.65201  0.31709  1.0000
  C   C11       1.0  0.31235  0.63087  0.31636  1.0000
  C   C12       1.0  0.34856  0.64526  0.31695  1.0000
  C   C13       1.0  0.36970  0.68160  0.31628  1.0000
  C   C14       1.0  0.35531  0.70342  0.31695  1.0000
  C   C15       1.0  0.31897  0.68822  0.31639  1.0000
  C   C16       1.0  0.37686  0.73891  0.30962  1.0000
  C   C17       1.0  0.37367  0.76228  0.35886  1.0000
  C   C18       1.0  0.39444  0.79746  0.34637  1.0000
  C   C19       1.0  0.37989  0.81697  0.31362  1.0000
  C   C20       1.0  0.43017  0.81440  0.36526  1.0000
  C   C21       1.0  0.45094  0.85012  0.35082  1.0000
  C   C22       1.0  0.43638  0.86950  0.31716  1.0000
  C   C23       1.0  0.40077  0.85261  0.29850  1.0000
  C   C24       1.0  0.36251  0.62371  0.30963  1.0000
  C   C25       1.0  0.38908  0.62692  0.35882  1.0000
  C   C26       1.0  0.40347  0.60613  0.34634  1.0000
  C   C27       1.0  0.38469  0.57041  0.36525  1.0000
  C   C28       1.0  0.43753  0.62068  0.31356  1.0000
  C   C29       1.0  0.45230  0.59980  0.29844  1.0000
  C   C30       1.0  0.43357  0.56419  0.31711  1.0000
  C   C31       1.0  0.39964  0.54964  0.35079  1.0000
  H   H1        1.0  0.13866  0.61500  0.36385  1.0000
  H   H2        1.0  0.19969  0.64058  0.38922  1.0000
  H   H3        1.0  0.30823  0.70375  0.31314  1.0000
  H   H4        1.0  0.29682  0.60459  0.31314  1.0000
  H   H5        1.0  0.39598  0.69235  0.31300  1.0000
  H   H6        1.0  0.35999  0.55924  0.38915  1.0000
  H   H7        1.0  0.35412  0.80533  0.29910  1.0000
  H   H8        1.0  0.47680  0.86189  0.36381  1.0000
  H   H9        1.0  0.44135  0.80087  0.38914  1.0000
  H   H10       1.0  0.38556  0.52378  0.36382  1.0000
  H   H11       1.0  0.45168  0.64646  0.29904  1.0000
  H   H12       1.0  0.35470  0.75445  0.40329  1.0000
  H   H13       1.0  0.39576  0.74726  0.26472  1.0000
  H   H14       1.0  0.24611  0.60033  0.40331  1.0000
  H   H15       1.0  0.25331  0.64865  0.26493  1.0000
  H   H16       1.0  0.40023  0.64589  0.40322  1.0000
  H   H17       1.0  0.35193  0.60479  0.26476  1.0000
  N   N1        1.0  0.45633  0.90523  0.29915  1.0000
  H   H18       1.0  0.47626  0.90948  0.25732  1.0000
  N   N2        1.0  0.09535  0.55120  0.29915  1.0000
  H   H19       1.0  0.09110  0.56688  0.25731  1.0000
  N   N3        1.0  0.44935  0.54424  0.29912  1.0000
  H   H20       1.0  0.43367  0.52431  0.25730  1.0000
  C   C32       1.0  0.86949  0.43368  0.34969  1.0000
  C   C33       1.0  0.85026  0.39985  0.31521  1.0000
  C   C34       1.0  0.81460  0.38492  0.29988  1.0000
  C   C35       1.0  0.79756  0.40362  0.31867  1.0000
  C   C36       1.0  0.81693  0.43761  0.35200  1.0000
  C   C37       1.0  0.85252  0.45234  0.36805  1.0000
  C   C38       1.0  0.76238  0.38913  0.30597  1.0000
  C   C39       1.0  0.73904  0.36258  0.35524  1.0000
  C   C40       1.0  0.70354  0.34854  0.34779  1.0000
  C   C41       1.0  0.68825  0.36960  0.34851  1.0000
  C   C42       1.0  0.65202  0.35512  0.34783  1.0000
  C   C43       1.0  0.63097  0.31877  0.34849  1.0000
  C   C44       1.0  0.64545  0.29703  0.34782  1.0000
  C   C45       1.0  0.68180  0.31232  0.34846  1.0000
  C   C46       1.0  0.62400  0.26153  0.35528  1.0000
  C   C47       1.0  0.62720  0.23819  0.30598  1.0000
  C   C48       1.0  0.60651  0.20301  0.31868  1.0000
  C   C49       1.0  0.62113  0.18364  0.35201  1.0000
  C   C50       1.0  0.57078  0.18597  0.29991  1.0000
  C   C51       1.0  0.55004  0.15031  0.31524  1.0000
  C   C52       1.0  0.56464  0.13108  0.34971  1.0000
  C   C53       1.0  0.60029  0.14806  0.36805  1.0000
  C   C54       1.0  0.63799  0.37657  0.35530  1.0000
  C   C55       1.0  0.61144  0.37337  0.30601  1.0000
  C   C56       1.0  0.59695  0.39406  0.31873  1.0000
  C   C57       1.0  0.61565  0.42979  0.29996  1.0000
  C   C58       1.0  0.56297  0.37945  0.35212  1.0000
  C   C59       1.0  0.54823  0.40029  0.36813  1.0000
  C   C60       1.0  0.56689  0.43593  0.34979  1.0000
  C   C61       1.0  0.60072  0.45053  0.31532  1.0000
  H   H21       1.0  0.86208  0.38578  0.30262  1.0000
  H   H22       1.0  0.80115  0.36025  0.27572  1.0000
  H   H23       1.0  0.69262  0.29685  0.35177  1.0000
  H   H24       1.0  0.70372  0.39588  0.35179  1.0000
  H   H25       1.0  0.60469  0.30795  0.35181  1.0000
  H   H26       1.0  0.64031  0.44102  0.27575  1.0000
  H   H27       1.0  0.64690  0.19537  0.36665  1.0000
  H   H28       1.0  0.52415  0.13848  0.30265  1.0000
  H   H29       1.0  0.55955  0.19941  0.27574  1.0000
  H   H30       1.0  0.61478  0.47642  0.30268  1.0000
  H   H31       1.0  0.54891  0.35367  0.36668  1.0000
  H   H32       1.0  0.64612  0.24603  0.26139  1.0000
  H   H33       1.0  0.60515  0.25316  0.40035  1.0000
  H   H34       1.0  0.75454  0.40022  0.26141  1.0000
  H   H35       1.0  0.74741  0.35209  0.40030  1.0000
  H   H36       1.0  0.60036  0.35446  0.26142  1.0000
  H   H37       1.0  0.64847  0.39543  0.40038  1.0000
  N   N4        1.0  0.54468  0.09553  0.36962  1.0000
  H   H38       1.0  0.52500  0.09171  0.41187  1.0000
  N   N5        1.0  0.90504  0.44926  0.36960  1.0000
  H   H39       1.0  0.90886  0.43340  0.41185  1.0000
  N   N6        1.0  0.55130  0.45589  0.36967  1.0000
  H   H40       1.0  0.56716  0.47558  0.41192  1.0000
  N   N7        1.0  0.48924  0.51347  0.27309  1.0000
  C   C62       1.0  0.50878  0.49951  0.24843  1.0000
  C   C63       1.0  0.52057  0.48549  0.31456  1.0000
  H   H41       1.0  0.51460  0.49930  0.18261  1.0000
  C   C64       1.0  0.54187  0.46977  0.29119  1.0000
  H   H42       1.0  0.52703  0.44873  0.24430  1.0000
  H   H43       1.0  0.56526  0.48918  0.25746  1.0000
  N   N8        1.0  0.48710  0.97588  0.27309  1.0000
  C   C65       1.0  0.50106  0.00938  0.24842  1.0000
  C   C66       1.0  0.51508  0.03520  0.31454  1.0000
  H   H44       1.0  0.50126  0.01540  0.18260  1.0000
  C   C67       1.0  0.53080  0.07222  0.29116  1.0000
  H   H45       1.0  0.55184  0.07842  0.24426  1.0000
  H   H46       1.0  0.51139  0.07620  0.25743  1.0000
  N   N9        1.0  0.02469  0.51132  0.27308  1.0000
  C   C68       1.0  0.99119  0.49178  0.24840  1.0000
  C   C69       1.0  0.96537  0.47999  0.31452  1.0000
  H   H47       1.0  0.98517  0.48596  0.18258  1.0000
  C   C70       1.0  0.92835  0.45869  0.29114  1.0000
  H   H48       1.0  0.92215  0.47353  0.24424  1.0000
  H   H49       1.0  0.92437  0.43530  0.25741  1.0000
  H   H50       1.0  0.13434  0.52372  0.27382  1.0000
  H   H51       1.0  0.19525  0.54890  0.29918  1.0000
  H   H52       1.0  0.38985  0.86624  0.27378  1.0000
  H   H53       1.0  0.47685  0.61071  0.27372  1.0000
  H   H54       1.0  0.86602  0.47678  0.39354  1.0000
  H   H55       1.0  0.80521  0.45165  0.36665  1.0000
  H   H56       1.0  0.61122  0.13456  0.39354  1.0000
  H   H57       1.0  0.52379  0.38935  0.39359  1.0000
  C   C71       1.0  0.48004  0.51489  0.35892  1.0000
  N   N10       1.0  0.51150  0.48690  0.40040  1.0000
  C   C72       1.0  0.49198  0.50087  0.42553  1.0000
  C   C73       1.0  0.48562  0.50071  0.51022  1.0000
  N   N11       1.0  0.48009  0.50066  0.58502  1.0000
  C   C74       1.0  0.45854  0.53085  0.37907  1.0000
  H   H58       1.0  0.47315  0.55223  0.42524  1.0000
  H   H59       1.0  0.43499  0.51168  0.41265  1.0000
  C   C75       1.0  0.48568  0.96527  0.35893  1.0000
  N   N12       1.0  0.51367  0.02472  0.40038  1.0000
  C   C76       1.0  0.49971  0.99124  0.42553  1.0000
  C   C77       1.0  0.49987  0.98504  0.51021  1.0000
  N   N13       1.0  0.49991  0.97956  0.58501  1.0000
  C   C78       1.0  0.46972  0.92781  0.37908  1.0000
  H   H60       1.0  0.44835  0.92104  0.42527  1.0000
  H   H61       1.0  0.48890  0.92343  0.41266  1.0000
  C   C79       1.0  0.03531  0.52052  0.35892  1.0000
  N   N14       1.0  0.97584  0.48906  0.40037  1.0000
  C   C80       1.0  0.01553  0.51494  0.51020  1.0000
  N   N15       1.0  0.02101  0.52047  0.58500  1.0000
  C   C81       1.0  0.07276  0.54201  0.37908  1.0000
  H   H62       1.0  0.07952  0.52741  0.42527  1.0000
  H   H63       1.0  0.07714  0.56557  0.41265  1.0000
