data_image0
_chemical_formula_structural       C2HCHCHCHC3H2C2H2C4H2C2H2C4H2C6H4C6H4C6H4C6H4C6H4C6H4CNCNCNC18H12CNCNCNC18H12CNCNCNC18H12CNCNCNC18H12CNCNCNC18H12CNCNCNC18H12C4H2C6H4C6H4C2H2C4H2C2H2C4H2C2H2C4H2C2H2C4H2C2H2C4H2C2H2C4H2
_chemical_formula_sum              "C234 H144 N18"
_cell_length_a       76.5051
_cell_length_b       76.505
_cell_length_c       14.973
_cell_angle_alpha    90
_cell_angle_beta     90
_cell_angle_gamma    120

_space_group_name_H-M_alt    "P 1"
_space_group_IT_number       1

loop_
  _space_group_symop_operation_xyz
  'x, y, z'

loop_
  _atom_site_type_symbol
  _atom_site_label
  _atom_site_symmetry_multiplicity
  _atom_site_fract_x
  _atom_site_fract_y
  _atom_site_fract_z
  _atom_site_occupancy
  C   C1        1.0  0.01212  0.50628  0.33509  1.0000
  C   C2        1.0  0.02311  0.51851  0.26171  1.0000
  H   H1        1.0  0.01572  0.51996  0.20778  1.0000
  C   C3        1.0  0.02312  0.50505  0.40844  1.0000
  H   H2        1.0  0.01573  0.49621  0.46239  1.0000
  C   C4        1.0  0.04436  0.52929  0.26210  1.0000
  H   H3        1.0  0.05176  0.53792  0.20761  1.0000
  C   C5        1.0  0.04437  0.51551  0.40804  1.0000
  H   H4        1.0  0.05176  0.51429  0.46252  1.0000
  C   C6        1.0  0.05536  0.52790  0.33506  1.0000
  C   C7        1.0  0.97958  0.48327  0.26179  1.0000
  C   C8        1.0  0.95834  0.47248  0.26220  1.0000
  H   H5        1.0  0.98698  0.48181  0.20786  1.0000
  H   H6        1.0  0.95093  0.46385  0.20775  1.0000
  C   C9        1.0  0.51898  0.49677  0.26181  1.0000
  C   C10       1.0  0.52976  0.48630  0.26218  1.0000
  H   H7        1.0  0.52044  0.50562  0.20787  1.0000
  H   H8        1.0  0.53839  0.48753  0.20772  1.0000
  C   C11       1.0  0.49598  0.50630  0.33515  1.0000
  C   C12       1.0  0.47435  0.52791  0.33514  1.0000
  C   C13       1.0  0.47296  0.51553  0.26217  1.0000
  C   C14       1.0  0.48374  0.50506  0.26180  1.0000
  H   H9        1.0  0.46433  0.51428  0.20771  1.0000
  H   H10       1.0  0.48229  0.49621  0.20786  1.0000
  C   C15       1.0  0.50550  0.02267  0.26186  1.0000
  C   C16       1.0  0.51596  0.04391  0.26225  1.0000
  H   H11       1.0  0.49666  0.01527  0.20791  1.0000
  H   H12       1.0  0.51473  0.05131  0.20777  1.0000
  C   C17       1.0  0.49598  0.99013  0.33519  1.0000
  C   C18       1.0  0.47436  0.94690  0.33516  1.0000
  C   C19       1.0  0.48675  0.95789  0.26221  1.0000
  C   C20       1.0  0.49721  0.97914  0.26183  1.0000
  H   H13       1.0  0.48799  0.95050  0.20773  1.0000
  H   H14       1.0  0.50607  0.98654  0.20792  1.0000
  C   C21       1.0  0.22237  0.53460  0.31364  1.0000
  C   C22       1.0  0.23603  0.53877  0.24230  1.0000
  C   C23       1.0  0.25186  0.53454  0.24950  1.0000
  C   C24       1.0  0.25465  0.52602  0.32838  1.0000
  C   C25       1.0  0.28230  0.52068  0.27305  1.0000
  C   C26       1.0  0.30238  0.52483  0.28031  1.0000
  H   H15       1.0  0.27477  0.51478  0.21436  1.0000
  H   H16       1.0  0.30889  0.52220  0.22611  1.0000
  H   H17       1.0  0.23537  0.54614  0.18648  1.0000
  H   H18       1.0  0.26234  0.53944  0.19930  1.0000
  C   C27       1.0  0.46765  0.68822  0.31322  1.0000
  C   C28       1.0  0.46352  0.69774  0.24193  1.0000
  C   C29       1.0  0.46774  0.71779  0.24920  1.0000
  C   C30       1.0  0.47621  0.72908  0.32820  1.0000
  C   C31       1.0  0.48154  0.76207  0.27300  1.0000
  C   C32       1.0  0.47744  0.77803  0.28047  1.0000
  H   H19       1.0  0.48745  0.76046  0.21432  1.0000
  H   H20       1.0  0.48004  0.78718  0.22630  1.0000
  H   H21       1.0  0.45616  0.68972  0.18603  1.0000
  H   H22       1.0  0.46286  0.72340  0.19903  1.0000
  C   C33       1.0  0.31405  0.77987  0.31345  1.0000
  C   C34       1.0  0.30455  0.76621  0.24214  1.0000
  C   C35       1.0  0.28449  0.75037  0.24936  1.0000
  C   C36       1.0  0.27318  0.74759  0.32824  1.0000
  C   C37       1.0  0.24020  0.71994  0.27293  1.0000
  C   C38       1.0  0.22426  0.69986  0.28026  1.0000
  H   H23       1.0  0.24183  0.72745  0.21420  1.0000
  H   H24       1.0  0.21512  0.69334  0.22606  1.0000
  H   H25       1.0  0.31258  0.76687  0.18630  1.0000
  H   H26       1.0  0.27890  0.73989  0.19917  1.0000
  C   C39       1.0  0.78033  0.46719  0.31320  1.0000
  C   C40       1.0  0.76666  0.46303  0.24191  1.0000
  C   C41       1.0  0.75083  0.46726  0.24914  1.0000
  C   C42       1.0  0.74803  0.47574  0.32810  1.0000
  C   C43       1.0  0.72036  0.48107  0.27288  1.0000
  C   C44       1.0  0.70030  0.47697  0.28036  1.0000
  H   H27       1.0  0.72788  0.48697  0.21418  1.0000
  H   H28       1.0  0.69376  0.47957  0.22619  1.0000
  H   H29       1.0  0.76733  0.45567  0.18604  1.0000
  H   H30       1.0  0.74035  0.46237  0.19898  1.0000
  C   C45       1.0  0.53506  0.31359  0.31368  1.0000
  C   C46       1.0  0.53923  0.30410  0.24234  1.0000
  C   C47       1.0  0.53501  0.28404  0.24952  1.0000
  C   C48       1.0  0.52647  0.27272  0.32838  1.0000
  C   C49       1.0  0.52114  0.23975  0.27303  1.0000
  C   C50       1.0  0.52529  0.22381  0.28028  1.0000
  H   H31       1.0  0.51524  0.24138  0.21434  1.0000
  H   H32       1.0  0.52266  0.21466  0.22608  1.0000
  H   H33       1.0  0.54661  0.31214  0.18654  1.0000
  H   H34       1.0  0.53990  0.27846  0.19932  1.0000
  C   C51       1.0  0.68866  0.22192  0.31325  1.0000
  C   C52       1.0  0.69819  0.23558  0.24196  1.0000
  C   C53       1.0  0.71825  0.25141  0.24926  1.0000
  C   C54       1.0  0.72952  0.25423  0.32829  1.0000
  C   C55       1.0  0.76251  0.28189  0.27313  1.0000
  C   C56       1.0  0.77848  0.30195  0.28061  1.0000
  H   H35       1.0  0.76092  0.27437  0.21446  1.0000
  H   H36       1.0  0.78763  0.30850  0.22646  1.0000
  H   H37       1.0  0.69018  0.23491  0.18603  1.0000
  H   H38       1.0  0.72385  0.26189  0.19908  1.0000
  C   C57       1.0  0.17296  0.60231  0.34079  1.0000
  N   N1        1.0  0.15243  0.59170  0.33988  1.0000
  C   C58       1.0  0.14179  0.57112  0.33511  1.0000
  N   N2        1.0  0.15244  0.56119  0.33040  1.0000
  C   C59       1.0  0.17296  0.57110  0.32960  1.0000
  N   N3        1.0  0.18252  0.59149  0.33522  1.0000
  C   C60       1.0  0.12025  0.56034  0.33507  1.0000
  C   C61       1.0  0.10915  0.57020  0.31637  1.0000
  C   C62       1.0  0.08790  0.55954  0.31554  1.0000
  C   C63       1.0  0.07690  0.53867  0.33505  1.0000
  C   C64       1.0  0.08790  0.52880  0.35457  1.0000
  C   C65       1.0  0.10915  0.53939  0.35374  1.0000
  C   C66       1.0  0.18467  0.62375  0.34745  1.0000
  C   C67       1.0  0.17645  0.63641  0.33038  1.0000
  C   C68       1.0  0.18864  0.65763  0.33360  1.0000
  C   C69       1.0  0.20932  0.66687  0.35657  1.0000
  C   C70       1.0  0.21746  0.65424  0.37457  1.0000
  C   C71       1.0  0.20542  0.63318  0.36995  1.0000
  C   C72       1.0  0.18468  0.56137  0.32300  1.0000
  C   C73       1.0  0.20544  0.57271  0.30080  1.0000
  C   C74       1.0  0.21749  0.56369  0.29616  1.0000
  C   C75       1.0  0.20932  0.54290  0.31388  1.0000
  C   C76       1.0  0.18863  0.53145  0.33657  1.0000
  C   C77       1.0  0.17644  0.54048  0.33979  1.0000
  H   H39       1.0  0.18226  0.66631  0.31955  1.0000
  H   H40       1.0  0.16160  0.63031  0.31290  1.0000
  H   H41       1.0  0.23248  0.66027  0.38894  1.0000
  H   H42       1.0  0.21220  0.62483  0.38324  1.0000
  H   H43       1.0  0.21224  0.58784  0.28773  1.0000
  H   H44       1.0  0.23251  0.57268  0.28204  1.0000
  H   H45       1.0  0.16158  0.53172  0.35704  1.0000
  H   H46       1.0  0.18224  0.51638  0.35041  1.0000
  H   H47       1.0  0.11641  0.53157  0.36826  1.0000
  H   H48       1.0  0.08050  0.51365  0.36806  1.0000
  H   H49       1.0  0.08050  0.56729  0.30204  1.0000
  H   H50       1.0  0.11641  0.58529  0.30190  1.0000
  C   C78       1.0  0.39993  0.57110  0.34047  1.0000
  N   N4        1.0  0.41055  0.56119  0.33970  1.0000
  C   C79       1.0  0.43113  0.57112  0.33495  1.0000
  N   N5        1.0  0.44106  0.59170  0.33012  1.0000
  C   C80       1.0  0.43116  0.60232  0.32916  1.0000
  N   N6        1.0  0.41077  0.59149  0.33478  1.0000
  C   C81       1.0  0.44190  0.56035  0.33504  1.0000
  C   C82       1.0  0.43205  0.53939  0.31642  1.0000
  C   C83       1.0  0.44271  0.52880  0.31562  1.0000
  C   C84       1.0  0.46358  0.53868  0.33513  1.0000
  C   C85       1.0  0.47345  0.55955  0.35463  1.0000
  C   C86       1.0  0.46286  0.57020  0.35373  1.0000
  C   C87       1.0  0.37849  0.56137  0.34714  1.0000
  C   C88       1.0  0.36584  0.54049  0.33025  1.0000
  C   C89       1.0  0.34462  0.53146  0.33361  1.0000
  C   C90       1.0  0.33538  0.54290  0.35644  1.0000
  C   C91       1.0  0.34801  0.56369  0.37416  1.0000
  C   C92       1.0  0.36907  0.57271  0.36947  1.0000
  C   C93       1.0  0.44089  0.62375  0.32248  1.0000
  C   C94       1.0  0.42957  0.63318  0.29981  1.0000
  C   C95       1.0  0.43859  0.65424  0.29523  1.0000
  C   C96       1.0  0.45936  0.66687  0.31343  1.0000
  C   C97       1.0  0.47078  0.65763  0.33649  1.0000
  C   C98       1.0  0.46176  0.63641  0.33970  1.0000
  H   H51       1.0  0.33594  0.51639  0.31976  1.0000
  H   H52       1.0  0.37194  0.53173  0.31300  1.0000
  H   H53       1.0  0.34199  0.57269  0.38841  1.0000
  H   H54       1.0  0.37742  0.58784  0.38258  1.0000
  H   H55       1.0  0.41445  0.62483  0.28640  1.0000
  H   H56       1.0  0.42960  0.66027  0.28075  1.0000
  H   H57       1.0  0.47050  0.63031  0.35727  1.0000
  H   H58       1.0  0.48584  0.66631  0.35065  1.0000
  H   H59       1.0  0.47068  0.58530  0.36818  1.0000
  H   H60       1.0  0.48859  0.56730  0.36809  1.0000
  H   H61       1.0  0.43496  0.51365  0.30214  1.0000
  H   H62       1.0  0.41696  0.53157  0.30189  1.0000
  C   C99       1.0  0.43116  0.82930  0.34100  1.0000
  N   N7        1.0  0.44107  0.84982  0.34007  1.0000
  C   C100      1.0  0.43114  0.86047  0.33521  1.0000
  N   N8        1.0  0.41056  0.84982  0.33040  1.0000
  C   C101      1.0  0.39994  0.82929  0.32959  1.0000
  N   N9        1.0  0.41077  0.81973  0.33532  1.0000
  C   C102      1.0  0.44191  0.88201  0.33516  1.0000
  C   C103      1.0  0.46286  0.89311  0.31650  1.0000
  C   C104      1.0  0.47346  0.91435  0.31566  1.0000
  C   C105      1.0  0.46359  0.92536  0.33514  1.0000
  C   C106      1.0  0.44271  0.91436  0.35462  1.0000
  C   C107      1.0  0.43205  0.89311  0.35378  1.0000
  C   C108      1.0  0.44090  0.81759  0.34773  1.0000
  C   C109      1.0  0.46176  0.82581  0.33056  1.0000
  C   C110      1.0  0.47079  0.81362  0.33379  1.0000
  C   C111      1.0  0.45937  0.79294  0.35682  1.0000
  C   C112      1.0  0.43860  0.78480  0.37497  1.0000
  C   C113      1.0  0.42958  0.79685  0.37037  1.0000
  C   C114      1.0  0.37850  0.81758  0.32289  1.0000
  C   C115      1.0  0.36908  0.79682  0.30049  1.0000
  C   C116      1.0  0.34802  0.78478  0.29581  1.0000
  C   C117      1.0  0.33539  0.79293  0.31367  1.0000
  C   C118      1.0  0.34463  0.81361  0.33651  1.0000
  C   C119      1.0  0.36585  0.82580  0.33979  1.0000
  H   H63       1.0  0.48585  0.81999  0.31964  1.0000
  H   H64       1.0  0.47051  0.84065  0.31298  1.0000
  H   H65       1.0  0.42961  0.76979  0.38940  1.0000
  H   H66       1.0  0.41446  0.79007  0.38373  1.0000
  H   H67       1.0  0.37743  0.79004  0.28733  1.0000
  H   H68       1.0  0.34200  0.76976  0.28156  1.0000
  H   H69       1.0  0.37194  0.84066  0.35719  1.0000
  H   H70       1.0  0.33595  0.81999  0.35047  1.0000
  H   H71       1.0  0.41696  0.88584  0.36828  1.0000
  H   H72       1.0  0.43496  0.92175  0.36809  1.0000
  H   H73       1.0  0.48860  0.92175  0.30220  1.0000
  H   H74       1.0  0.47069  0.88584  0.30206  1.0000
  C   C120      1.0  0.82974  0.39949  0.34101  1.0000
  N   N10       1.0  0.85027  0.41010  0.34012  1.0000
  C   C121      1.0  0.86092  0.43068  0.33521  1.0000
  N   N11       1.0  0.85027  0.44061  0.33032  1.0000
  C   C122      1.0  0.82974  0.43070  0.32945  1.0000
  N   N12       1.0  0.82018  0.41031  0.33524  1.0000
  C   C123      1.0  0.88246  0.44145  0.33520  1.0000
  C   C124      1.0  0.89356  0.43159  0.31664  1.0000
  C   C125      1.0  0.91480  0.44225  0.31577  1.0000
  C   C126      1.0  0.92580  0.46313  0.33516  1.0000
  C   C127      1.0  0.91480  0.47301  0.35458  1.0000
  C   C128      1.0  0.89356  0.46241  0.35374  1.0000
  C   C129      1.0  0.81804  0.37805  0.34780  1.0000
  C   C130      1.0  0.82625  0.36539  0.33056  1.0000
  C   C131      1.0  0.81406  0.34418  0.33390  1.0000
  C   C132      1.0  0.79339  0.33494  0.35701  1.0000
  C   C133      1.0  0.78525  0.34757  0.37514  1.0000
  C   C134      1.0  0.79730  0.36863  0.37050  1.0000
  C   C135      1.0  0.81803  0.44043  0.32269  1.0000
  C   C136      1.0  0.79729  0.42911  0.29999  1.0000
  C   C137      1.0  0.78525  0.43812  0.29533  1.0000
  C   C138      1.0  0.79338  0.45889  0.31346  1.0000
  C   C139      1.0  0.81405  0.47033  0.33653  1.0000
  C   C140      1.0  0.82624  0.46130  0.33985  1.0000
  H   H75       1.0  0.82043  0.33549  0.31972  1.0000
  H   H76       1.0  0.84109  0.37149  0.31302  1.0000
  H   H77       1.0  0.77024  0.34155  0.38959  1.0000
  H   H78       1.0  0.79053  0.37698  0.38387  1.0000
  H   H79       1.0  0.79052  0.41399  0.28664  1.0000
  H   H80       1.0  0.77024  0.42913  0.28085  1.0000
  H   H81       1.0  0.84109  0.47005  0.35738  1.0000
  H   H82       1.0  0.82042  0.48538  0.35062  1.0000
  H   H83       1.0  0.88629  0.47024  0.36814  1.0000
  H   H84       1.0  0.92220  0.48816  0.36795  1.0000
  H   H85       1.0  0.92220  0.43450  0.30235  1.0000
  H   H86       1.0  0.88629  0.41650  0.30222  1.0000
  C   C141      1.0  0.60276  0.43071  0.34109  1.0000
  N   N13       1.0  0.59215  0.44062  0.34012  1.0000
  C   C142      1.0  0.57157  0.43068  0.33530  1.0000
  N   N14       1.0  0.56164  0.41010  0.33056  1.0000
  C   C143      1.0  0.57155  0.39949  0.32980  1.0000
  N   N15       1.0  0.59194  0.41032  0.33548  1.0000
  C   C144      1.0  0.56080  0.44145  0.33521  1.0000
  C   C145      1.0  0.57065  0.46241  0.31652  1.0000
  C   C146      1.0  0.56000  0.47300  0.31566  1.0000
  C   C147      1.0  0.53913  0.46313  0.33514  1.0000
  C   C148      1.0  0.52925  0.44226  0.35465  1.0000
  C   C149      1.0  0.53984  0.43160  0.35383  1.0000
  C   C150      1.0  0.62421  0.44045  0.34777  1.0000
  C   C151      1.0  0.63686  0.46131  0.33057  1.0000
  C   C152      1.0  0.65807  0.47034  0.33375  1.0000
  C   C153      1.0  0.66732  0.45891  0.35676  1.0000
  C   C154      1.0  0.65469  0.43814  0.37494  1.0000
  C   C155      1.0  0.63363  0.42912  0.37038  1.0000
  C   C156      1.0  0.56182  0.37805  0.32316  1.0000
  C   C157      1.0  0.57317  0.36862  0.30095  1.0000
  C   C158      1.0  0.56415  0.34756  0.29627  1.0000
  C   C159      1.0  0.54336  0.33493  0.31395  1.0000
  C   C160      1.0  0.53191  0.34418  0.33664  1.0000
  C   C161      1.0  0.54094  0.36539  0.33993  1.0000
  H   H87       1.0  0.66675  0.48539  0.31958  1.0000
  H   H88       1.0  0.63076  0.47006  0.31300  1.0000
  H   H89       1.0  0.66072  0.42916  0.38936  1.0000
  H   H90       1.0  0.62529  0.41401  0.38376  1.0000
  H   H91       1.0  0.58830  0.37697  0.28790  1.0000
  H   H92       1.0  0.57315  0.34153  0.28214  1.0000
  H   H93       1.0  0.53217  0.37149  0.35714  1.0000
  H   H94       1.0  0.51684  0.33549  0.35045  1.0000
  H   H95       1.0  0.53202  0.41651  0.36834  1.0000
  H   H96       1.0  0.51410  0.43451  0.36811  1.0000
  H   H97       1.0  0.56775  0.48815  0.30218  1.0000
  H   H98       1.0  0.58574  0.47023  0.30208  1.0000
  C   C162      1.0  0.57155  0.17252  0.34045  1.0000
  N   N16       1.0  0.56164  0.15199  0.33970  1.0000
  C   C163      1.0  0.57157  0.14134  0.33496  1.0000
  N   N17       1.0  0.59215  0.15198  0.33012  1.0000
  C   C164      1.0  0.60276  0.17251  0.32913  1.0000
  N   N18       1.0  0.59194  0.18207  0.33474  1.0000
  C   C165      1.0  0.56079  0.11980  0.33508  1.0000
  C   C166      1.0  0.53984  0.10869  0.31647  1.0000
  C   C167      1.0  0.52924  0.08745  0.31568  1.0000
  C   C168      1.0  0.53912  0.07645  0.33520  1.0000
  C   C169      1.0  0.55999  0.08745  0.35469  1.0000
  C   C170      1.0  0.57065  0.10870  0.35378  1.0000
  C   C171      1.0  0.56182  0.18423  0.34711  1.0000
  C   C172      1.0  0.54094  0.17601  0.33024  1.0000
  C   C173      1.0  0.53191  0.18819  0.33361  1.0000
  C   C174      1.0  0.54336  0.20888  0.35640  1.0000
  C   C175      1.0  0.56415  0.21704  0.37410  1.0000
  C   C176      1.0  0.57317  0.20500  0.36941  1.0000
  C   C177      1.0  0.62420  0.18421  0.32244  1.0000
  C   C178      1.0  0.63363  0.20495  0.29969  1.0000
  C   C179      1.0  0.65469  0.21699  0.29513  1.0000
  C   C180      1.0  0.66732  0.20886  0.31343  1.0000
  C   C181      1.0  0.65807  0.18820  0.33655  1.0000
  C   C182      1.0  0.63686  0.17601  0.33977  1.0000
  H   H99       1.0  0.51684  0.18181  0.31978  1.0000
  H   H100      1.0  0.53218  0.16114  0.31302  1.0000
  H   H101      1.0  0.57315  0.23206  0.38834  1.0000
  H   H102      1.0  0.58830  0.21178  0.38250  1.0000
  H   H103      1.0  0.62528  0.21172  0.28622  1.0000
  H   H104      1.0  0.66071  0.23200  0.28060  1.0000
  H   H105      1.0  0.63075  0.16116  0.35735  1.0000
  H   H106      1.0  0.66675  0.18183  0.35076  1.0000
  H   H107      1.0  0.58574  0.11597  0.36822  1.0000
  H   H108      1.0  0.56775  0.08006  0.36815  1.0000
  H   H109      1.0  0.51410  0.08005  0.30220  1.0000
  H   H110      1.0  0.53201  0.11596  0.30194  1.0000
  C   C183      1.0  0.94734  0.47390  0.33514  1.0000
  C   C184      1.0  0.95834  0.48630  0.40807  1.0000
  C   C185      1.0  0.97959  0.49676  0.40845  1.0000
  C   C186      1.0  0.99058  0.49551  0.33510  1.0000
  H   H111      1.0  0.95095  0.48755  0.46251  1.0000
  H   H112      1.0  0.98699  0.50563  0.46233  1.0000
  C   C187      1.0  0.52836  0.47391  0.33514  1.0000
  C   C188      1.0  0.51597  0.47251  0.40811  1.0000
  C   C189      1.0  0.50551  0.48330  0.40850  1.0000
  C   C190      1.0  0.50675  0.49553  0.33516  1.0000
  C   C191      1.0  0.49720  0.51852  0.40851  1.0000
  C   C192      1.0  0.48674  0.52931  0.40811  1.0000
  H   H113      1.0  0.50606  0.51999  0.46243  1.0000
  H   H114      1.0  0.48798  0.53794  0.46257  1.0000
  H   H115      1.0  0.51473  0.46388  0.46257  1.0000
  H   H116      1.0  0.49666  0.48184  0.46243  1.0000
  C   C193      1.0  0.52835  0.05491  0.33521  1.0000
  C   C194      1.0  0.52975  0.04392  0.40817  1.0000
  C   C195      1.0  0.51897  0.02267  0.40856  1.0000
  C   C196      1.0  0.50674  0.01167  0.33520  1.0000
  C   C197      1.0  0.48374  0.97913  0.40853  1.0000
  C   C198      1.0  0.47296  0.95789  0.40812  1.0000
  H   H117      1.0  0.48229  0.98653  0.46247  1.0000
  H   H118      1.0  0.46433  0.95049  0.46259  1.0000
  H   H119      1.0  0.53839  0.05131  0.46263  1.0000
  H   H120      1.0  0.52043  0.01527  0.46247  1.0000
  C   C199      1.0  0.24018  0.52069  0.39741  1.0000
  C   C200      1.0  0.22424  0.52481  0.39010  1.0000
  H   H121      1.0  0.24179  0.51475  0.45603  1.0000
  H   H122      1.0  0.21506  0.52216  0.44421  1.0000
  C   C201      1.0  0.27317  0.52603  0.34206  1.0000
  C   C202      1.0  0.31404  0.53461  0.35677  1.0000
  C   C203      1.0  0.30455  0.53878  0.42808  1.0000
  C   C204      1.0  0.28449  0.53457  0.42088  1.0000
  H   H123      1.0  0.31258  0.54613  0.48398  1.0000
  H   H124      1.0  0.27888  0.53941  0.47119  1.0000
  C   C205      1.0  0.48151  0.71991  0.39722  1.0000
  C   C206      1.0  0.47742  0.69986  0.38976  1.0000
  H   H125      1.0  0.48741  0.72743  0.45592  1.0000
  H   H126      1.0  0.48001  0.69332  0.44398  1.0000
  C   C207      1.0  0.47621  0.74759  0.34198  1.0000
  C   C208      1.0  0.46766  0.77990  0.35698  1.0000
  C   C209      1.0  0.46352  0.76623  0.42827  1.0000
  C   C210      1.0  0.46771  0.75038  0.42093  1.0000
  H   H127      1.0  0.45613  0.76687  0.48411  1.0000
  H   H128      1.0  0.46282  0.73989  0.47110  1.0000
  C   C211      1.0  0.28232  0.76207  0.39724  1.0000
  C   C212      1.0  0.30239  0.77801  0.38991  1.0000
  H   H129      1.0  0.27478  0.76047  0.45586  1.0000
  H   H130      1.0  0.30892  0.78719  0.44401  1.0000
  C   C213      1.0  0.25467  0.72908  0.34195  1.0000
  C   C214      1.0  0.22237  0.68821  0.35681  1.0000
  C   C215      1.0  0.23603  0.69772  0.42811  1.0000
  C   C216      1.0  0.25188  0.71777  0.42084  1.0000
  H   H131      1.0  0.23533  0.68970  0.48407  1.0000
  H   H132      1.0  0.26232  0.72339  0.47117  1.0000
  C   C217      1.0  0.76250  0.48106  0.39712  1.0000
  C   C218      1.0  0.77847  0.47697  0.38968  1.0000
  H   H133      1.0  0.76089  0.48698  0.45579  1.0000
  H   H134      1.0  0.78760  0.47957  0.44390  1.0000
  C   C219      1.0  0.72952  0.47575  0.34187  1.0000
  C   C220      1.0  0.68867  0.46721  0.35690  1.0000
  C   C221      1.0  0.69819  0.46307  0.42821  1.0000
  C   C222      1.0  0.71824  0.46726  0.42085  1.0000
  H   H135      1.0  0.69017  0.45570  0.48407  1.0000
  H   H136      1.0  0.72383  0.46238  0.47104  1.0000
  C   C223      1.0  0.52114  0.28185  0.39742  1.0000
  C   C224      1.0  0.52526  0.30193  0.39012  1.0000
  H   H137      1.0  0.51520  0.27431  0.45602  1.0000
  H   H138      1.0  0.52261  0.30845  0.44424  1.0000
  C   C225      1.0  0.52649  0.25422  0.34204  1.0000
  C   C226      1.0  0.53507  0.22193  0.35674  1.0000
  C   C227      1.0  0.53924  0.23559  0.42806  1.0000
  C   C228      1.0  0.53503  0.25143  0.42087  1.0000
  H   H139      1.0  0.54658  0.23490  0.48396  1.0000
  H   H140      1.0  0.53986  0.26188  0.47118  1.0000
  C   C229      1.0  0.72035  0.23976  0.39731  1.0000
  C   C230      1.0  0.70030  0.22379  0.38982  1.0000
  H   H141      1.0  0.72786  0.24138  0.45603  1.0000
  H   H142      1.0  0.69375  0.21466  0.44403  1.0000
  C   C231      1.0  0.74803  0.27274  0.34208  1.0000
  C   C232      1.0  0.78033  0.31359  0.35711  1.0000
  C   C233      1.0  0.76666  0.30407  0.42840  1.0000
  C   C234      1.0  0.75081  0.28402  0.42104  1.0000
  H   H143      1.0  0.76731  0.31210  0.48424  1.0000
  H   H144      1.0  0.74033  0.27843  0.47120  1.0000
