data_image0
_chemical_formula_structural       C14H12C7NC12H12C2NC3NC3NC15H14C2H6C2H6C2H6C2H6C2H6C2H6C3NC2NC5NC3NC17H14CNC2NC4NC18H14C2NC19H12C4NC2NCHCHC4NC2NCHCHC4NC2NCHCHC4NC2NCHCHC4NC2NCHCHC4NC2NCHCH
_chemical_formula_sum              "C192 H126 N24"
_cell_length_a       41.9171
_cell_length_b       41.9171
_cell_length_c       15.0399
_cell_angle_alpha    90.0372
_cell_angle_beta     89.9628
_cell_angle_gamma    120

_space_group_name_H-M_alt    "P 1"
_space_group_IT_number       1

loop_
  _space_group_symop_operation_xyz
  'x, y, z'

loop_
  _atom_site_type_symbol
  _atom_site_label
  _atom_site_symmetry_multiplicity
  _atom_site_fract_x
  _atom_site_fract_y
  _atom_site_fract_z
  _atom_site_occupancy
  C   C1        1.0  0.94792  0.54699  0.32718  1.0000
  C   C2        1.0  0.09736  0.53607  0.32199  1.0000
  C   C3        1.0  0.10907  0.57429  0.32723  1.0000
  C   C4        1.0  0.14546  0.63571  0.33441  1.0000
  C   C5        1.0  0.14542  0.60288  0.33653  1.0000
  C   C6        1.0  0.15857  0.75434  0.26970  1.0000
  C   C7        1.0  0.13105  0.71708  0.26322  1.0000
  C   C8        1.0  0.12519  0.52567  0.32227  1.0000
  C   C9        1.0  0.18220  0.53180  0.26173  1.0000
  C   C10       1.0  0.15251  0.53833  0.25547  1.0000
  C   C11       1.0  0.92606  0.40427  0.26320  1.0000
  C   C12       1.0  0.89869  0.36696  0.26956  1.0000
  C   C13       1.0  0.90451  0.58278  0.25478  1.0000
  C   C14       1.0  0.87466  0.58907  0.26093  1.0000
  H   H1        1.0  0.85399  0.57599  0.21546  1.0000
  H   H2        1.0  0.90475  0.56644  0.20442  1.0000
  H   H3        1.0  0.99369  0.66346  0.30270  1.0000
  H   H4        1.0  0.94183  0.41323  0.20682  1.0000
  H   H5        1.0  0.89630  0.35012  0.21768  1.0000
  H   H6        1.0  0.06331  0.45785  0.30252  1.0000
  H   H7        1.0  0.16882  0.66091  0.33773  1.0000
  H   H8        1.0  0.16871  0.60102  0.34240  1.0000
  H   H9        1.0  0.15241  0.55469  0.20504  1.0000
  H   H10       1.0  0.20290  0.54473  0.21623  1.0000
  H   H11       1.0  0.11535  0.70819  0.20676  1.0000
  H   H12       1.0  0.16114  0.77122  0.21784  1.0000
  C   C15       1.0  0.43741  0.44979  0.30739  1.0000
  C   C16       1.0  0.44355  0.50606  0.32070  1.0000
  C   C17       1.0  0.54149  0.49251  0.32687  1.0000
  C   C18       1.0  0.61215  0.61278  0.32138  1.0000
  C   C19       1.0  0.61832  0.66907  0.30845  1.0000
  C   C20       1.0  0.55241  0.65286  0.32152  1.0000
  C   C21       1.0  0.51420  0.62635  0.32677  1.0000
  N   N1        1.0  0.49781  0.58917  0.32314  1.0000
  C   C22       1.0  0.45278  0.60130  0.33441  1.0000
  C   C23       1.0  0.48560  0.63410  0.33616  1.0000
  C   C24       1.0  0.33415  0.49583  0.26953  1.0000
  C   C25       1.0  0.37140  0.50557  0.26296  1.0000
  C   C26       1.0  0.56281  0.69109  0.32183  1.0000
  C   C27       1.0  0.57899  0.76639  0.32955  1.0000
  C   C28       1.0  0.55669  0.74195  0.26124  1.0000
  C   C29       1.0  0.55011  0.70571  0.25508  1.0000
  C   C30       1.0  0.68424  0.61333  0.26292  1.0000
  C   C31       1.0  0.72154  0.62324  0.26930  1.0000
  C   C32       1.0  0.50577  0.41330  0.25436  1.0000
  C   C33       1.0  0.49946  0.37716  0.26054  1.0000
  H   H13       1.0  0.51257  0.36954  0.21517  1.0000
  H   H14       1.0  0.52217  0.42986  0.20409  1.0000
  H   H15       1.0  0.42509  0.42182  0.30143  1.0000
  H   H16       1.0  0.67528  0.62009  0.20649  1.0000
  H   H17       1.0  0.73839  0.63766  0.21746  1.0000
  H   H18       1.0  0.63066  0.69703  0.30222  1.0000
  H   H19       1.0  0.42758  0.59946  0.33780  1.0000
  H   H20       1.0  0.48747  0.65924  0.34226  1.0000
  H   H21       1.0  0.53378  0.68925  0.20460  1.0000
  H   H22       1.0  0.54374  0.74970  0.21579  1.0000
  H   H23       1.0  0.38029  0.49877  0.20642  1.0000
  H   H24       1.0  0.31726  0.48150  0.21768  1.0000
  C   C34       1.0  0.63875  0.07919  0.30849  1.0000
  C   C35       1.0  0.58243  0.02906  0.32099  1.0000
  N   N2        1.0  0.57992  0.06011  0.32240  1.0000
  C   C36       1.0  0.62252  0.12889  0.32122  1.0000
  C   C37       1.0  0.59602  0.14060  0.32658  1.0000
  C   C38       1.0  0.47574  0.09100  0.32135  1.0000
  N   N3        1.0  0.47824  0.05995  0.32265  1.0000
  C   C39       1.0  0.41941  0.04088  0.30899  1.0000
  C   C40       1.0  0.43562  0.99117  0.32136  1.0000
  C   C41       1.0  0.46212  0.97945  0.32639  1.0000
  N   N4        1.0  0.49931  0.00023  0.32297  1.0000
  C   C42       1.0  0.48715  0.94305  0.33361  1.0000
  C   C43       1.0  0.45436  0.94309  0.33540  1.0000
  C   C44       1.0  0.56466  0.96387  0.33331  1.0000
  C   C45       1.0  0.58161  0.90538  0.34265  1.0000
  C   C46       1.0  0.59267  0.92991  0.26915  1.0000
  C   C47       1.0  0.58294  0.95743  0.26266  1.0000
  C   C48       1.0  0.39739  0.96334  0.32172  1.0000
  C   C49       1.0  0.32211  0.90421  0.32963  1.0000
  C   C50       1.0  0.34652  0.90635  0.26121  1.0000
  C   C51       1.0  0.38271  0.93608  0.25478  1.0000
  C   C52       1.0  0.47512  0.16245  0.26271  1.0000
  C   C53       1.0  0.46519  0.18983  0.26909  1.0000
  C   C54       1.0  0.67529  0.18399  0.25435  1.0000
  C   C55       1.0  0.73588  0.21616  0.32904  1.0000
  C   C56       1.0  0.71142  0.21384  0.26064  1.0000
  H   H25       1.0  0.71908  0.23451  0.21513  1.0000
  H   H26       1.0  0.65877  0.18377  0.20393  1.0000
  H   H27       1.0  0.66670  0.09480  0.30205  1.0000
  H   H28       1.0  0.55725  0.06009  0.33181  1.0000
  H   H29       1.0  0.50093  0.05996  0.33143  1.0000
  H   H30       1.0  0.46830  0.14666  0.20635  1.0000
  H   H31       1.0  0.45076  0.19223  0.21726  1.0000
  H   H32       1.0  0.39145  0.02528  0.30292  1.0000
  H   H33       1.0  0.48899  0.91969  0.33674  1.0000
  H   H34       1.0  0.42921  0.91980  0.34129  1.0000
  H   H35       1.0  0.39917  0.93616  0.20432  1.0000
  H   H36       1.0  0.33874  0.88565  0.21569  1.0000
  H   H37       1.0  0.58979  0.97314  0.20620  1.0000
  H   H38       1.0  0.60703  0.92735  0.21734  1.0000
  C   C57       1.0  0.23474  0.50430  0.25902  1.0000
  C   C58       1.0  0.26837  0.50474  0.26215  1.0000
  H   H39       1.0  0.28205  0.50873  0.20332  1.0000
  H   H40       1.0  0.22503  0.50550  0.19758  1.0000
  H   H41       1.0  0.22602  0.52036  0.03545  1.0000
  H   H42       1.0  0.19579  0.47185  0.02870  1.0000
  H   H43       1.0  0.25868  0.48227  0.05492  1.0000
  H   H44       1.0  0.30233  0.50725  0.00341  1.0000
  C   C59       1.0  0.58420  0.82200  0.25855  1.0000
  C   C60       1.0  0.58375  0.85519  0.26168  1.0000
  H   H45       1.0  0.57977  0.86486  0.20285  1.0000
  H   H46       1.0  0.58299  0.81105  0.19712  1.0000
  H   H47       1.0  0.56811  0.79728  0.03498  1.0000
  H   H48       1.0  0.61663  0.81556  0.02825  1.0000
  H   H49       1.0  0.60622  0.86805  0.05444  1.0000
  H   H50       1.0  0.58121  0.88666  0.00291  1.0000
  C   C61       1.0  0.26648  0.85373  0.25882  1.0000
  C   C62       1.0  0.23329  0.82011  0.26203  1.0000
  H   H51       1.0  0.22359  0.80642  0.20322  1.0000
  H   H52       1.0  0.27738  0.86344  0.19736  1.0000
  H   H53       1.0  0.29141  0.86252  0.03521  1.0000
  H   H54       1.0  0.27313  0.89275  0.02849  1.0000
  H   H55       1.0  0.22066  0.82987  0.05484  1.0000
  H   H56       1.0  0.20198  0.78621  0.00337  1.0000
  C   C63       1.0  0.82153  0.61585  0.25847  1.0000
  C   C64       1.0  0.78771  0.61501  0.26172  1.0000
  H   H57       1.0  0.77402  0.61090  0.20291  1.0000
  H   H58       1.0  0.83133  0.61477  0.19702  1.0000
  H   H59       1.0  0.83054  0.59984  0.03484  1.0000
  H   H60       1.0  0.86039  0.64841  0.02815  1.0000
  H   H61       1.0  0.79726  0.63732  0.05454  1.0000
  H   H62       1.0  0.75365  0.61196  0.00307  1.0000
  C   C65       1.0  0.47263  0.29724  0.25805  1.0000
  C   C66       1.0  0.47348  0.26427  0.26133  1.0000
  H   H63       1.0  0.47759  0.25464  0.20254  1.0000
  H   H64       1.0  0.47371  0.30808  0.19657  1.0000
  H   H65       1.0  0.48864  0.32242  0.03439  1.0000
  H   H66       1.0  0.44006  0.30362  0.02771  1.0000
  H   H67       1.0  0.45123  0.25165  0.05417  1.0000
  H   H68       1.0  0.47660  0.23339  0.00274  1.0000
  C   C67       1.0  0.79133  0.26695  0.25839  1.0000
  C   C68       1.0  0.82430  0.30078  0.26175  1.0000
  H   H69       1.0  0.83393  0.31451  0.20297  1.0000
  H   H70       1.0  0.78052  0.25718  0.19690  1.0000
  H   H71       1.0  0.76604  0.25779  0.03472  1.0000
  H   H72       1.0  0.78478  0.22796  0.02801  1.0000
  H   H73       1.0  0.83679  0.29110  0.05458  1.0000
  H   H74       1.0  0.85506  0.33472  0.00320  1.0000
  C   C69       1.0  0.00931  0.65114  0.30919  1.0000
  C   C70       1.0  0.04714  0.67031  0.31492  1.0000
  C   C71       1.0  0.05945  0.64496  0.32156  1.0000
  N   N5        1.0  0.02840  0.61140  0.32306  1.0000
  C   C72       1.0  0.99724  0.61360  0.31773  1.0000
  C   C73       1.0  0.95962  0.58521  0.32177  1.0000
  N   N6        1.0  0.96871  0.53060  0.32375  1.0000
  C   C74       1.0  0.94804  0.49345  0.32940  1.0000
  C   C75       1.0  0.91154  0.48558  0.33489  1.0000
  C   C76       1.0  0.91157  0.51841  0.33659  1.0000
  C   C77       1.0  0.95997  0.46706  0.32812  1.0000
  C   C78       1.0  0.99755  0.47635  0.32162  1.0000
  N   N7        1.0  0.02859  0.50991  0.32289  1.0000
  C   C79       1.0  0.05975  0.50770  0.31755  1.0000
  C   C80       1.0  0.04768  0.47019  0.30845  1.0000
  C   C81       1.0  0.00987  0.45101  0.31464  1.0000
  N   N8        1.0  0.08829  0.59068  0.32359  1.0000
  C   C82       1.0  0.10895  0.62783  0.32905  1.0000
  C   C83       1.0  0.09703  0.65422  0.32771  1.0000
  C   C84       1.0  0.12463  0.69239  0.33387  1.0000
  C   C85       1.0  0.14718  0.70605  0.41008  1.0000
  C   C86       1.0  0.17689  0.74236  0.41238  1.0000
  C   C87       1.0  0.18314  0.76783  0.34313  1.0000
  C   C88       1.0  0.12676  0.50331  0.39046  1.0000
  C   C89       1.0  0.15462  0.49394  0.39139  1.0000
  C   C90       1.0  0.18429  0.50948  0.32999  1.0000
  C   C91       1.0  0.93237  0.42888  0.33402  1.0000
  C   C92       1.0  0.87411  0.35330  0.34298  1.0000
  C   C93       1.0  0.88015  0.37873  0.41226  1.0000
  C   C94       1.0  0.90972  0.41512  0.41008  1.0000
  C   C95       1.0  0.93175  0.59556  0.32172  1.0000
  C   C96       1.0  0.92998  0.61785  0.38987  1.0000
  C   C97       1.0  0.90196  0.62699  0.39070  1.0000
  C   C98       1.0  0.87231  0.61125  0.32929  1.0000
  H   H75       1.0  0.90347  0.64506  0.43830  1.0000
  H   H76       1.0  0.94952  0.62813  0.43893  1.0000
  H   H77       1.0  0.06247  0.69838  0.31380  1.0000
  H   H78       1.0  0.02842  0.58874  0.33199  1.0000
  H   H79       1.0  0.02858  0.53252  0.33327  1.0000
  H   H80       1.0  0.88829  0.52027  0.34247  1.0000
  H   H81       1.0  0.88818  0.46038  0.33828  1.0000
  H   H82       1.0  0.91295  0.43232  0.46199  1.0000
  H   H83       1.0  0.86223  0.37178  0.46429  1.0000
  H   H84       1.0  0.99455  0.42293  0.31381  1.0000
  H   H85       1.0  0.10714  0.49310  0.43939  1.0000
  H   H86       1.0  0.15290  0.47578  0.43891  1.0000
  H   H87       1.0  0.19481  0.74918  0.46433  1.0000
  H   H88       1.0  0.14391  0.68878  0.46181  1.0000
  C   C99       1.0  0.41822  0.46842  0.31357  1.0000
  N   N9        1.0  0.47712  0.50860  0.32207  1.0000
  C   C100      1.0  0.47492  0.47523  0.31663  1.0000
  C   C101      1.0  0.50329  0.46600  0.32123  1.0000
  N   N10       1.0  0.55790  0.52968  0.32328  1.0000
  C   C102      1.0  0.59504  0.54616  0.32905  1.0000
  C   C103      1.0  0.60290  0.51753  0.33475  1.0000
  C   C104      1.0  0.57007  0.48474  0.33648  1.0000
  C   C105      1.0  0.62143  0.58447  0.32773  1.0000
  N   N11       1.0  0.57858  0.61026  0.32270  1.0000
  C   C106      1.0  0.58079  0.64362  0.31730  1.0000
  C   C107      1.0  0.63749  0.65043  0.31454  1.0000
  C   C108      1.0  0.46066  0.57268  0.32878  1.0000
  C   C109      1.0  0.43427  0.53436  0.32741  1.0000
  C   C110      1.0  0.39610  0.52378  0.33366  1.0000
  C   C111      1.0  0.38246  0.53267  0.40996  1.0000
  C   C112      1.0  0.34615  0.52607  0.41236  1.0000
  C   C113      1.0  0.32065  0.50684  0.34312  1.0000
  C   C114      1.0  0.58516  0.71505  0.39002  1.0000
  C   C115      1.0  0.59452  0.75228  0.39096  1.0000
  C   C116      1.0  0.65960  0.59506  0.33370  1.0000
  C   C117      1.0  0.73518  0.61239  0.34282  1.0000
  C   C118      1.0  0.70974  0.59306  0.41210  1.0000
  C   C119      1.0  0.67335  0.58624  0.40985  1.0000
  C   C120      1.0  0.49292  0.42778  0.32118  1.0000
  C   C121      1.0  0.47055  0.40373  0.38921  1.0000
  C   C122      1.0  0.46142  0.36657  0.39010  1.0000
  C   C123      1.0  0.47722  0.35265  0.32881  1.0000
  H   H89       1.0  0.44332  0.35003  0.43764  1.0000
  H   H90       1.0  0.46022  0.41301  0.43818  1.0000
  H   H91       1.0  0.39014  0.45565  0.31264  1.0000
  H   H92       1.0  0.49971  0.53120  0.33262  1.0000
  H   H93       1.0  0.55595  0.58760  0.33233  1.0000
  H   H94       1.0  0.56819  0.45959  0.34254  1.0000
  H   H95       1.0  0.62810  0.51937  0.33829  1.0000
  H   H96       1.0  0.65613  0.57226  0.46168  1.0000
  H   H97       1.0  0.71666  0.58207  0.46408  1.0000
  H   H98       1.0  0.66557  0.66319  0.31355  1.0000
  H   H99       1.0  0.59537  0.70567  0.43896  1.0000
  H   H100      1.0  0.61268  0.76874  0.43849  1.0000
  H   H101      1.0  0.33933  0.53715  0.46441  1.0000
  H   H102      1.0  0.39973  0.54665  0.46172  1.0000
  C   C124      1.0  0.62009  0.04136  0.31429  1.0000
  C   C125      1.0  0.61329  0.09127  0.31708  1.0000
  N   N12       1.0  0.55884  0.11983  0.32317  1.0000
  C   C126      1.0  0.54237  0.14050  0.32872  1.0000
  C   C127      1.0  0.57101  0.17701  0.33403  1.0000
  C   C128      1.0  0.60379  0.17696  0.33580  1.0000
  C   C129      1.0  0.50406  0.12859  0.32747  1.0000
  C   C130      1.0  0.44487  0.02879  0.31740  1.0000
  C   C131      1.0  0.43807  0.07870  0.31501  1.0000
  C   C132      1.0  0.51578  0.97956  0.32833  1.0000
  C   C133      1.0  0.55410  0.99148  0.32715  1.0000
  C   C134      1.0  0.55571  0.94131  0.40951  1.0000
  C   C135      1.0  0.56233  0.91162  0.41185  1.0000
  C   C136      1.0  0.37348  0.96172  0.39010  1.0000
  C   C137      1.0  0.33625  0.93387  0.39109  1.0000
  C   C138      1.0  0.49349  0.15620  0.33341  1.0000
  C   C139      1.0  0.47615  0.21444  0.34246  1.0000
  C   C140      1.0  0.49553  0.20841  0.41171  1.0000
  C   C141      1.0  0.50239  0.17887  0.40944  1.0000
  C   C142      1.0  0.66075  0.15674  0.32126  1.0000
  C   C143      1.0  0.68474  0.15848  0.38948  1.0000
  C   C144      1.0  0.72192  0.18650  0.39042  1.0000
  H   H103      1.0  0.73842  0.18495  0.43802  1.0000
  H   H104      1.0  0.67543  0.13892  0.43849  1.0000
  H   H105      1.0  0.63282  0.02602  0.31316  1.0000
  H   H106      1.0  0.62894  0.20025  0.34168  1.0000
  H   H107      1.0  0.56917  0.20037  0.33732  1.0000
  H   H108      1.0  0.51639  0.17568  0.46127  1.0000
  H   H109      1.0  0.50655  0.22638  0.46362  1.0000
  H   H110      1.0  0.42532  0.09403  0.31419  1.0000
  H   H111      1.0  0.38290  0.98129  0.43914  1.0000
  H   H112      1.0  0.31982  0.93555  0.43876  1.0000
  H   H113      1.0  0.55123  0.89372  0.46383  1.0000
  H   H114      1.0  0.54169  0.94459  0.46123  1.0000
  C   C145      1.0  0.28409  0.50220  0.34322  1.0000
  C   C146      1.0  0.26344  0.49827  0.42166  1.0000
  C   C147      1.0  0.23087  0.50093  0.41905  1.0000
  C   C148      1.0  0.21583  0.50430  0.33703  1.0000
  N   N13       1.0  0.21560  0.50104  0.49871  1.0000
  C   C149      1.0  0.22719  0.49658  0.57954  1.0000
  C   C150      1.0  0.25780  0.49100  0.58129  1.0000
  N   N14       1.0  0.27431  0.49261  0.50247  1.0000
  C   C151      1.0  0.20715  0.49785  0.65906  1.0000
  H   H115      1.0  0.18448  0.50237  0.64106  1.0000
  C   C152      1.0  0.27413  0.48459  0.66156  1.0000
  H   H116      1.0  0.27477  0.45903  0.65389  1.0000
  C   C153      1.0  0.58629  0.87349  0.34274  1.0000
  C   C154      1.0  0.59022  0.85680  0.42118  1.0000
  C   C155      1.0  0.58756  0.82158  0.41858  1.0000
  C   C156      1.0  0.58418  0.80312  0.33657  1.0000
  N   N15       1.0  0.58745  0.80623  0.49825  1.0000
  C   C157      1.0  0.59190  0.82232  0.57907  1.0000
  C   C158      1.0  0.59750  0.85853  0.58081  1.0000
  N   N16       1.0  0.59588  0.87338  0.50199  1.0000
  C   C159      1.0  0.59063  0.80106  0.65860  1.0000
  H   H117      1.0  0.58609  0.77385  0.64062  1.0000
  C   C160      1.0  0.60389  0.88130  0.66107  1.0000
  H   H118      1.0  0.62944  0.90750  0.65340  1.0000
  C   C161      1.0  0.21504  0.80440  0.34314  1.0000
  C   C162      1.0  0.23176  0.82505  0.42155  1.0000
  C   C163      1.0  0.26699  0.85762  0.41885  1.0000
  C   C164      1.0  0.28541  0.87265  0.33679  1.0000
  N   N17       1.0  0.28237  0.87290  0.49849  1.0000
  C   C165      1.0  0.26632  0.86133  0.57935  1.0000
  C   C166      1.0  0.23012  0.83072  0.58119  1.0000
  N   N18       1.0  0.21522  0.81420  0.50240  1.0000
  C   C167      1.0  0.28762  0.88138  0.65882  1.0000
  H   H119      1.0  0.31482  0.90404  0.64077  1.0000
  C   C168      1.0  0.20737  0.81441  0.66151  1.0000
  H   H120      1.0  0.18118  0.81379  0.65390  1.0000
  C   C169      1.0  0.77186  0.61734  0.34284  1.0000
  C   C170      1.0  0.79257  0.62148  0.42123  1.0000
  C   C171      1.0  0.82536  0.61921  0.41852  1.0000
  C   C172      1.0  0.84054  0.61603  0.33644  1.0000
  N   N19       1.0  0.84072  0.61928  0.49813  1.0000
  C   C173      1.0  0.82901  0.62357  0.57901  1.0000
  C   C174      1.0  0.79816  0.62878  0.58088  1.0000
  N   N20       1.0  0.78158  0.62698  0.50210  1.0000
  C   C175      1.0  0.84916  0.62254  0.65846  1.0000
  H   H121      1.0  0.87201  0.61829  0.64039  1.0000
  C   C176      1.0  0.78164  0.63493  0.66122  1.0000
  H   H122      1.0  0.78068  0.66032  0.65366  1.0000
  C   C177      1.0  0.47116  0.24614  0.34247  1.0000
  C   C178      1.0  0.46703  0.26276  0.42086  1.0000
  C   C179      1.0  0.46926  0.29780  0.41809  1.0000
  C   C180      1.0  0.47242  0.31609  0.33599  1.0000
  N   N21       1.0  0.46918  0.31314  0.49768  1.0000
  C   C181      1.0  0.46492  0.29720  0.57858  1.0000
  C   C182      1.0  0.45977  0.26116  0.58050  1.0000
  N   N22       1.0  0.46156  0.24632  0.50175  1.0000
  C   C183      1.0  0.46593  0.31843  0.65801  1.0000
  H   H123      1.0  0.47014  0.34550  0.63989  1.0000
  C   C184      1.0  0.45362  0.23854  0.66087  1.0000
  H   H124      1.0  0.42823  0.21218  0.65334  1.0000
  C   C185      1.0  0.84242  0.31660  0.34291  1.0000
  C   C186      1.0  0.82576  0.29587  0.42125  1.0000
  C   C187      1.0  0.79072  0.26308  0.41843  1.0000
  C   C188      1.0  0.77245  0.24791  0.33629  1.0000
  N   N23       1.0  0.77535  0.24769  0.49800  1.0000
  C   C189      1.0  0.79127  0.25939  0.57892  1.0000
  C   C190      1.0  0.82732  0.29024  0.58090  1.0000
  N   N24       1.0  0.84218  0.30685  0.50217  1.0000
  C   C191      1.0  0.77001  0.23920  0.65831  1.0000
  H   H125      1.0  0.74293  0.21636  0.64015  1.0000
  C   C192      1.0  0.84991  0.30675  0.66132  1.0000
  H   H126      1.0  0.87628  0.30772  0.65382  1.0000
