data_image0
_chemical_formula_structural       C4H2C4H2C4H2C4H2C4H2C4H2N12C4H2C4H2C4H2C4H2C4H2C4H2CNCNCNCNCNCNCNCNCNCNCNCNCNCNCNCNCNCNCNCNCNCNCNCNCNCNCNCNCNCNCNCNCNCNCNCN13C4H2C4H2C4H2C4H2C4H2C4H2N12
_chemical_formula_sum              "C108 H36 N72"
_cell_length_a       39.1495
_cell_length_b       39.1494
_cell_length_c       14.8966
_cell_angle_alpha    90
_cell_angle_beta     90
_cell_angle_gamma    120

_space_group_name_H-M_alt    "P 1"
_space_group_IT_number       1

loop_
  _space_group_symop_operation_xyz
  'x, y, z'

loop_
  _atom_site_type_symbol
  _atom_site_label
  _atom_site_symmetry_multiplicity
  _atom_site_fract_x
  _atom_site_fract_y
  _atom_site_fract_z
  _atom_site_occupancy
  C   C1        1.0  0.26828  0.45760  0.32377  1.0000
  C   C2        1.0  0.23229  0.42144  0.32929  1.0000
  C   C3        1.0  0.19615  0.42144  0.32926  1.0000
  C   C4        1.0  0.19629  0.45758  0.32364  1.0000
  H   H1        1.0  0.17022  0.39533  0.33470  1.0000
  H   H2        1.0  0.23212  0.39535  0.33476  1.0000
  C   C5        1.0  0.56960  0.83093  0.32373  1.0000
  C   C6        1.0  0.60575  0.83109  0.32926  1.0000
  C   C7        1.0  0.60576  0.79496  0.32928  1.0000
  C   C8        1.0  0.56961  0.75896  0.32371  1.0000
  H   H3        1.0  0.63186  0.79513  0.33472  1.0000
  H   H4        1.0  0.63185  0.85702  0.33469  1.0000
  C   C9        1.0  0.19627  0.75891  0.32377  1.0000
  C   C10       1.0  0.19610  0.79490  0.32932  1.0000
  C   C11       1.0  0.23224  0.83104  0.32934  1.0000
  C   C12       1.0  0.26824  0.83089  0.32380  1.0000
  H   H5        1.0  0.23206  0.85697  0.33479  1.0000
  H   H6        1.0  0.17017  0.79507  0.33474  1.0000
  C   C13       1.0  0.75447  0.57401  0.32375  1.0000
  C   C14       1.0  0.79046  0.61017  0.32926  1.0000
  C   C15       1.0  0.82660  0.61017  0.32928  1.0000
  C   C16       1.0  0.82645  0.57403  0.32371  1.0000
  H   H7        1.0  0.85253  0.63627  0.33470  1.0000
  H   H8        1.0  0.79063  0.63626  0.33469  1.0000
  C   C17       1.0  0.45315  0.20069  0.32381  1.0000
  C   C18       1.0  0.41700  0.20053  0.32934  1.0000
  C   C19       1.0  0.41699  0.23666  0.32931  1.0000
  C   C20       1.0  0.45313  0.27266  0.32369  1.0000
  H   H9        1.0  0.39089  0.23649  0.33476  1.0000
  H   H10       1.0  0.39090  0.17460  0.33482  1.0000
  C   C21       1.0  0.82650  0.27271  0.32374  1.0000
  C   C22       1.0  0.82666  0.23672  0.32924  1.0000
  C   C23       1.0  0.79052  0.20058  0.32924  1.0000
  C   C24       1.0  0.75452  0.20073  0.32367  1.0000
  H   H11       1.0  0.79069  0.17465  0.33466  1.0000
  H   H12       1.0  0.85259  0.23655  0.33468  1.0000
  N   N1        1.0  0.11032  0.54864  0.34054  1.0000
  N   N2        1.0  0.11032  0.58188  0.34054  1.0000
  N   N3        1.0  0.47853  0.58194  0.34068  1.0000
  N   N4        1.0  0.44530  0.54870  0.34067  1.0000
  N   N5        1.0  0.44526  0.91686  0.34056  1.0000
  N   N6        1.0  0.47851  0.91686  0.34053  1.0000
  N   N7        1.0  0.91242  0.48297  0.34070  1.0000
  N   N8        1.0  0.91243  0.44973  0.34069  1.0000
  N   N9        1.0  0.54420  0.44969  0.34053  1.0000
  N   N10       1.0  0.57744  0.48292  0.34052  1.0000
  N   N11       1.0  0.57750  0.11478  0.34064  1.0000
  N   N12       1.0  0.54426  0.11477  0.34064  1.0000
  C   C25       1.0  0.96985  0.36853  0.35146  1.0000
  C   C26       1.0  0.99044  0.35117  0.31206  1.0000
  C   C27       1.0  0.03233  0.37209  0.31212  1.0000
  C   C28       1.0  0.05296  0.40998  0.35182  1.0000
  H   H13       1.0  0.04730  0.36109  0.27772  1.0000
  H   H14       1.0  0.97547  0.32521  0.27761  1.0000
  C   C29       1.0  0.65864  0.62154  0.35138  1.0000
  C   C30       1.0  0.67605  0.65954  0.31223  1.0000
  C   C31       1.0  0.65512  0.68050  0.31228  1.0000
  C   C32       1.0  0.61716  0.66316  0.35162  1.0000
  H   H15       1.0  0.66617  0.70653  0.27811  1.0000
  H   H16       1.0  0.70206  0.67059  0.27800  1.0000
  C   C33       1.0  0.40563  0.05733  0.35149  1.0000
  C   C34       1.0  0.36766  0.03675  0.31219  1.0000
  C   C35       1.0  0.34669  0.99486  0.31226  1.0000
  C   C36       1.0  0.36397  0.97423  0.35186  1.0000
  H   H17       1.0  0.32071  0.97989  0.27795  1.0000
  H   H18       1.0  0.35665  0.05171  0.27784  1.0000
  C   C37       1.0  0.05291  0.66308  0.35142  1.0000
  C   C38       1.0  0.03232  0.68047  0.31221  1.0000
  C   C39       1.0  0.99042  0.65953  0.31227  1.0000
  C   C40       1.0  0.96981  0.62158  0.35164  1.0000
  H   H19       1.0  0.97545  0.67057  0.27804  1.0000
  H   H20       1.0  0.04727  0.70647  0.27794  1.0000
  C   C41       1.0  0.36409  0.41006  0.35147  1.0000
  C   C42       1.0  0.34672  0.37211  0.31213  1.0000
  C   C43       1.0  0.36765  0.35114  0.31219  1.0000
  C   C44       1.0  0.40554  0.36840  0.35182  1.0000
  H   H21       1.0  0.35663  0.32515  0.27784  1.0000
  H   H22       1.0  0.32075  0.36110  0.27774  1.0000
  C   C45       1.0  0.61712  0.97429  0.35136  1.0000
  C   C46       1.0  0.65512  0.99488  0.31220  1.0000
  C   C47       1.0  0.67608  0.03677  0.31224  1.0000
  C   C48       1.0  0.65873  0.05738  0.35157  1.0000
  H   H23       1.0  0.70210  0.05175  0.27806  1.0000
  H   H24       1.0  0.66617  0.97992  0.27798  1.0000
  C   C49       1.0  0.09368  0.43824  0.34265  1.0000
  N   N13       1.0  0.12456  0.43147  0.33460  1.0000
  C   C50       1.0  0.16255  0.46221  0.32728  1.0000
  N   N14       1.0  0.16880  0.49983  0.32722  1.0000
  C   C51       1.0  0.13897  0.50775  0.33400  1.0000
  N   N15       1.0  0.10225  0.47637  0.34187  1.0000
  C   C52       1.0  0.58892  0.67566  0.34263  1.0000
  N   N16       1.0  0.59571  0.71331  0.33460  1.0000
  C   C53       1.0  0.56498  0.72059  0.32738  1.0000
  N   N17       1.0  0.52735  0.68923  0.32737  1.0000
  C   C54       1.0  0.51942  0.65147  0.33412  1.0000
  N   N18       1.0  0.55079  0.64612  0.34190  1.0000
  C   C55       1.0  0.35152  0.93351  0.34272  1.0000
  N   N19       1.0  0.31387  0.90263  0.33472  1.0000
  C   C56       1.0  0.30660  0.86463  0.32747  1.0000
  N   N20       1.0  0.33797  0.85838  0.32735  1.0000
  C   C57       1.0  0.37573  0.88821  0.33408  1.0000
  N   N21       1.0  0.38107  0.92493  0.34192  1.0000
  C   C58       1.0  0.92907  0.59335  0.34264  1.0000
  N   N22       1.0  0.89819  0.60013  0.33460  1.0000
  C   C59       1.0  0.86020  0.56940  0.32737  1.0000
  N   N23       1.0  0.85393  0.53177  0.32736  1.0000
  C   C60       1.0  0.88376  0.52385  0.33413  1.0000
  N   N24       1.0  0.92048  0.55522  0.34191  1.0000
  C   C61       1.0  0.43380  0.35594  0.34266  1.0000
  N   N25       1.0  0.42703  0.31829  0.33463  1.0000
  C   C62       1.0  0.45776  0.31102  0.32732  1.0000
  N   N26       1.0  0.49538  0.34239  0.32725  1.0000
  C   C63       1.0  0.50331  0.38015  0.33400  1.0000
  N   N27       1.0  0.47194  0.38549  0.34187  1.0000
  C   C64       1.0  0.67123  0.09812  0.34258  1.0000
  N   N28       1.0  0.70888  0.12900  0.33455  1.0000
  C   C65       1.0  0.71615  0.16700  0.32734  1.0000
  N   N29       1.0  0.68479  0.17327  0.32732  1.0000
  C   C66       1.0  0.64704  0.14344  0.33407  1.0000
  N   N30       1.0  0.64169  0.10672  0.34184  1.0000
  C   C67       1.0  0.43385  0.09808  0.34256  1.0000
  N   N31       1.0  0.42706  0.12895  0.33459  1.0000
  C   C68       1.0  0.45779  0.16695  0.32745  1.0000
  N   N32       1.0  0.49542  0.17323  0.32741  1.0000
  C   C69       1.0  0.50335  0.14340  0.33410  1.0000
  N   N33       1.0  0.47199  0.10667  0.34183  1.0000
  C   C70       1.0  0.67116  0.59331  0.34244  1.0000
  N   N34       1.0  0.70882  0.60010  0.33448  1.0000
  C   C71       1.0  0.71610  0.56937  0.32731  1.0000
  N   N35       1.0  0.68474  0.53175  0.32728  1.0000
  C   C72       1.0  0.64698  0.52381  0.33397  1.0000
  N   N36       1.0  0.64162  0.55518  0.34169  1.0000
  C   C73       1.0  0.92911  0.35601  0.34252  1.0000
  N   N37       1.0  0.89824  0.31836  0.33451  1.0000
  C   C74       1.0  0.86024  0.31108  0.32734  1.0000
  N   N38       1.0  0.85397  0.34244  0.32735  1.0000
  C   C75       1.0  0.88380  0.38020  0.33408  1.0000
  N   N39       1.0  0.92053  0.38556  0.34182  1.0000
  C   C76       1.0  0.58890  0.93354  0.34244  1.0000
  N   N40       1.0  0.59569  0.90267  0.33447  1.0000
  C   C77       1.0  0.56496  0.86467  0.32729  1.0000
  N   N41       1.0  0.52733  0.85839  0.32728  1.0000
  C   C78       1.0  0.51940  0.88822  0.33396  1.0000
  N   N42       1.0  0.55076  0.92495  0.34169  1.0000
  C   C79       1.0  0.35158  0.43829  0.34254  1.0000
  N   N43       1.0  0.31393  0.43151  0.33455  1.0000
  C   C80       1.0  0.30665  0.46224  0.32741  1.0000
  N   N44       1.0  0.33801  0.49986  0.32739  1.0000
  C   C81       1.0  0.37577  0.50779  0.33410  1.0000
  N   N45       1.0  0.38113  0.47643  0.34182  1.0000
  C   C82       1.0  0.09366  0.67560  0.34248  1.0000
  N   N46       1.0  0.12453  0.71326  0.33451  1.0000
  C   C83       1.0  0.16253  0.72053  0.32732  1.0000
  N   N47       1.0  0.16880  0.68918  0.32729  1.0000
  C   C84       1.0  0.13897  0.65141  0.33398  1.0000
  N   N48       1.0  0.10225  0.64606  0.34172  1.0000
  N   N49       1.0  0.23225  0.49079  0.31807  1.0000
  N   N50       1.0  0.26552  0.49080  0.31811  1.0000
  N   N51       1.0  0.53640  0.76170  0.31813  1.0000
  N   N52       1.0  0.53640  0.79497  0.31813  1.0000
  N   N53       1.0  0.26549  0.79494  0.31818  1.0000
  N   N54       1.0  0.23223  0.76167  0.31816  1.0000
  N   N55       1.0  0.79050  0.54082  0.31814  1.0000
  N   N56       1.0  0.75722  0.54081  0.31815  1.0000
  N   N57       1.0  0.48634  0.26991  0.31810  1.0000
  N   N58       1.0  0.48635  0.23664  0.31815  1.0000
  N   N59       1.0  0.75728  0.23669  0.31811  1.0000
  N   N60       1.0  0.79055  0.26996  0.31813  1.0000
  C   C85       1.0  0.14354  0.61773  0.33386  1.0000
  C   C86       1.0  0.17969  0.61800  0.32679  1.0000
  C   C87       1.0  0.17969  0.58189  0.32678  1.0000
  C   C88       1.0  0.14354  0.54600  0.33387  1.0000
  H   H25       1.0  0.20577  0.58200  0.32144  1.0000
  H   H26       1.0  0.20577  0.64396  0.32144  1.0000
  C   C89       1.0  0.40944  0.54605  0.33400  1.0000
  C   C90       1.0  0.40917  0.58193  0.32695  1.0000
  C   C91       1.0  0.44528  0.61805  0.32695  1.0000
  C   C92       1.0  0.48117  0.61779  0.33402  1.0000
  H   H27       1.0  0.44516  0.64401  0.32161  1.0000
  H   H28       1.0  0.38321  0.58204  0.32160  1.0000
  C   C93       1.0  0.48115  0.88365  0.33386  1.0000
  C   C94       1.0  0.44526  0.84749  0.32683  1.0000
  C   C95       1.0  0.40915  0.84749  0.32685  1.0000
  C   C96       1.0  0.40941  0.88365  0.33392  1.0000
  H   H29       1.0  0.38318  0.82142  0.32154  1.0000
  H   H30       1.0  0.44514  0.82142  0.32150  1.0000
  C   C97       1.0  0.87922  0.41387  0.33400  1.0000
  C   C98       1.0  0.84306  0.41360  0.32692  1.0000
  C   C99       1.0  0.84305  0.44971  0.32693  1.0000
  C   C100      1.0  0.87920  0.48560  0.33402  1.0000
  H   H31       1.0  0.81697  0.44959  0.32158  1.0000
  H   H32       1.0  0.81699  0.38764  0.32156  1.0000
  C   C101      1.0  0.61330  0.48556  0.33385  1.0000
  C   C102      1.0  0.61356  0.44967  0.32679  1.0000
  C   C103      1.0  0.57745  0.41356  0.32679  1.0000
  C   C104      1.0  0.54156  0.41382  0.33387  1.0000
  H   H33       1.0  0.57756  0.38760  0.32146  1.0000
  H   H34       1.0  0.63952  0.44955  0.32145  1.0000
  C   C105      1.0  0.54161  0.14798  0.33398  1.0000
  C   C106      1.0  0.57749  0.18414  0.32693  1.0000
  C   C107      1.0  0.61361  0.18415  0.32692  1.0000
  C   C108      1.0  0.61335  0.14800  0.33398  1.0000
  H   H35       1.0  0.63957  0.21023  0.32158  1.0000
  H   H36       1.0  0.57760  0.21022  0.32160  1.0000
  N   N61       1.0  0.03053  0.42325  0.39137  1.0000
  N   N62       1.0  0.99228  0.40417  0.39125  1.0000
  N   N63       1.0  0.60385  0.62742  0.39105  1.0000
  N   N64       1.0  0.62294  0.60827  0.39096  1.0000
  N   N65       1.0  0.39970  0.99666  0.39131  1.0000
  N   N66       1.0  0.41887  0.03491  0.39117  1.0000
  N   N67       1.0  0.99224  0.60830  0.39113  1.0000
  N   N68       1.0  0.03049  0.62740  0.39106  1.0000
  N   N69       1.0  0.41883  0.40412  0.39131  1.0000
  N   N70       1.0  0.39975  0.42329  0.39118  1.0000
  N   N71       1.0  0.62299  0.03496  0.39100  1.0000
  N   N72       1.0  0.60384  0.99671  0.39092  1.0000
