data_image0
_chemical_formula_structural       C11H6C6H3C6N2C7H6NC7H6NC7H6NC2HC6H3CHC2HC6H3CHC2HC6H3CHC2NC2HNHCHC2NC2HNHCHC2NC2HNHCHC7H6NC11H6C6H3C6N2C11H6C6H3C6N2C11H6C6H3C6N2C2NC2HNHCHC2NC2HNHCHC2NC2HNHCHC2HC6H3CHC2HC6H3CHC2HC6H3CH
_chemical_formula_sum              "C204 H108 N24"
_cell_length_a       80.2892
_cell_length_b       80.2949
_cell_length_c       14.9984
_cell_angle_alpha    90
_cell_angle_beta     90
_cell_angle_gamma    119.995

_space_group_name_H-M_alt    "P 1"
_space_group_IT_number       1

loop_
  _space_group_symop_operation_xyz
  'x, y, z'

loop_
  _atom_site_type_symbol
  _atom_site_label
  _atom_site_symmetry_multiplicity
  _atom_site_fract_x
  _atom_site_fract_y
  _atom_site_fract_z
  _atom_site_occupancy
  C   C1        1.0  0.06814  0.03094  0.33266  1.0000
  C   C2        1.0  0.95859  0.03689  0.32862  1.0000
  C   C3        1.0  0.95282  0.92159  0.32895  1.0000
  C   C4        1.0  0.93878  0.05791  0.32915  1.0000
  C   C5        1.0  0.95694  0.06552  0.28797  1.0000
  C   C6        1.0  0.96688  0.05520  0.28822  1.0000
  C   C7        1.0  0.09824  0.03081  0.30993  1.0000
  C   C8        1.0  0.07799  0.02103  0.31076  1.0000
  C   C9        1.0  0.93175  0.88077  0.32931  1.0000
  C   C10       1.0  0.92402  0.89136  0.28952  1.0000
  C   C11       1.0  0.93437  0.91160  0.28984  1.0000
  H   H1        1.0  0.96314  0.07872  0.25784  1.0000
  H   H2        1.0  0.98009  0.06115  0.25813  1.0000
  H   H3        1.0  0.07060  0.00672  0.29446  1.0000
  H   H4        1.0  0.10512  0.02343  0.29317  1.0000
  H   H5        1.0  0.91072  0.88438  0.26033  1.0000
  H   H6        1.0  0.92833  0.91889  0.26077  1.0000
  C   C12       1.0  0.98205  0.97623  0.32875  1.0000
  C   C13       1.0  0.00234  0.98542  0.32988  1.0000
  C   C14       1.0  0.01351  0.00570  0.33036  1.0000
  C   C15       1.0  0.00432  0.01679  0.32971  1.0000
  C   C16       1.0  0.98404  0.00769  0.32859  1.0000
  C   C17       1.0  0.97295  0.98741  0.32813  1.0000
  H   H7        1.0  0.01241  0.03155  0.33009  1.0000
  H   H8        1.0  0.00900  0.97733  0.33037  1.0000
  H   H9        1.0  0.95819  0.98075  0.32740  1.0000
  C   C18       1.0  0.96258  0.94033  0.32851  1.0000
  C   C19       1.0  0.97179  0.95750  0.32849  1.0000
  C   C20       1.0  0.96759  0.02715  0.32817  1.0000
  C   C21       1.0  0.97557  0.01795  0.32820  1.0000
  C   C22       1.0  0.03224  0.01415  0.33134  1.0000
  C   C23       1.0  0.04940  0.02205  0.33208  1.0000
  N   N1        1.0  0.92982  0.06802  0.32439  1.0000
  N   N2        1.0  0.92161  0.86170  0.32454  1.0000
  C   C24       1.0  0.48320  0.29675  0.28404  1.0000
  C   C25       1.0  0.49551  0.31680  0.28578  1.0000
  C   C26       1.0  0.34182  0.18257  0.32113  1.0000
  C   C27       1.0  0.32160  0.17202  0.31983  1.0000
  C   C28       1.0  0.31160  0.15202  0.33693  1.0000
  C   C29       1.0  0.46371  0.16301  0.29848  1.0000
  C   C30       1.0  0.47604  0.15527  0.29838  1.0000
  H   H10       1.0  0.50868  0.32251  0.25555  1.0000
  H   H11       1.0  0.34865  0.19703  0.30820  1.0000
  H   H12       1.0  0.31421  0.17908  0.30692  1.0000
  H   H13       1.0  0.45040  0.15529  0.26967  1.0000
  H   H14       1.0  0.47134  0.14208  0.27014  1.0000
  H   H15       1.0  0.48773  0.28839  0.25241  1.0000
  N   N3        1.0  0.29252  0.14164  0.33822  1.0000
  C   C31       1.0  0.69290  0.18644  0.28402  1.0000
  C   C32       1.0  0.67285  0.17869  0.28575  1.0000
  C   C33       1.0  0.80709  0.15926  0.32072  1.0000
  C   C34       1.0  0.81763  0.14958  0.31918  1.0000
  C   C35       1.0  0.83764  0.15958  0.33613  1.0000
  C   C36       1.0  0.82666  0.30069  0.29848  1.0000
  C   C37       1.0  0.83441  0.32077  0.29836  1.0000
  H   H16       1.0  0.66713  0.18614  0.25551  1.0000
  H   H17       1.0  0.79261  0.15163  0.30790  1.0000
  H   H18       1.0  0.81057  0.13514  0.30621  1.0000
  H   H19       1.0  0.83438  0.29509  0.26967  1.0000
  H   H20       1.0  0.84760  0.32925  0.27012  1.0000
  H   H21       1.0  0.70125  0.19932  0.25239  1.0000
  N   N4        1.0  0.84803  0.15089  0.33727  1.0000
  C   C38       1.0  0.80323  0.50643  0.28402  1.0000
  C   C39       1.0  0.81097  0.49412  0.28576  1.0000
  C   C40       1.0  0.83039  0.64777  0.32076  1.0000
  C   C41       1.0  0.84007  0.66799  0.31924  1.0000
  C   C42       1.0  0.83007  0.67800  0.33620  1.0000
  C   C43       1.0  0.68895  0.52592  0.29848  1.0000
  C   C44       1.0  0.66888  0.51359  0.29836  1.0000
  H   H22       1.0  0.80353  0.48095  0.25552  1.0000
  H   H23       1.0  0.83802  0.64093  0.30792  1.0000
  H   H24       1.0  0.85451  0.67537  0.30627  1.0000
  H   H25       1.0  0.69455  0.53923  0.26967  1.0000
  H   H26       1.0  0.66039  0.51829  0.27012  1.0000
  H   H27       1.0  0.79034  0.50189  0.25239  1.0000
  N   N5        1.0  0.83876  0.69708  0.33735  1.0000
  C   C45       1.0  0.18773  0.09289  0.25801  1.0000
  C   C46       1.0  0.16771  0.08342  0.27361  1.0000
  H   H28       1.0  0.15850  0.07935  0.22038  1.0000
  C   C47       1.0  0.22045  0.10908  0.31939  1.0000
  C   C48       1.0  0.26065  0.13046  0.29568  1.0000
  C   C49       1.0  0.24826  0.12400  0.22086  1.0000
  C   C50       1.0  0.22810  0.11322  0.23157  1.0000
  C   C51       1.0  0.21548  0.10689  0.15784  1.0000
  C   C52       1.0  0.19546  0.09677  0.17096  1.0000
  H   H29       1.0  0.22075  0.10980  0.09415  1.0000
  H   H30       1.0  0.18659  0.09256  0.11652  1.0000
  H   H31       1.0  0.25395  0.12737  0.15786  1.0000
  C   C53       1.0  0.28032  0.14209  0.28415  1.0000
  H   H32       1.0  0.28503  0.15086  0.23168  1.0000
  C   C54       1.0  0.89682  0.09487  0.25780  1.0000
  C   C55       1.0  0.90642  0.08445  0.27370  1.0000
  H   H33       1.0  0.91042  0.07922  0.22055  1.0000
  C   C56       1.0  0.88068  0.11148  0.31884  1.0000
  C   C57       1.0  0.85918  0.13017  0.29491  1.0000
  C   C58       1.0  0.86550  0.12406  0.22017  1.0000
  C   C59       1.0  0.87633  0.11474  0.23099  1.0000
  C   C60       1.0  0.88253  0.10828  0.15739  1.0000
  C   C61       1.0  0.89272  0.09845  0.17069  1.0000
  H   H34       1.0  0.87947  0.11046  0.09367  1.0000
  H   H35       1.0  0.89684  0.09368  0.11635  1.0000
  H   H36       1.0  0.86199  0.12622  0.15717  1.0000
  C   C62       1.0  0.84753  0.13818  0.28340  1.0000
  H   H37       1.0  0.83870  0.13406  0.23113  1.0000
  C   C63       1.0  0.89478  0.80188  0.25782  1.0000
  C   C64       1.0  0.90522  0.82189  0.27369  1.0000
  H   H38       1.0  0.91044  0.83112  0.22054  1.0000
  C   C65       1.0  0.87817  0.76913  0.31888  1.0000
  C   C66       1.0  0.85948  0.72895  0.29497  1.0000
  C   C67       1.0  0.86557  0.74136  0.22022  1.0000
  C   C68       1.0  0.87490  0.76152  0.23103  1.0000
  C   C69       1.0  0.88134  0.77417  0.15742  1.0000
  C   C70       1.0  0.89118  0.79419  0.17071  1.0000
  H   H39       1.0  0.87915  0.76893  0.09370  1.0000
  H   H40       1.0  0.89594  0.80308  0.11636  1.0000
  H   H41       1.0  0.86340  0.73570  0.15722  1.0000
  C   C71       1.0  0.85146  0.70929  0.28346  1.0000
  H   H42       1.0  0.85558  0.70457  0.23118  1.0000
  C   C72       1.0  0.52417  0.14375  0.31288  1.0000
  C   C73       1.0  0.53464  0.14230  0.24056  1.0000
  N   N6        1.0  0.55073  0.14123  0.25549  1.0000
  C   C74       1.0  0.55751  0.14109  0.33838  1.0000
  C   C75       1.0  0.60207  0.14093  0.28498  1.0000
  H   H43       1.0  0.53068  0.14265  0.17608  1.0000
  N   N7        1.0  0.58507  0.14059  0.27807  1.0000
  H   H44       1.0  0.60907  0.14109  0.22775  1.0000
  C   C76       1.0  0.50851  0.14615  0.29764  1.0000
  H   H45       1.0  0.49938  0.13878  0.24890  1.0000
  C   C77       1.0  0.84596  0.38042  0.31288  1.0000
  C   C78       1.0  0.84740  0.39233  0.24056  1.0000
  N   N8        1.0  0.84847  0.40949  0.25549  1.0000
  C   C79       1.0  0.84860  0.41641  0.33838  1.0000
  C   C80       1.0  0.84875  0.46112  0.28499  1.0000
  H   H46       1.0  0.84705  0.38802  0.17608  1.0000
  N   N9        1.0  0.84910  0.44446  0.27807  1.0000
  H   H47       1.0  0.84859  0.46795  0.22776  1.0000
  C   C81       1.0  0.84355  0.36236  0.29764  1.0000
  H   H48       1.0  0.85092  0.36059  0.24892  1.0000
  C   C82       1.0  0.60923  0.46548  0.31288  1.0000
  C   C83       1.0  0.59732  0.45500  0.24055  1.0000
  N   N10       1.0  0.58016  0.43891  0.25548  1.0000
  C   C84       1.0  0.57324  0.43214  0.33837  1.0000
  C   C85       1.0  0.52853  0.38758  0.28500  1.0000
  H   H49       1.0  0.60163  0.45896  0.17607  1.0000
  N   N11       1.0  0.54519  0.40458  0.27807  1.0000
  H   H50       1.0  0.52170  0.38057  0.22776  1.0000
  C   C86       1.0  0.62728  0.48113  0.29763  1.0000
  H   H51       1.0  0.62905  0.49027  0.24890  1.0000
  C   C87       1.0  0.94026  0.02903  0.36857  1.0000
  C   C88       1.0  0.93044  0.03945  0.36856  1.0000
  C   C89       1.0  0.07878  0.05070  0.35372  1.0000
  C   C90       1.0  0.09901  0.06038  0.35340  1.0000
  C   C91       1.0  0.10895  0.05047  0.33249  1.0000
  C   C92       1.0  0.96078  0.91110  0.36755  1.0000
  C   C93       1.0  0.95034  0.89087  0.36746  1.0000
  H   H52       1.0  0.91704  0.03332  0.39642  1.0000
  H   H53       1.0  0.07200  0.05829  0.36875  1.0000
  H   H54       1.0  0.10645  0.07478  0.36716  1.0000
  H   H55       1.0  0.97424  0.91799  0.39541  1.0000
  H   H56       1.0  0.95654  0.88356  0.39429  1.0000
  H   H57       1.0  0.93382  0.01568  0.39743  1.0000
  N   N12       1.0  0.12799  0.05924  0.32741  1.0000
  C   C94       1.0  0.35239  0.17326  0.34013  1.0000
  C   C95       1.0  0.46514  0.28838  0.32686  1.0000
  C   C96       1.0  0.46969  0.18113  0.33765  1.0000
  C   C97       1.0  0.49016  0.32884  0.33080  1.0000
  C   C98       1.0  0.47190  0.32041  0.37236  1.0000
  C   C99       1.0  0.45949  0.30035  0.37054  1.0000
  C   C100      1.0  0.32222  0.14288  0.35782  1.0000
  C   C101      1.0  0.34247  0.15334  0.35865  1.0000
  C   C102      1.0  0.49455  0.16551  0.33725  1.0000
  C   C103      1.0  0.50033  0.18351  0.37708  1.0000
  C   C104      1.0  0.48809  0.19134  0.37707  1.0000
  H   H58       1.0  0.46756  0.32875  0.40508  1.0000
  H   H59       1.0  0.44650  0.29462  0.40255  1.0000
  H   H60       1.0  0.34981  0.14627  0.37305  1.0000
  H   H61       1.0  0.31528  0.12846  0.37143  1.0000
  H   H62       1.0  0.51363  0.19118  0.40588  1.0000
  H   H63       1.0  0.49280  0.20452  0.40597  1.0000
  C   C105      1.0  0.43835  0.20424  0.33665  1.0000
  C   C106      1.0  0.41807  0.19325  0.33886  1.0000
  C   C107      1.0  0.40701  0.20248  0.33849  1.0000
  C   C108      1.0  0.41630  0.22277  0.33581  1.0000
  C   C109      1.0  0.43657  0.23382  0.33358  1.0000
  C   C110      1.0  0.44755  0.22451  0.33405  1.0000
  H   H64       1.0  0.40828  0.22951  0.33536  1.0000
  H   H65       1.0  0.41135  0.17850  0.34063  1.0000
  H   H66       1.0  0.46231  0.23252  0.33239  1.0000
  C   C111      1.0  0.45847  0.18851  0.33712  1.0000
  C   C112      1.0  0.44862  0.19578  0.33686  1.0000
  C   C113      1.0  0.45425  0.26973  0.32873  1.0000
  C   C114      1.0  0.44529  0.25256  0.33098  1.0000
  C   C115      1.0  0.38829  0.19229  0.33995  1.0000
  C   C116      1.0  0.37112  0.18305  0.34054  1.0000
  N   N13       1.0  0.50308  0.34748  0.33259  1.0000
  N   N14       1.0  0.50703  0.15925  0.34007  1.0000
  C   C117      1.0  0.81640  0.17913  0.33984  1.0000
  C   C118      1.0  0.70127  0.17675  0.32687  1.0000
  C   C119      1.0  0.80854  0.28857  0.33767  1.0000
  C   C120      1.0  0.66081  0.16130  0.33078  1.0000
  C   C121      1.0  0.66925  0.15148  0.37235  1.0000
  C   C122      1.0  0.68931  0.15914  0.37056  1.0000
  C   C123      1.0  0.84679  0.17934  0.35714  1.0000
  C   C124      1.0  0.83632  0.18912  0.35822  1.0000
  C   C125      1.0  0.82418  0.32904  0.33723  1.0000
  C   C126      1.0  0.80617  0.31683  0.37708  1.0000
  C   C127      1.0  0.79834  0.29676  0.37708  1.0000
  H   H67       1.0  0.66091  0.13880  0.40509  1.0000
  H   H68       1.0  0.69505  0.15188  0.40258  1.0000
  H   H69       1.0  0.84340  0.20352  0.37270  1.0000
  H   H70       1.0  0.86121  0.18681  0.37066  1.0000
  H   H71       1.0  0.79850  0.32246  0.40588  1.0000
  H   H72       1.0  0.78516  0.28829  0.40600  1.0000
  C   C128      1.0  0.78542  0.23412  0.33673  1.0000
  C   C129      1.0  0.79641  0.22482  0.33894  1.0000
  C   C130      1.0  0.78718  0.20454  0.33856  1.0000
  C   C131      1.0  0.76689  0.19354  0.33588  1.0000
  C   C132      1.0  0.75584  0.20276  0.33365  1.0000
  C   C133      1.0  0.76515  0.22305  0.33412  1.0000
  H   H73       1.0  0.76014  0.17878  0.33541  1.0000
  H   H74       1.0  0.81116  0.23286  0.34069  1.0000
  H   H75       1.0  0.75714  0.22980  0.33245  1.0000
  C   C134      1.0  0.80116  0.26996  0.33716  1.0000
  C   C135      1.0  0.79388  0.25284  0.33692  1.0000
  C   C136      1.0  0.71993  0.18453  0.32875  1.0000
  C   C137      1.0  0.73710  0.19274  0.33103  1.0000
  C   C138      1.0  0.79738  0.19601  0.33997  1.0000
  C   C139      1.0  0.80661  0.18807  0.34043  1.0000
  N   N15       1.0  0.64217  0.15558  0.33257  1.0000
  N   N16       1.0  0.83045  0.34778  0.34005  1.0000
  C   C140      1.0  0.81053  0.63722  0.33987  1.0000
  C   C141      1.0  0.81291  0.52448  0.32686  1.0000
  C   C142      1.0  0.70109  0.51993  0.33767  1.0000
  C   C143      1.0  0.82837  0.49948  0.33079  1.0000
  C   C144      1.0  0.83819  0.51774  0.37235  1.0000
  C   C145      1.0  0.83053  0.53014  0.37055  1.0000
  C   C146      1.0  0.81031  0.66739  0.35721  1.0000
  C   C147      1.0  0.80053  0.64715  0.35826  1.0000
  C   C148      1.0  0.66061  0.49508  0.33723  1.0000
  C   C149      1.0  0.67283  0.48930  0.37708  1.0000
  C   C150      1.0  0.69290  0.50154  0.37708  1.0000
  H   H76       1.0  0.85087  0.52208  0.40508  1.0000
  H   H77       1.0  0.83778  0.54313  0.40257  1.0000
  H   H78       1.0  0.78612  0.63982  0.37274  1.0000
  H   H79       1.0  0.80284  0.67435  0.37074  1.0000
  H   H80       1.0  0.66720  0.47600  0.40589  1.0000
  H   H81       1.0  0.70137  0.49683  0.40600  1.0000
  C   C151      1.0  0.75554  0.55127  0.33671  1.0000
  C   C152      1.0  0.76483  0.57154  0.33893  1.0000
  C   C153      1.0  0.78512  0.58260  0.33855  1.0000
  C   C154      1.0  0.79612  0.57331  0.33587  1.0000
  C   C155      1.0  0.78690  0.55304  0.33364  1.0000
  C   C156      1.0  0.76661  0.54207  0.33411  1.0000
  H   H82       1.0  0.81088  0.58132  0.33541  1.0000
  H   H83       1.0  0.75680  0.57826  0.34069  1.0000
  H   H84       1.0  0.75986  0.52730  0.33245  1.0000
  C   C157      1.0  0.71969  0.53116  0.33715  1.0000
  C   C158      1.0  0.73681  0.54100  0.33691  1.0000
  C   C159      1.0  0.80514  0.53536  0.32875  1.0000
  C   C160      1.0  0.79692  0.54432  0.33102  1.0000
  C   C161      1.0  0.79365  0.60132  0.33997  1.0000
  C   C162      1.0  0.80158  0.61849  0.34045  1.0000
  N   N17       1.0  0.83409  0.48656  0.33257  1.0000
  N   N18       1.0  0.64187  0.48261  0.34005  1.0000
  C   C163      1.0  0.16029  0.08016  0.36150  1.0000
  C   C164      1.0  0.17363  0.08655  0.43261  1.0000
  N   N19       1.0  0.19278  0.09556  0.41609  1.0000
  C   C165      1.0  0.20034  0.09901  0.33255  1.0000
  C   C166      1.0  0.25212  0.12562  0.38121  1.0000
  H   H85       1.0  0.16914  0.08472  0.49752  1.0000
  N   N20       1.0  0.23272  0.11541  0.38994  1.0000
  H   H86       1.0  0.26029  0.13017  0.43781  1.0000
  C   C167      1.0  0.14080  0.07212  0.37866  1.0000
  H   H87       1.0  0.13671  0.07644  0.43242  1.0000
  C   C168      1.0  0.90997  0.08060  0.36170  1.0000
  C   C169      1.0  0.90372  0.08775  0.43255  1.0000
  N   N21       1.0  0.89455  0.09773  0.41579  1.0000
  C   C170      1.0  0.89084  0.10153  0.33217  1.0000
  C   C171      1.0  0.86422  0.12670  0.38047  1.0000
  H   H88       1.0  0.90577  0.08537  0.49758  1.0000
  N   N22       1.0  0.87448  0.11757  0.38930  1.0000
  H   H89       1.0  0.85979  0.13047  0.43704  1.0000
  C   C172      1.0  0.91833  0.06943  0.37965  1.0000
  H   H90       1.0  0.91543  0.06246  0.43754  1.0000
  C   C173      1.0  0.90909  0.82930  0.36169  1.0000
  C   C174      1.0  0.90195  0.81590  0.43256  1.0000
  N   N23       1.0  0.89195  0.79675  0.41581  1.0000
  C   C175      1.0  0.88812  0.78923  0.33220  1.0000
  C   C176      1.0  0.86296  0.73745  0.38053  1.0000
  H   H91       1.0  0.90436  0.82033  0.49758  1.0000
  N   N24       1.0  0.87209  0.75685  0.38935  1.0000
  H   H92       1.0  0.85920  0.72927  0.43710  1.0000
  C   C177      1.0  0.92029  0.84881  0.37958  1.0000
  H   H93       1.0  0.92737  0.85289  0.43721  1.0000
  C   C178      1.0  0.54733  0.14199  0.41404  1.0000
  C   C179      1.0  0.53063  0.14331  0.40015  1.0000
  H   H94       1.0  0.52330  0.14426  0.45403  1.0000
  C   C180      1.0  0.57474  0.14065  0.34977  1.0000
  C   C181      1.0  0.61004  0.14151  0.36974  1.0000
  C   C182      1.0  0.59949  0.14120  0.44580  1.0000
  C   C183      1.0  0.58184  0.14094  0.43690  1.0000
  C   C184      1.0  0.57142  0.14141  0.51173  1.0000
  C   C185      1.0  0.55432  0.14197  0.50038  1.0000
  H   H95       1.0  0.57637  0.14172  0.57492  1.0000
  H   H96       1.0  0.54720  0.14267  0.55557  1.0000
  H   H97       1.0  0.60499  0.14184  0.50819  1.0000
  C   C186      1.0  0.62793  0.14315  0.37918  1.0000
  H   H98       1.0  0.63002  0.13598  0.42779  1.0000
  C   C187      1.0  0.84771  0.40533  0.41404  1.0000
  C   C188      1.0  0.84639  0.38732  0.40015  1.0000
  H   H99       1.0  0.84544  0.37904  0.45403  1.0000
  C   C189      1.0  0.84904  0.43408  0.34978  1.0000
  C   C190      1.0  0.84817  0.46851  0.36974  1.0000
  C   C191      1.0  0.84848  0.45826  0.44581  1.0000
  C   C192      1.0  0.84875  0.44088  0.43690  1.0000
  C   C193      1.0  0.84828  0.42999  0.51173  1.0000
  C   C194      1.0  0.84773  0.41234  0.50038  1.0000
  H   H100      1.0  0.84796  0.43463  0.57493  1.0000
  H   H101      1.0  0.84702  0.40452  0.55557  1.0000
  H   H102      1.0  0.84784  0.46313  0.50819  1.0000
  C   C195      1.0  0.84652  0.48475  0.37919  1.0000
  H   H103      1.0  0.85369  0.49401  0.42780  1.0000
  C   C196      1.0  0.58431  0.44232  0.41403  1.0000
  C   C197      1.0  0.60233  0.45902  0.40015  1.0000
  H   H104      1.0  0.61061  0.46635  0.45402  1.0000
  C   C198      1.0  0.55557  0.41490  0.34977  1.0000
  C   C199      1.0  0.52114  0.37961  0.36974  1.0000
  C   C200      1.0  0.53139  0.39016  0.44581  1.0000
  C   C201      1.0  0.54876  0.40781  0.43690  1.0000
  C   C202      1.0  0.55966  0.41823  0.51173  1.0000
  C   C203      1.0  0.57731  0.43533  0.50038  1.0000
  H   H105      1.0  0.55501  0.41328  0.57493  1.0000
  H   H106      1.0  0.58513  0.44245  0.55556  1.0000
  H   H107      1.0  0.52652  0.38466  0.50820  1.0000
  C   C204      1.0  0.50489  0.36172  0.37920  1.0000
  H   H108      1.0  0.49563  0.35963  0.42781  1.0000
