data_image0
_chemical_formula_structural       C18H17C2HC3N2HC2HC2N2HC3NC3NC5NC4NC35H25C2NC2HNCHC2NC3HNCH
_chemical_formula_sum              "C88 H50 N12"
_cell_length_a       34.1587
_cell_length_b       34.1584
_cell_length_c       14.8947
_cell_angle_alpha    90
_cell_angle_beta     90
_cell_angle_gamma    89.9371

_space_group_name_H-M_alt    "P 1"
_space_group_IT_number       1

loop_
  _space_group_symop_operation_xyz
  'x, y, z'

loop_
  _atom_site_type_symbol
  _atom_site_label
  _atom_site_symmetry_multiplicity
  _atom_site_fract_x
  _atom_site_fract_y
  _atom_site_fract_z
  _atom_site_occupancy
  C   C1        1.0  0.08508  0.04127  0.34123  1.0000
  C   C2        1.0  0.99965  0.21054  0.25960  1.0000
  C   C3        1.0  0.99958  0.16932  0.25949  1.0000
  C   C4        1.0  0.97734  0.29583  0.28214  1.0000
  C   C5        1.0  0.97760  0.33705  0.28214  1.0000
  C   C6        1.0  0.00211  0.35836  0.34115  1.0000
  C   C7        1.0  0.20800  0.00521  0.26044  1.0000
  C   C8        1.0  0.16678  0.00551  0.26011  1.0000
  C   C9        1.0  0.33441  0.02722  0.28405  1.0000
  C   C10       1.0  0.29318  0.02745  0.28384  1.0000
  C   C11       1.0  0.00318  0.83818  0.25978  1.0000
  C   C12       1.0  0.00344  0.79696  0.25995  1.0000
  C   C13       1.0  0.02669  0.67069  0.28319  1.0000
  C   C14       1.0  0.02655  0.71192  0.28315  1.0000
  C   C15       1.0  0.83549  0.00192  0.26016  1.0000
  C   C16       1.0  0.79427  0.00185  0.26056  1.0000
  C   C17       1.0  0.70934  0.97865  0.28387  1.0000
  C   C18       1.0  0.66811  0.97846  0.28408  1.0000
  H   H1        1.0  0.65396  0.95957  0.24184  1.0000
  H   H2        1.0  0.72354  0.95982  0.24151  1.0000
  H   H3        1.0  0.78004  0.00123  0.20016  1.0000
  H   H4        1.0  0.84999  0.00077  0.20010  1.0000
  H   H5        1.0  0.00432  0.85275  0.19977  1.0000
  H   H6        1.0  0.00421  0.78279  0.19947  1.0000
  H   H7        1.0  0.08041  0.13570  0.34107  1.0000
  H   H8        1.0  0.15227  0.00685  0.20005  1.0000
  H   H9        1.0  0.22222  0.00579  0.20001  1.0000
  H   H10       1.0  0.27916  0.04654  0.24176  1.0000
  H   H11       1.0  0.34875  0.04606  0.24201  1.0000
  H   H12       1.0  0.99860  0.15474  0.19948  1.0000
  H   H13       1.0  0.99925  0.22469  0.19908  1.0000
  H   H14       1.0  0.95892  0.35141  0.23967  1.0000
  H   H15       1.0  0.95841  0.28182  0.23974  1.0000
  H   H16       1.0  0.04554  0.72610  0.24120  1.0000
  H   H17       1.0  0.04569  0.65651  0.24115  1.0000
  C   C19       1.0  0.00268  0.54434  0.26164  1.0000
  C   C20       1.0  0.00273  0.58556  0.26058  1.0000
  H   H18       1.0  0.00232  0.59968  0.19998  1.0000
  C   C21       1.0  0.00228  0.40027  0.34135  1.0000
  C   C22       1.0  0.00232  0.42201  0.26029  1.0000
  C   C23       1.0  0.00249  0.46323  0.26150  1.0000
  N   N1        1.0  0.00273  0.48464  0.18462  1.0000
  N   N2        1.0  0.00282  0.52298  0.18468  1.0000
  H   H19       1.0  0.00294  0.40792  0.19967  1.0000
  C   C24       1.0  0.46060  0.00245  0.26315  1.0000
  C   C25       1.0  0.41938  0.00257  0.26194  1.0000
  H   H20       1.0  0.40530  0.00216  0.20129  1.0000
  C   C26       1.0  0.58292  0.00241  0.26215  1.0000
  C   C27       1.0  0.54170  0.00240  0.26325  1.0000
  N   N3        1.0  0.52034  0.00247  0.18631  1.0000
  N   N4        1.0  0.48200  0.00251  0.18626  1.0000
  H   H21       1.0  0.59702  0.00302  0.20154  1.0000
  C   C28       1.0  0.89972  0.07658  0.34119  1.0000
  C   C29       1.0  0.92828  0.10515  0.34116  1.0000
  C   C30       1.0  0.96485  0.08676  0.34107  1.0000
  N   N5        1.0  0.95705  0.04783  0.34120  1.0000
  C   C31       1.0  0.91812  0.04001  0.34131  1.0000
  C   C32       1.0  0.89838  0.00333  0.34137  1.0000
  C   C33       1.0  0.91721  0.96622  0.34133  1.0000
  N   N6        1.0  0.95606  0.95865  0.34131  1.0000
  C   C34       1.0  0.96365  0.91979  0.34132  1.0000
  C   C35       1.0  0.92724  0.90121  0.34130  1.0000
  C   C36       1.0  0.89864  0.92980  0.34144  1.0000
  C   C37       1.0  0.00075  0.90097  0.34124  1.0000
  C   C38       1.0  0.03743  0.92075  0.34124  1.0000
  N   N7        1.0  0.04522  0.95968  0.34128  1.0000
  C   C39       1.0  0.08415  0.96749  0.34138  1.0000
  C   C40       1.0  0.10256  0.93093  0.34134  1.0000
  C   C41       1.0  0.07400  0.90236  0.34138  1.0000
  C   C42       1.0  0.10391  0.00417  0.34135  1.0000
  N   N8        1.0  0.04622  0.04885  0.34117  1.0000
  C   C43       1.0  0.03863  0.08770  0.34115  1.0000
  C   C44       1.0  0.07505  0.10628  0.34113  1.0000
  C   C45       1.0  0.10365  0.07769  0.34132  1.0000
  C   C46       1.0  0.00153  0.10653  0.34104  1.0000
  C   C47       1.0  0.00119  0.14830  0.34100  1.0000
  C   C48       1.0  0.00286  0.16934  0.42246  1.0000
  C   C49       1.0  0.00297  0.21056  0.42223  1.0000
  C   C50       1.0  0.00142  0.23208  0.34089  1.0000
  C   C51       1.0  0.00169  0.27408  0.34087  1.0000
  C   C52       1.0  0.02643  0.33669  0.39995  1.0000
  C   C53       1.0  0.02627  0.29546  0.39967  1.0000
  C   C54       1.0  0.14568  0.00381  0.34149  1.0000
  C   C55       1.0  0.16664  0.00178  0.42303  1.0000
  C   C56       1.0  0.20786  0.00144  0.42302  1.0000
  C   C57       1.0  0.22946  0.00316  0.34182  1.0000
  C   C58       1.0  0.27145  0.00290  0.34203  1.0000
  C   C59       1.0  0.29285  0.97813  0.40051  1.0000
  C   C60       1.0  0.33407  0.97801  0.40103  1.0000
  C   C61       1.0  0.35572  0.00252  0.34272  1.0000
  C   C62       1.0  0.00112  0.85921  0.34123  1.0000
  C   C63       1.0  0.00158  0.77543  0.34124  1.0000
  C   C64       1.0  0.99953  0.79695  0.42252  1.0000
  C   C65       1.0  0.99933  0.83817  0.42269  1.0000
  C   C66       1.0  0.00174  0.73343  0.34129  1.0000
  C   C67       1.0  0.97710  0.71183  0.39953  1.0000
  C   C68       1.0  0.97734  0.67060  0.39987  1.0000
  C   C69       1.0  0.00212  0.64916  0.34163  1.0000
  C   C70       1.0  0.85660  0.00364  0.34152  1.0000
  C   C71       1.0  0.83565  0.00534  0.42312  1.0000
  C   C72       1.0  0.79443  0.00531  0.42317  1.0000
  C   C73       1.0  0.77282  0.00352  0.34199  1.0000
  C   C74       1.0  0.73082  0.00332  0.34228  1.0000
  C   C75       1.0  0.64655  0.00280  0.34307  1.0000
  C   C76       1.0  0.66796  0.02740  0.40165  1.0000
  C   C77       1.0  0.70918  0.02771  0.40112  1.0000
  H   H22       1.0  0.65368  0.04612  0.44414  1.0000
  H   H23       1.0  0.72327  0.04671  0.44321  1.0000
  H   H24       1.0  0.78033  0.00578  0.48374  1.0000
  H   H25       1.0  0.85027  0.00636  0.48304  1.0000
  H   H26       1.0  0.87031  0.08212  0.34117  1.0000
  H   H27       1.0  0.92272  0.13456  0.34117  1.0000
  H   H28       1.0  0.97694  0.02795  0.34121  1.0000
  H   H29       1.0  0.02534  0.97956  0.34123  1.0000
  H   H30       1.0  0.86921  0.92443  0.34152  1.0000
  H   H31       1.0  0.92188  0.87179  0.34121  1.0000
  H   H32       1.0  0.99798  0.85273  0.48268  1.0000
  H   H33       1.0  0.99890  0.78279  0.48301  1.0000
  H   H34       1.0  0.07956  0.87296  0.34148  1.0000
  H   H35       1.0  0.13196  0.92537  0.34132  1.0000
  H   H36       1.0  0.13307  0.08305  0.34146  1.0000
  H   H37       1.0  0.15202  0.00070  0.48298  1.0000
  H   H38       1.0  0.22197  0.00068  0.48357  1.0000
  H   H39       1.0  0.34817  0.95907  0.44334  1.0000
  H   H40       1.0  0.27857  0.95921  0.44247  1.0000
  H   H41       1.0  0.04507  0.28118  0.44196  1.0000
  H   H42       1.0  0.04524  0.35077  0.44253  1.0000
  H   H43       1.0  0.00356  0.22474  0.48271  1.0000
  H   H44       1.0  0.00395  0.15479  0.48249  1.0000
  H   H45       1.0  0.95799  0.72594  0.44140  1.0000
  H   H46       1.0  0.95846  0.65635  0.44197  1.0000
  C   C78       1.0  0.00225  0.60725  0.34171  1.0000
  C   C79       1.0  0.00187  0.58556  0.42284  1.0000
  N   N9        1.0  0.00207  0.54579  0.42203  1.0000
  C   C80       1.0  0.00238  0.52442  0.34510  1.0000
  C   C81       1.0  0.00239  0.48309  0.34504  1.0000
  H   H47       1.0  0.00213  0.59938  0.48368  1.0000
  N   N10       1.0  0.00226  0.46168  0.42189  1.0000
  C   C82       1.0  0.00236  0.42190  0.42257  1.0000
  H   H48       1.0  0.00169  0.40805  0.48335  1.0000
  C   C83       1.0  0.39763  0.00234  0.34298  1.0000
  C   C84       1.0  0.41926  0.00199  0.42420  1.0000
  N   N11       1.0  0.45904  0.00214  0.42353  1.0000
  C   C85       1.0  0.48046  0.00230  0.34669  1.0000
  C   C86       1.0  0.52180  0.00237  0.34674  1.0000
  C   C87       1.0  0.60463  0.00263  0.34324  1.0000
  H   H49       1.0  0.40540  0.00246  0.48498  1.0000
  N   N12       1.0  0.54318  0.00247  0.42364  1.0000
  C   C88       1.0  0.58296  0.00272  0.42441  1.0000
  H   H50       1.0  0.59679  0.00227  0.48522  1.0000
