data_image0
_chemical_formula_structural       C3H2C2H2C2H2CHCNCNCNC18H12CNCNCNC18H12C4NC2NH2C4NC2NH2C3NCNH
_chemical_formula_sum              "C66 H36 N12"
_cell_length_a       29.4785
_cell_length_b       29.4786
_cell_length_c       14.9506
_cell_angle_alpha    90
_cell_angle_beta     90
_cell_angle_gamma    120

_space_group_name_H-M_alt    "P 1"
_space_group_IT_number       1

loop_
  _space_group_symop_operation_xyz
  'x, y, z'

loop_
  _atom_site_type_symbol
  _atom_site_label
  _atom_site_symmetry_multiplicity
  _atom_site_fract_x
  _atom_site_fract_y
  _atom_site_fract_z
  _atom_site_occupancy
  C   C1        1.0  0.03003  0.51543  0.25681  1.0000
  C   C2        1.0  0.03035  0.51559  0.41981  1.0000
  C   C3        1.0  0.02998  0.51540  0.57975  1.0000
  H   H1        1.0  0.04942  0.52512  0.19686  1.0000
  H   H2        1.0  0.05058  0.52570  0.63829  1.0000
  C   C4        1.0  0.48870  0.51543  0.25682  1.0000
  C   C5        1.0  0.51626  0.48788  0.25681  1.0000
  H   H3        1.0  0.52595  0.47818  0.19686  1.0000
  H   H4        1.0  0.47901  0.52512  0.19686  1.0000
  C   C6        1.0  0.48870  0.97410  0.25682  1.0000
  C   C7        1.0  0.51626  0.02921  0.25682  1.0000
  H   H5        1.0  0.52595  0.04859  0.19686  1.0000
  H   H6        1.0  0.47901  0.95471  0.19686  1.0000
  C   C8        1.0  0.97492  0.48787  0.25682  1.0000
  H   H7        1.0  0.95554  0.47818  0.19686  1.0000
  C   C9        1.0  0.36286  0.72242  0.33640  1.0000
  N   N1        1.0  0.38824  0.69453  0.33639  1.0000
  C   C10       1.0  0.36286  0.64127  0.33639  1.0000
  N   N2        1.0  0.30960  0.61590  0.33639  1.0000
  C   C11       1.0  0.28171  0.64127  0.33640  1.0000
  N   N3        1.0  0.30960  0.69453  0.33639  1.0000
  C   C12       1.0  0.39084  0.61329  0.33630  1.0000
  C   C13       1.0  0.44640  0.64000  0.33633  1.0000
  C   C14       1.0  0.47405  0.61252  0.33641  1.0000
  C   C15       1.0  0.44685  0.55728  0.33625  1.0000
  C   C16       1.0  0.39161  0.53009  0.33641  1.0000
  C   C17       1.0  0.36413  0.55773  0.33632  1.0000
  C   C18       1.0  0.39084  0.77838  0.33630  1.0000
  C   C19       1.0  0.44640  0.80723  0.33632  1.0000
  C   C20       1.0  0.47404  0.86235  0.33641  1.0000
  C   C21       1.0  0.44685  0.89039  0.33625  1.0000
  C   C22       1.0  0.39161  0.86235  0.33641  1.0000
  C   C23       1.0  0.36413  0.80723  0.33633  1.0000
  C   C24       1.0  0.22575  0.61329  0.33630  1.0000
  C   C25       1.0  0.19690  0.64000  0.33633  1.0000
  C   C26       1.0  0.14178  0.61252  0.33641  1.0000
  C   C27       1.0  0.11374  0.55728  0.33625  1.0000
  C   C28       1.0  0.14178  0.53009  0.33641  1.0000
  C   C29       1.0  0.19690  0.55773  0.33633  1.0000
  H   H8        1.0  0.51415  0.88186  0.33684  1.0000
  H   H9        1.0  0.46767  0.78845  0.33651  1.0000
  H   H10       1.0  0.37102  0.88186  0.33684  1.0000
  H   H11       1.0  0.32409  0.78845  0.33650  1.0000
  H   H12       1.0  0.21568  0.68005  0.33651  1.0000
  H   H13       1.0  0.12227  0.63311  0.33684  1.0000
  H   H14       1.0  0.21568  0.53646  0.33651  1.0000
  H   H15       1.0  0.12227  0.48998  0.33684  1.0000
  H   H16       1.0  0.32409  0.53646  0.33650  1.0000
  H   H17       1.0  0.37101  0.48998  0.33684  1.0000
  H   H18       1.0  0.51415  0.63311  0.33684  1.0000
  H   H19       1.0  0.46767  0.68005  0.33650  1.0000
  C   C30       1.0  0.64209  0.28088  0.33639  1.0000
  N   N4        1.0  0.61672  0.30877  0.33639  1.0000
  C   C31       1.0  0.64209  0.36204  0.33640  1.0000
  N   N5        1.0  0.69536  0.38741  0.33639  1.0000
  C   C32       1.0  0.72325  0.36204  0.33639  1.0000
  N   N6        1.0  0.69536  0.30877  0.33639  1.0000
  C   C33       1.0  0.61411  0.39002  0.33630  1.0000
  C   C34       1.0  0.55855  0.36330  0.33633  1.0000
  C   C35       1.0  0.53091  0.39079  0.33641  1.0000
  C   C36       1.0  0.55811  0.44602  0.33625  1.0000
  C   C37       1.0  0.61334  0.47322  0.33641  1.0000
  C   C38       1.0  0.64083  0.44558  0.33633  1.0000
  C   C39       1.0  0.61411  0.22492  0.33630  1.0000
  C   C40       1.0  0.55855  0.19608  0.33633  1.0000
  C   C41       1.0  0.53091  0.14095  0.33641  1.0000
  C   C42       1.0  0.55811  0.11292  0.33625  1.0000
  C   C43       1.0  0.61334  0.14095  0.33641  1.0000
  C   C44       1.0  0.64083  0.19608  0.33632  1.0000
  C   C45       1.0  0.77921  0.39002  0.33630  1.0000
  C   C46       1.0  0.80805  0.36330  0.33633  1.0000
  C   C47       1.0  0.86318  0.39079  0.33641  1.0000
  C   C48       1.0  0.89122  0.44602  0.33625  1.0000
  C   C49       1.0  0.86318  0.47322  0.33640  1.0000
  C   C50       1.0  0.80805  0.44558  0.33632  1.0000
  H   H20       1.0  0.49081  0.12145  0.33684  1.0000
  H   H21       1.0  0.53729  0.21486  0.33650  1.0000
  H   H22       1.0  0.63394  0.12145  0.33684  1.0000
  H   H23       1.0  0.68087  0.21486  0.33650  1.0000
  H   H24       1.0  0.78927  0.32326  0.33650  1.0000
  H   H25       1.0  0.88268  0.37019  0.33684  1.0000
  H   H26       1.0  0.78927  0.46684  0.33650  1.0000
  H   H27       1.0  0.88268  0.51332  0.33684  1.0000
  H   H28       1.0  0.68087  0.46684  0.33651  1.0000
  H   H29       1.0  0.63394  0.51332  0.33684  1.0000
  H   H30       1.0  0.49081  0.37019  0.33684  1.0000
  H   H31       1.0  0.53729  0.32326  0.33651  1.0000
  C   C51       1.0  0.53038  0.47375  0.33803  1.0000
  C   C52       1.0  0.51642  0.48772  0.41981  1.0000
  C   C53       1.0  0.48854  0.51559  0.41981  1.0000
  C   C54       1.0  0.47458  0.52955  0.33803  1.0000
  N   N7        1.0  0.47597  0.52816  0.50019  1.0000
  C   C55       1.0  0.48873  0.51540  0.57975  1.0000
  C   C56       1.0  0.51623  0.48790  0.57975  1.0000
  N   N8        1.0  0.52898  0.47515  0.50019  1.0000
  H   H32       1.0  0.47843  0.52570  0.63829  1.0000
  H   H33       1.0  0.52653  0.47760  0.63829  1.0000
  C   C57       1.0  0.53038  0.05746  0.33803  1.0000
  C   C58       1.0  0.51642  0.02953  0.41981  1.0000
  C   C59       1.0  0.48854  0.97378  0.41981  1.0000
  C   C60       1.0  0.47458  0.94585  0.33803  1.0000
  N   N9        1.0  0.47597  0.94864  0.50019  1.0000
  C   C61       1.0  0.48873  0.97415  0.57975  1.0000
  C   C62       1.0  0.51623  0.02915  0.57975  1.0000
  N   N10       1.0  0.52899  0.05466  0.50019  1.0000
  H   H34       1.0  0.47843  0.95355  0.63829  1.0000
  H   H35       1.0  0.52653  0.04975  0.63829  1.0000
  C   C63       1.0  0.94668  0.47375  0.33803  1.0000
  C   C64       1.0  0.97460  0.48772  0.41981  1.0000
  C   C65       1.0  0.05828  0.52955  0.33803  1.0000
  N   N11       1.0  0.05549  0.52816  0.50019  1.0000
  C   C66       1.0  0.97498  0.48790  0.57975  1.0000
  N   N12       1.0  0.94947  0.47515  0.50019  1.0000
  H   H36       1.0  0.95438  0.47760  0.63829  1.0000
