data_image0
_chemical_formula_structural       C15HOHNHC3HOHNHC3HOHNHC3HOHNHC3HOHNHC3HOHNHC3H2NHC3H2NHC3H2NHC3H2NHC3H2NHC3H2NHC3HOHNHC3HOHNHC3HOHNHC3HOHNHC3HOHNHC3HOHNHC5H3C2O3C5H3C2O3C5H3C2O3C5H3C2O3C5H3C2O3C5H3C2O3C6H3C3O3C6H3C3O3C6H3C3O3C6H3C3O3C6H3C3O3C6H3C3O3C3H2NHC3H2NHC3H2NHC3H2NHC3H2NHC3H2NHC3HOHNHC3HOHNHC3HOHNHC3HOHNHC3HOHNHC3HOHNHC3H2NHC3H2NHC3H2NHC3H2NHC3H2NHC3H2NH
_chemical_formula_sum              "C216 H144 O54 N36"
_cell_length_a       58.9571
_cell_length_b       58.9572
_cell_length_c       15.0568
_cell_angle_alpha    90
_cell_angle_beta     90
_cell_angle_gamma    120

_space_group_name_H-M_alt    "P 1"
_space_group_IT_number       1

loop_
  _space_group_symop_operation_xyz
  'x, y, z'

loop_
  _atom_site_type_symbol
  _atom_site_label
  _atom_site_symmetry_multiplicity
  _atom_site_fract_x
  _atom_site_fract_y
  _atom_site_fract_z
  _atom_site_occupancy
  C   C1        1.0  0.09889  0.44441  0.28528  1.0000
  C   C2        1.0  0.07376  0.42213  0.29776  1.0000
  C   C3        1.0  0.57002  0.67268  0.28191  1.0000
  C   C4        1.0  0.59231  0.66982  0.29396  1.0000
  C   C5        1.0  0.34167  0.91523  0.28232  1.0000
  C   C6        1.0  0.34436  0.94029  0.29527  1.0000
  C   C7        1.0  0.90811  0.57709  0.28208  1.0000
  C   C8        1.0  0.93322  0.59942  0.29460  1.0000
  C   C9        1.0  0.43702  0.34882  0.28512  1.0000
  C   C10       1.0  0.41465  0.35153  0.29785  1.0000
  C   C11       1.0  0.66534  0.10547  0.28020  1.0000
  C   C12       1.0  0.66284  0.08046  0.29230  1.0000
  C   C13       1.0  0.24004  0.43965  0.30973  1.0000
  C   C14       1.0  0.23107  0.44072  0.22339  1.0000
  C   C15       1.0  0.20692  0.43985  0.21240  1.0000
  H   H1        1.0  0.20083  0.44111  0.14986  1.0000
  O   O1        1.0  0.24566  0.44325  0.15009  1.0000
  H   H2        1.0  0.25824  0.46207  0.14384  1.0000
  N   N1        1.0  0.26387  0.44164  0.32189  1.0000
  H   H3        1.0  0.26831  0.43134  0.28220  1.0000
  C   C16       1.0  0.57496  0.81854  0.31382  1.0000
  C   C17       1.0  0.57393  0.80881  0.22700  1.0000
  C   C18       1.0  0.57475  0.78554  0.21483  1.0000
  H   H4        1.0  0.57353  0.77842  0.15195  1.0000
  O   O2        1.0  0.57153  0.82117  0.15432  1.0000
  H   H5        1.0  0.55273  0.81507  0.14817  1.0000
  N   N2        1.0  0.57307  0.84041  0.32706  1.0000
  H   H6        1.0  0.58334  0.85519  0.28753  1.0000
  C   C19       1.0  0.19558  0.77443  0.31193  1.0000
  C   C20       1.0  0.20564  0.78313  0.22543  1.0000
  C   C21       1.0  0.22909  0.80710  0.21396  1.0000
  H   H7        1.0  0.23642  0.81298  0.15131  1.0000
  O   O3        1.0  0.19343  0.76845  0.15245  1.0000
  H   H8        1.0  0.19945  0.75568  0.14664  1.0000
  N   N3        1.0  0.17361  0.75073  0.32466  1.0000
  H   H9        1.0  0.15892  0.74625  0.28473  1.0000
  C   C22       1.0  0.76751  0.58280  0.31645  1.0000
  C   C23       1.0  0.77621  0.58154  0.22986  1.0000
  C   C24       1.0  0.80012  0.58194  0.21826  1.0000
  H   H10       1.0  0.80602  0.58059  0.15552  1.0000
  O   O4        1.0  0.76160  0.57927  0.15690  1.0000
  H   H11       1.0  0.74874  0.56052  0.15080  1.0000
  N   N4        1.0  0.74384  0.58114  0.32922  1.0000
  H   H12       1.0  0.73945  0.59141  0.28928  1.0000
  C   C25       1.0  0.43206  0.20277  0.31319  1.0000
  C   C26       1.0  0.43324  0.21289  0.22693  1.0000
  C   C27       1.0  0.43267  0.23634  0.21615  1.0000
  H   H13       1.0  0.43396  0.24371  0.15364  1.0000
  O   O5        1.0  0.43557  0.20075  0.15352  1.0000
  H   H14       1.0  0.45435  0.20683  0.14703  1.0000
  N   N5        1.0  0.43383  0.18080  0.32516  1.0000
  H   H15       1.0  0.42339  0.16607  0.28563  1.0000
  C   C28       1.0  0.81106  0.24682  0.31473  1.0000
  C   C29       1.0  0.80102  0.23803  0.22827  1.0000
  C   C30       1.0  0.77756  0.21406  0.21694  1.0000
  H   H16       1.0  0.77028  0.20810  0.15428  1.0000
  O   O6        1.0  0.81326  0.25262  0.15516  1.0000
  H   H17       1.0  0.80727  0.26540  0.14902  1.0000
  N   N6        1.0  0.83302  0.27053  0.32716  1.0000
  H   H18       1.0  0.84772  0.27487  0.28741  1.0000
  C   C31       1.0  0.15412  0.56363  0.31866  1.0000
  C   C32       1.0  0.15308  0.57938  0.24996  1.0000
  C   C33       1.0  0.15281  0.60254  0.26978  1.0000
  H   H19       1.0  0.15135  0.61323  0.21878  1.0000
  H   H20       1.0  0.15128  0.57343  0.18519  1.0000
  N   N7        1.0  0.15209  0.53999  0.29856  1.0000
  H   H21       1.0  0.16109  0.53936  0.24507  1.0000
  C   C34       1.0  0.45088  0.60876  0.31771  1.0000
  C   C35       1.0  0.43508  0.59188  0.24924  1.0000
  C   C36       1.0  0.41198  0.56844  0.26942  1.0000
  H   H22       1.0  0.40126  0.55625  0.21859  1.0000
  H   H23       1.0  0.44096  0.59600  0.18439  1.0000
  N   N8        1.0  0.47447  0.63037  0.29728  1.0000
  H   H24       1.0  0.47501  0.64001  0.24392  1.0000
  C   C37       1.0  0.40573  0.86004  0.31746  1.0000
  C   C38       1.0  0.42260  0.86091  0.24929  1.0000
  C   C39       1.0  0.44596  0.86113  0.26991  1.0000
  H   H25       1.0  0.45817  0.86250  0.21929  1.0000
  H   H26       1.0  0.41858  0.86267  0.18433  1.0000
  N   N9        1.0  0.38422  0.86214  0.29659  1.0000
  H   H27       1.0  0.37461  0.85305  0.24316  1.0000
  C   C40       1.0  0.85269  0.45774  0.31609  1.0000
  C   C41       1.0  0.85317  0.44164  0.24755  1.0000
  C   C42       1.0  0.85328  0.41841  0.26769  1.0000
  H   H28       1.0  0.85440  0.40750  0.21681  1.0000
  H   H29       1.0  0.85474  0.44740  0.18263  1.0000
  N   N10       1.0  0.85487  0.48142  0.29563  1.0000
  H   H30       1.0  0.84559  0.48197  0.24279  1.0000
  C   C43       1.0  0.55647  0.41309  0.31675  1.0000
  C   C44       1.0  0.57261  0.42953  0.24799  1.0000
  C   C45       1.0  0.59592  0.45281  0.26782  1.0000
  H   H31       1.0  0.60685  0.46476  0.21678  1.0000
  H   H32       1.0  0.56682  0.42528  0.18312  1.0000
  N   N11       1.0  0.53271  0.39169  0.29644  1.0000
  H   H33       1.0  0.53209  0.38176  0.24373  1.0000
  C   C46       1.0  0.60024  0.15960  0.31555  1.0000
  C   C47       1.0  0.58347  0.15896  0.24739  1.0000
  C   C48       1.0  0.56014  0.15878  0.26804  1.0000
  H   H34       1.0  0.54802  0.15764  0.21741  1.0000
  H   H35       1.0  0.58757  0.15737  0.18236  1.0000
  N   N12       1.0  0.62178  0.15759  0.29452  1.0000
  H   H36       1.0  0.63155  0.16690  0.24160  1.0000
  C   C49       1.0  0.02720  0.40495  0.30969  1.0000
  C   C50       1.0  0.00528  0.39419  0.25220  1.0000
  C   C51       1.0  0.97985  0.37964  0.28741  1.0000
  H   H37       1.0  0.96424  0.37347  0.24526  1.0000
  O   O7        1.0  0.00805  0.39904  0.16335  1.0000
  H   H38       1.0  0.01370  0.38728  0.13809  1.0000
  N   N13       1.0  0.05143  0.42243  0.27795  1.0000
  H   H39       1.0  0.05270  0.43673  0.24155  1.0000
  C   C52       1.0  0.60925  0.64027  0.30685  1.0000
  C   C53       1.0  0.62003  0.62898  0.25000  1.0000
  C   C54       1.0  0.63443  0.61803  0.28596  1.0000
  H   H40       1.0  0.64059  0.60849  0.24427  1.0000
  O   O8        1.0  0.61532  0.62682  0.16105  1.0000
  H   H41       1.0  0.62718  0.64420  0.13568  1.0000
  N   N14       1.0  0.59194  0.64714  0.27435  1.0000
  H   H42       1.0  0.57762  0.63410  0.23808  1.0000
  C   C55       1.0  0.37355  0.98684  0.30945  1.0000
  C   C56       1.0  0.38508  0.00900  0.25305  1.0000
  C   C57       1.0  0.39566  0.03427  0.28930  1.0000
  H   H43       1.0  0.40541  0.05006  0.24807  1.0000
  O   O9        1.0  0.38787  0.00663  0.16439  1.0000
  H   H44       1.0  0.37065  0.00107  0.13760  1.0000
  N   N15       1.0  0.36704  0.96275  0.27694  1.0000
  H   H45       1.0  0.38026  0.96167  0.24105  1.0000
  C   C58       1.0  0.97978  0.61666  0.30767  1.0000
  C   C59       1.0  0.00186  0.62743  0.25093  1.0000
  C   C60       1.0  0.02718  0.64200  0.28692  1.0000
  H   H46       1.0  0.04292  0.64815  0.24535  1.0000
  O   O10       1.0  0.99936  0.62255  0.16208  1.0000
  H   H47       1.0  0.99381  0.63432  0.13622  1.0000
  N   N16       1.0  0.95562  0.59921  0.27522  1.0000
  H   H48       1.0  0.95446  0.58498  0.23869  1.0000
  C   C61       1.0  0.39719  0.38070  0.30939  1.0000
  C   C62       1.0  0.38641  0.39184  0.25198  1.0000
  C   C63       1.0  0.37187  0.40273  0.28724  1.0000
  H   H49       1.0  0.36573  0.41220  0.24512  1.0000
  O   O11       1.0  0.39129  0.39400  0.16314  1.0000
  H   H50       1.0  0.37960  0.37659  0.13776  1.0000
  N   N17       1.0  0.41475  0.37404  0.27769  1.0000
  H   H51       1.0  0.42894  0.38704  0.24086  1.0000
  C   C64       1.0  0.63362  0.03392  0.30593  1.0000
  C   C65       1.0  0.62231  0.01165  0.25000  1.0000
  C   C66       1.0  0.61134  0.98643  0.28701  1.0000
  H   H52       1.0  0.60177  0.97058  0.24593  1.0000
  O   O12       1.0  0.62012  0.01389  0.16088  1.0000
  H   H53       1.0  0.63748  0.01932  0.13561  1.0000
  N   N18       1.0  0.64038  0.05797  0.27240  1.0000
  H   H54       1.0  0.62726  0.05905  0.23590  1.0000
  C   C67       1.0  0.14606  0.46310  0.25760  1.0000
  C   C68       1.0  0.14998  0.48824  0.27838  1.0000
  C   C69       1.0  0.12897  0.49191  0.30431  1.0000
  C   C70       1.0  0.10356  0.46968  0.30735  1.0000
  C   C71       1.0  0.12032  0.44145  0.26058  1.0000
  H   H55       1.0  0.08822  0.47179  0.32876  1.0000
  H   H56       1.0  0.11708  0.42313  0.24522  1.0000
  H   H57       1.0  0.16869  0.50381  0.28094  1.0000
  C   C72       1.0  0.16774  0.45930  0.24205  1.0000
  C   C73       1.0  0.13325  0.51679  0.33348  1.0000
  O   O13       1.0  0.07236  0.40079  0.33717  1.0000
  O   O14       1.0  0.18949  0.47933  0.20478  1.0000
  O   O15       1.0  0.11637  0.51688  0.39452  1.0000
  C   C74       1.0  0.55134  0.70125  0.25605  1.0000
  C   C75       1.0  0.52621  0.68001  0.27674  1.0000
  C   C76       1.0  0.52255  0.65528  0.30196  1.0000
  C   C77       1.0  0.54477  0.65206  0.30411  1.0000
  C   C78       1.0  0.57298  0.69713  0.25807  1.0000
  H   H58       1.0  0.54267  0.63458  0.32510  1.0000
  H   H59       1.0  0.59129  0.71225  0.24282  1.0000
  H   H60       1.0  0.51066  0.68318  0.28016  1.0000
  C   C79       1.0  0.55514  0.72678  0.24180  1.0000
  C   C80       1.0  0.49774  0.63469  0.33151  1.0000
  O   O16       1.0  0.61368  0.68973  0.33331  1.0000
  O   O17       1.0  0.53520  0.72869  0.20480  1.0000
  O   O18       1.0  0.49774  0.61771  0.39229  1.0000
  C   C81       1.0  0.31330  0.86802  0.25507  1.0000
  C   C82       1.0  0.33458  0.86418  0.27559  1.0000
  C   C83       1.0  0.35924  0.88526  0.30136  1.0000
  C   C84       1.0  0.36234  0.91065  0.30429  1.0000
  C   C85       1.0  0.31730  0.89373  0.25781  1.0000
  H   H61       1.0  0.37975  0.92601  0.32577  1.0000
  H   H62       1.0  0.30213  0.89686  0.24277  1.0000
  H   H63       1.0  0.33147  0.84549  0.27853  1.0000
  C   C86       1.0  0.28779  0.84628  0.24057  1.0000
  C   C87       1.0  0.37987  0.88107  0.33081  1.0000
  O   O19       1.0  0.32419  0.94149  0.33359  1.0000
  O   O20       1.0  0.28596  0.82453  0.20292  1.0000
  O   O21       1.0  0.39682  0.89803  0.39171  1.0000
  C   C88       1.0  0.86082  0.55833  0.25689  1.0000
  C   C89       1.0  0.85702  0.53318  0.27642  1.0000
  C   C90       1.0  0.87817  0.52953  0.30069  1.0000
  C   C91       1.0  0.90358  0.55179  0.30307  1.0000
  C   C92       1.0  0.88655  0.58002  0.25911  1.0000
  H   H64       1.0  0.91900  0.54969  0.32350  1.0000
  H   H65       1.0  0.88964  0.59835  0.24480  1.0000
  H   H66       1.0  0.83832  0.51760  0.27977  1.0000
  C   C93       1.0  0.83905  0.56213  0.24374  1.0000
  C   C94       1.0  0.87403  0.50466  0.32930  1.0000
  O   O22       1.0  0.93454  0.62072  0.33409  1.0000
  O   O23       1.0  0.81726  0.54234  0.20590  1.0000
  O   O24       1.0  0.89117  0.50457  0.38922  1.0000
  C   C95       1.0  0.45590  0.32047  0.25833  1.0000
  C   C96       1.0  0.48103  0.34186  0.27789  1.0000
  C   C97       1.0  0.48462  0.36659  0.30286  1.0000
  C   C98       1.0  0.46230  0.36962  0.30600  1.0000
  C   C99       1.0  0.43415  0.32440  0.26139  1.0000
  H   H67       1.0  0.46434  0.38709  0.32683  1.0000
  H   H68       1.0  0.41583  0.30917  0.24693  1.0000
  H   H69       1.0  0.49667  0.33883  0.28058  1.0000
  C   C100      1.0  0.45221  0.29499  0.24401  1.0000
  C   C101      1.0  0.50950  0.38737  0.33116  1.0000
  O   O25       1.0  0.39344  0.33158  0.33771  1.0000
  O   O26       1.0  0.47209  0.29321  0.20583  1.0000
  O   O27       1.0  0.50963  0.40456  0.39132  1.0000
  C   C102      1.0  0.69346  0.15284  0.25580  1.0000
  C   C103      1.0  0.67191  0.15632  0.27541  1.0000
  C   C104      1.0  0.64724  0.13497  0.29954  1.0000
  C   C105      1.0  0.64439  0.10968  0.30146  1.0000
  C   C106      1.0  0.68973  0.12723  0.25755  1.0000
  H   H70       1.0  0.62695  0.09412  0.32182  1.0000
  H   H71       1.0  0.70511  0.12437  0.24314  1.0000
  H   H72       1.0  0.67481  0.17493  0.27919  1.0000
  C   C107      1.0  0.71892  0.17481  0.24287  1.0000
  C   C108      1.0  0.62633  0.13877  0.32853  1.0000
  O   O28       1.0  0.68285  0.07931  0.33223  1.0000
  O   O29       1.0  0.72068  0.19652  0.20521  1.0000
  O   O30       1.0  0.60935  0.12158  0.38887  1.0000
  C   C109      1.0  0.45464  0.15721  0.38222  1.0000
  C   C110      1.0  0.47935  0.15888  0.37532  1.0000
  C   C111      1.0  0.48163  0.13613  0.37202  1.0000
  C   C112      1.0  0.45848  0.11149  0.37927  1.0000
  C   C113      1.0  0.43355  0.10922  0.38864  1.0000
  C   C114      1.0  0.43195  0.13228  0.38911  1.0000
  H   H73       1.0  0.45968  0.09481  0.37356  1.0000
  H   H74       1.0  0.41394  0.13087  0.39410  1.0000
  H   H75       1.0  0.49561  0.17683  0.36499  1.0000
  C   C115      1.0  0.45241  0.18001  0.37686  1.0000
  C   C116      1.0  0.41041  0.08435  0.38438  1.0000
  C   C117      1.0  0.50603  0.13763  0.35244  1.0000
  O   O31       1.0  0.39085  0.08205  0.33099  1.0000
  O   O32       1.0  0.47127  0.20209  0.41635  1.0000
  O   O33       1.0  0.50528  0.11739  0.30700  1.0000
  C   C118      1.0  0.69914  0.55949  0.38378  1.0000
  C   C119      1.0  0.67640  0.53457  0.37583  1.0000
  C   C120      1.0  0.65117  0.53179  0.37097  1.0000
  C   C121      1.0  0.64918  0.55469  0.37733  1.0000
  C   C122      1.0  0.67152  0.57982  0.38735  1.0000
  C   C123      1.0  0.69638  0.58189  0.38970  1.0000
  H   H76       1.0  0.63118  0.55315  0.37044  1.0000
  H   H77       1.0  0.71274  0.60004  0.39527  1.0000
  H   H78       1.0  0.67847  0.51850  0.36641  1.0000
  C   C124      1.0  0.72440  0.56221  0.37981  1.0000
  C   C125      1.0  0.66934  0.60269  0.38186  1.0000
  C   C126      1.0  0.62860  0.50719  0.35084  1.0000
  O   O34       1.0  0.68670  0.62241  0.32920  1.0000
  O   O35       1.0  0.72780  0.54342  0.41902  1.0000
  O   O36       1.0  0.60902  0.50758  0.30474  1.0000
  C   C127      1.0  0.85634  0.31509  0.38287  1.0000
  C   C128      1.0  0.85429  0.33791  0.37540  1.0000
  C   C129      1.0  0.87682  0.36310  0.37102  1.0000
  C   C130      1.0  0.90164  0.36494  0.37732  1.0000
  C   C131      1.0  0.90430  0.34252  0.38697  1.0000
  C   C132      1.0  0.88144  0.31771  0.38876  1.0000
  H   H79       1.0  0.91816  0.38292  0.37095  1.0000
  H   H80       1.0  0.88313  0.30128  0.39403  1.0000
  H   H81       1.0  0.83619  0.33594  0.36598  1.0000
  C   C133      1.0  0.83372  0.28990  0.37863  1.0000
  C   C134      1.0  0.92931  0.34460  0.38180  1.0000
  C   C135      1.0  0.87492  0.38576  0.35121  1.0000
  O   O37       1.0  0.93171  0.32737  0.32858  1.0000
  O   O38       1.0  0.81159  0.28655  0.41818  1.0000
  O   O39       1.0  0.89495  0.40535  0.30539  1.0000
  C   C136      1.0  0.55191  0.86355  0.38481  1.0000
  C   C137      1.0  0.52709  0.86163  0.37778  1.0000
  C   C138      1.0  0.52456  0.88424  0.37404  1.0000
  C   C139      1.0  0.54761  0.90900  0.38065  1.0000
  C   C140      1.0  0.57265  0.91154  0.39007  1.0000
  C   C141      1.0  0.57445  0.88859  0.39130  1.0000
  H   H82       1.0  0.54623  0.92557  0.37449  1.0000
  H   H83       1.0  0.59254  0.89017  0.39626  1.0000
  H   H84       1.0  0.51092  0.84359  0.36780  1.0000
  C   C142      1.0  0.55443  0.84092  0.37920  1.0000
  C   C143      1.0  0.59568  0.93647  0.38454  1.0000
  C   C144      1.0  0.50005  0.88249  0.35439  1.0000
  O   O40       1.0  0.61554  0.93862  0.33314  1.0000
  O   O41       1.0  0.53568  0.81869  0.41831  1.0000
  O   O42       1.0  0.50060  0.90265  0.30912  1.0000
  C   C145      1.0  0.30815  0.46251  0.38003  1.0000
  C   C146      1.0  0.33113  0.48730  0.37407  1.0000
  C   C147      1.0  0.35623  0.48973  0.37128  1.0000
  C   C148      1.0  0.35782  0.46662  0.37783  1.0000
  C   C149      1.0  0.33522  0.44160  0.38620  1.0000
  C   C150      1.0  0.31050  0.43989  0.38634  1.0000
  H   H85       1.0  0.37576  0.46793  0.37255  1.0000
  H   H86       1.0  0.29395  0.42183  0.39068  1.0000
  H   H87       1.0  0.32935  0.50353  0.36430  1.0000
  C   C151      1.0  0.28306  0.46014  0.37431  1.0000
  C   C152      1.0  0.33707  0.41853  0.38125  1.0000
  C   C153      1.0  0.37912  0.51425  0.35278  1.0000
  O   O43       1.0  0.31979  0.39897  0.32792  1.0000
  O   O44       1.0  0.27965  0.47887  0.41395  1.0000
  O   O45       1.0  0.39884  0.51373  0.30814  1.0000
  C   C154      1.0  0.15037  0.70631  0.38161  1.0000
  C   C155      1.0  0.15230  0.68341  0.37504  1.0000
  C   C156      1.0  0.12970  0.65825  0.37170  1.0000
  C   C157      1.0  0.10495  0.65653  0.37829  1.0000
  C   C158      1.0  0.10239  0.67903  0.38724  1.0000
  C   C159      1.0  0.12532  0.70381  0.38796  1.0000
  H   H88       1.0  0.08838  0.63856  0.37262  1.0000
  H   H89       1.0  0.12372  0.72030  0.39271  1.0000
  H   H90       1.0  0.17035  0.68529  0.36524  1.0000
  C   C160      1.0  0.17302  0.73146  0.37637  1.0000
  C   C161      1.0  0.07743  0.67707  0.38228  1.0000
  C   C162      1.0  0.13148  0.63547  0.35275  1.0000
  O   O46       1.0  0.07508  0.69435  0.32919  1.0000
  O   O47       1.0  0.19518  0.73487  0.41582  1.0000
  O   O48       1.0  0.11129  0.61573  0.30799  1.0000
  C   C163      1.0  0.19141  0.43786  0.28677  1.0000
  C   C164      1.0  0.19978  0.43529  0.37217  1.0000
  C   C165      1.0  0.22390  0.43635  0.38359  1.0000
  H   H91       1.0  0.22980  0.43501  0.44637  1.0000
  H   H92       1.0  0.18884  0.43374  0.42706  1.0000
  N   N19       1.0  0.16874  0.43861  0.27849  1.0000
  H   H93       1.0  0.15454  0.42700  0.31810  1.0000
  C   C166      1.0  0.57662  0.77172  0.28849  1.0000
  C   C167      1.0  0.57913  0.78234  0.37440  1.0000
  C   C168      1.0  0.57813  0.80540  0.38699  1.0000
  H   H94       1.0  0.57943  0.81241  0.45011  1.0000
  H   H95       1.0  0.58059  0.77272  0.42879  1.0000
  N   N20       1.0  0.57584  0.74831  0.27899  1.0000
  H   H96       1.0  0.58741  0.74555  0.31827  1.0000
  C   C169      1.0  0.24278  0.82268  0.28799  1.0000
  C   C170      1.0  0.23181  0.81460  0.37352  1.0000
  C   C171      1.0  0.20858  0.79066  0.38544  1.0000
  H   H97       1.0  0.20135  0.78494  0.44832  1.0000
  H   H98       1.0  0.24131  0.82559  0.42820  1.0000
  N   N21       1.0  0.26634  0.84517  0.27939  1.0000
  H   H99       1.0  0.26913  0.85949  0.31888  1.0000
  C   C172      1.0  0.81562  0.58360  0.29224  1.0000
  C   C173      1.0  0.80754  0.58638  0.37789  1.0000
  C   C174      1.0  0.78365  0.58579  0.38994  1.0000
  H   H100      1.0  0.77793  0.58723  0.45288  1.0000
  H   H101      1.0  0.81848  0.58772  0.43252  1.0000
  N   N22       1.0  0.83806  0.58245  0.28340  1.0000
  H   H102      1.0  0.85242  0.59377  0.32305  1.0000
  C   C175      1.0  0.43090  0.24995  0.29064  1.0000
  C   C176      1.0  0.42823  0.23893  0.37596  1.0000
  C   C177      1.0  0.42897  0.21569  0.38718  1.0000
  H   H103      1.0  0.42756  0.20840  0.44991  1.0000
  H   H104      1.0  0.42677  0.24835  0.43094  1.0000
  N   N23       1.0  0.43187  0.27347  0.28265  1.0000
  H   H105      1.0  0.42044  0.27628  0.32252  1.0000
  C   C178      1.0  0.76384  0.19857  0.29108  1.0000
  C   C179      1.0  0.77475  0.20675  0.37661  1.0000
  C   C180      1.0  0.79801  0.23069  0.38839  1.0000
  H   H106      1.0  0.80523  0.23646  0.45125  1.0000
  H   H107      1.0  0.76526  0.19578  0.43134  1.0000
  N   N24       1.0  0.74033  0.17602  0.28245  1.0000
  H   H108      1.0  0.73745  0.16171  0.32206  1.0000
  C   C181      1.0  0.15387  0.61073  0.35872  1.0000
  C   C182      1.0  0.15655  0.59585  0.42753  1.0000
  C   C183      1.0  0.15673  0.57260  0.40726  1.0000
  H   H109      1.0  0.15812  0.56179  0.45792  1.0000
  O   O49       1.0  0.15816  0.60312  0.51412  1.0000
  H   H110      1.0  0.14004  0.59628  0.53457  1.0000
  N   N25       1.0  0.15209  0.63250  0.37771  1.0000
  H   H111      1.0  0.16449  0.64476  0.42084  1.0000
  C   C184      1.0  0.40390  0.56138  0.35848  1.0000
  C   C185      1.0  0.41883  0.57901  0.42706  1.0000
  C   C186      1.0  0.44204  0.60245  0.40643  1.0000
  H   H112      1.0  0.45289  0.61471  0.45691  1.0000
  O   O50       1.0  0.41165  0.57341  0.51374  1.0000
  H   H113      1.0  0.41855  0.56218  0.53420  1.0000
  N   N26       1.0  0.38215  0.53784  0.37777  1.0000
  H   H114      1.0  0.36987  0.53801  0.42076  1.0000
  C   C187      1.0  0.45293  0.86015  0.35912  1.0000
  C   C188      1.0  0.43529  0.85763  0.42742  1.0000
  C   C189      1.0  0.41194  0.85753  0.40635  1.0000
  H   H115      1.0  0.39967  0.85623  0.45664  1.0000
  O   O51       1.0  0.44079  0.85609  0.51424  1.0000
  H   H116      1.0  0.45208  0.87423  0.53454  1.0000
  N   N27       1.0  0.47641  0.86187  0.37884  1.0000
  H   H117      1.0  0.47620  0.84953  0.42241  1.0000
  C   C190      1.0  0.85258  0.41050  0.35679  1.0000
  C   C191      1.0  0.85045  0.42573  0.42553  1.0000
  C   C192      1.0  0.85044  0.44905  0.40493  1.0000
  H   H118      1.0  0.84943  0.46011  0.45551  1.0000
  O   O52       1.0  0.84920  0.41873  0.51228  1.0000
  H   H119      1.0  0.86740  0.42549  0.53173  1.0000
  N   N28       1.0  0.85426  0.38868  0.37593  1.0000
  H   H120      1.0  0.84209  0.37667  0.42009  1.0000
  C   C193      1.0  0.60388  0.46013  0.35683  1.0000
  C   C194      1.0  0.58861  0.44291  0.42581  1.0000
  C   C195      1.0  0.56521  0.41961  0.40550  1.0000
  H   H121      1.0  0.55413  0.40766  0.45626  1.0000
  O   O53       1.0  0.59564  0.44877  0.51250  1.0000
  H   H122      1.0  0.58894  0.46028  0.53166  1.0000
  N   N29       1.0  0.62573  0.48364  0.37569  1.0000
  H   H123      1.0  0.63772  0.48353  0.42003  1.0000
  C   C196      1.0  0.55312  0.15962  0.35729  1.0000
  C   C197      1.0  0.57063  0.16187  0.42564  1.0000
  C   C198      1.0  0.59394  0.16190  0.40453  1.0000
  H   H124      1.0  0.60615  0.16304  0.45483  1.0000
  O   O54       1.0  0.56508  0.16327  0.51250  1.0000
  H   H125      1.0  0.55363  0.14511  0.53232  1.0000
  N   N30       1.0  0.52973  0.15813  0.37692  1.0000
  H   H126      1.0  0.53005  0.17045  0.42076  1.0000
  C   C199      1.0  0.97569  0.37557  0.38003  1.0000
  C   C200      1.0  0.99763  0.38640  0.43700  1.0000
  C   C201      1.0  0.02310  0.40068  0.40219  1.0000
  H   H127      1.0  0.03854  0.40947  0.44534  1.0000
  H   H128      1.0  0.99511  0.38477  0.50445  1.0000
  N   N31       1.0  0.95117  0.36558  0.41511  1.0000
  H   H129      1.0  0.94896  0.37635  0.45974  1.0000
  C   C202      1.0  0.63832  0.61799  0.37872  1.0000
  C   C203      1.0  0.62745  0.62920  0.43505  1.0000
  C   C204      1.0  0.61333  0.64047  0.39950  1.0000
  H   H130      1.0  0.60452  0.64721  0.44219  1.0000
  H   H131      1.0  0.62895  0.62834  0.50257  1.0000
  N   N32       1.0  0.64822  0.60345  0.41438  1.0000
  H   H132      1.0  0.63732  0.59040  0.45859  1.0000
  C   C205      1.0  0.39503  0.03806  0.38194  1.0000
  C   C206      1.0  0.38354  0.01588  0.43781  1.0000
  C   C207      1.0  0.37268  0.99057  0.40195  1.0000
  H   H133      1.0  0.36575  0.97495  0.44445  1.0000
  H   H134      1.0  0.38395  0.01813  0.50533  1.0000
  N   N33       1.0  0.40927  0.06244  0.41838  1.0000
  H   H135      1.0  0.42232  0.06455  0.46252  1.0000
  C   C208      1.0  0.03109  0.64612  0.37963  1.0000
  C   C209      1.0  0.00899  0.63526  0.43584  1.0000
  C   C210      1.0  0.98362  0.62097  0.40026  1.0000
  H   H136      1.0  0.96807  0.61213  0.44297  1.0000
  H   H137      1.0  0.01132  0.63688  0.50336  1.0000
  N   N34       1.0  0.05552  0.65615  0.41562  1.0000
  H   H138      1.0  0.05762  0.64524  0.45990  1.0000
  C   C211      1.0  0.36777  0.40279  0.37985  1.0000
  C   C212      1.0  0.37859  0.39165  0.43673  1.0000
  C   C213      1.0  0.39289  0.38048  0.40190  1.0000
  H   H139      1.0  0.40175  0.37392  0.44508  1.0000
  H   H140      1.0  0.37702  0.39259  0.50419  1.0000
  N   N35       1.0  0.35786  0.41740  0.41502  1.0000
  H   H141      1.0  0.36866  0.43030  0.45976  1.0000
  C   C214      1.0  0.61130  0.98281  0.37997  1.0000
  C   C215      1.0  0.62258  0.00509  0.43540  1.0000
  C   C216      1.0  0.63386  0.03035  0.39879  1.0000
  H   H142      1.0  0.64050  0.04603  0.44086  1.0000
  H   H143      1.0  0.62167  0.00297  0.50303  1.0000
  N   N36       1.0  0.59674  0.95852  0.41681  1.0000
  H   H144      1.0  0.58360  0.95661  0.46023  1.0000
