data_image0
_chemical_formula_structural       C3H2N2C3NH2C2HC2HC3H2N2C3NH2C2HC2HC2H4N2CNH2C3NH2C2HC2H3C2H4N2CNH2C3NH2C2HC2H3C8HN4C4HC4H2C12HN4C4HC4H2C7H2C2H3N4C3NH2CNHC3NH2C4H2C4H2C3H2C2H3N4C3NH2CNHC3NH2C4H2C4H2C3HC3H3C3HC3H3C3HC3H3N12C3NC3NH4C3NC3NH4C3NC3NH4C4H2C4H2C4H2C4H2C4H2C4H2C3HC3H3C3HC3H3C3HC3H3N12C3NC3NH4C3NC3NH4C3NC3NH4C4H2C4H2C4H2C4H2C4H2C4H2
_chemical_formula_sum              "C240 H144 N72"
_cell_length_a       46.3438
_cell_length_b       46.3439
_cell_length_c       14.8165
_cell_angle_alpha    90
_cell_angle_beta     90
_cell_angle_gamma    120

_space_group_name_H-M_alt    "P 1"
_space_group_IT_number       1

loop_
  _space_group_symop_operation_xyz
  'x, y, z'

loop_
  _atom_site_type_symbol
  _atom_site_label
  _atom_site_symmetry_multiplicity
  _atom_site_fract_x
  _atom_site_fract_y
  _atom_site_fract_z
  _atom_site_occupancy
  C   C1        1.0  0.02444  0.26291  0.33473  1.0000
  C   C2        1.0  0.08051  0.31332  0.35973  1.0000
  C   C3        1.0  0.04571  0.29829  0.34413  1.0000
  H   H1        1.0  0.03665  0.31399  0.33328  1.0000
  H   H2        1.0  0.12930  0.32501  0.46830  1.0000
  N   N1        1.0  0.11469  0.25607  0.26067  1.0000
  N   N2        1.0  0.13323  0.35240  0.30689  1.0000
  C   C4        1.0  0.04209  0.24481  0.32919  1.0000
  C   C5        1.0  0.07549  0.25784  0.35759  1.0000
  C   C6        1.0  0.09280  0.29170  0.38479  1.0000
  N   N3        1.0  0.12011  0.30330  0.43964  1.0000
  H   H3        1.0  0.12582  0.28807  0.46855  1.0000
  H   H4        1.0  0.03074  0.22108  0.30506  1.0000
  C   C7        1.0  0.10663  0.22877  0.39920  1.0000
  C   C8        1.0  0.09458  0.24256  0.33395  1.0000
  H   H5        1.0  0.09531  0.22204  0.46098  1.0000
  C   C9        1.0  0.10450  0.34757  0.34482  1.0000
  C   C10       1.0  0.10476  0.37707  0.37227  1.0000
  H   H6        1.0  0.08446  0.37541  0.40438  1.0000
  C   C11       1.0  0.02444  0.76291  0.33473  1.0000
  C   C12       1.0  0.08051  0.81333  0.35973  1.0000
  C   C13       1.0  0.04570  0.79829  0.34413  1.0000
  H   H7        1.0  0.03665  0.81398  0.33328  1.0000
  H   H8        1.0  0.12930  0.82501  0.46830  1.0000
  N   N4        1.0  0.11468  0.75607  0.26067  1.0000
  N   N5        1.0  0.13323  0.85240  0.30689  1.0000
  C   C14       1.0  0.04209  0.74481  0.32919  1.0000
  C   C15       1.0  0.07549  0.75784  0.35759  1.0000
  C   C16       1.0  0.09280  0.79170  0.38479  1.0000
  N   N6        1.0  0.12011  0.80330  0.43964  1.0000
  H   H9        1.0  0.12582  0.78807  0.46855  1.0000
  H   H10       1.0  0.03074  0.72108  0.30506  1.0000
  C   C17       1.0  0.10663  0.72877  0.39920  1.0000
  C   C18       1.0  0.09458  0.74256  0.33395  1.0000
  H   H11       1.0  0.09531  0.72204  0.46098  1.0000
  C   C19       1.0  0.10450  0.84757  0.34482  1.0000
  C   C20       1.0  0.10476  0.87707  0.37227  1.0000
  H   H12       1.0  0.08446  0.87540  0.40438  1.0000
  C   C21       1.0  0.19297  0.26407  0.31753  1.0000
  C   C22       1.0  0.21225  0.24800  0.32499  1.0000
  H   H13       1.0  0.19943  0.22261  0.32369  1.0000
  H   H14       1.0  0.16959  0.30367  0.35950  1.0000
  H   H15       1.0  0.22935  0.03482  0.34779  1.0000
  H   H16       1.0  0.22179  0.38461  0.47131  1.0000
  N   N7        1.0  0.14343  0.25750  0.24965  1.0000
  N   N8        1.0  0.16093  0.38047  0.30695  1.0000
  C   C23       1.0  0.20999  0.29966  0.32251  1.0000
  N   N9        1.0  0.19269  0.31568  0.34329  1.0000
  H   H17       1.0  0.20381  0.33855  0.36316  1.0000
  H   H18       1.0  0.22951  0.19821  0.34236  1.0000
  C   C24       1.0  0.21532  0.46780  0.34850  1.0000
  C   C25       1.0  0.19926  0.43280  0.36374  1.0000
  C   C26       1.0  0.21992  0.41964  0.39122  1.0000
  N   N10       1.0  0.20732  0.39164  0.44369  1.0000
  H   H19       1.0  0.18527  0.38217  0.47042  1.0000
  H   H20       1.0  0.20065  0.47799  0.33597  1.0000
  C   C27       1.0  0.15745  0.24602  0.31044  1.0000
  C   C28       1.0  0.13762  0.23004  0.38728  1.0000
  H   H21       1.0  0.14784  0.22466  0.44141  1.0000
  C   C29       1.0  0.13545  0.40807  0.37291  1.0000
  C   C30       1.0  0.16523  0.40901  0.34517  1.0000
  H   H22       1.0  0.13673  0.42806  0.40576  1.0000
  H   H23       1.0  0.21450  0.13617  0.39546  1.0000
  H   H24       1.0  0.21430  0.08345  0.39592  1.0000
  C   C31       1.0  0.19297  0.76407  0.31753  1.0000
  C   C32       1.0  0.21225  0.74800  0.32499  1.0000
  H   H25       1.0  0.19943  0.72261  0.32369  1.0000
  H   H26       1.0  0.16958  0.80367  0.35949  1.0000
  H   H27       1.0  0.22935  0.53482  0.34779  1.0000
  H   H28       1.0  0.22178  0.88461  0.47130  1.0000
  N   N11       1.0  0.14343  0.75750  0.24965  1.0000
  N   N12       1.0  0.16093  0.88047  0.30695  1.0000
  C   C33       1.0  0.20999  0.79966  0.32251  1.0000
  N   N13       1.0  0.19268  0.81568  0.34329  1.0000
  H   H29       1.0  0.20381  0.83855  0.36316  1.0000
  H   H30       1.0  0.22951  0.69821  0.34236  1.0000
  C   C34       1.0  0.21532  0.96780  0.34850  1.0000
  C   C35       1.0  0.19926  0.93280  0.36374  1.0000
  C   C36       1.0  0.21992  0.91964  0.39122  1.0000
  N   N14       1.0  0.20732  0.89164  0.44369  1.0000
  H   H31       1.0  0.18527  0.88217  0.47042  1.0000
  H   H32       1.0  0.20065  0.97799  0.33597  1.0000
  C   C37       1.0  0.15745  0.74602  0.31044  1.0000
  C   C38       1.0  0.13762  0.73004  0.38728  1.0000
  H   H33       1.0  0.14784  0.72466  0.44141  1.0000
  C   C39       1.0  0.13545  0.90807  0.37291  1.0000
  C   C40       1.0  0.16523  0.90900  0.34517  1.0000
  H   H34       1.0  0.13673  0.92806  0.40576  1.0000
  H   H35       1.0  0.21450  0.63617  0.39546  1.0000
  H   H36       1.0  0.21430  0.58345  0.39592  1.0000
  C   C41       1.0  0.26784  0.24946  0.33879  1.0000
  C   C42       1.0  0.24792  0.26545  0.32972  1.0000
  C   C43       1.0  0.26899  0.02390  0.33868  1.0000
  C   C44       1.0  0.25445  0.04454  0.35401  1.0000
  C   C45       1.0  0.27447  0.07935  0.37114  1.0000
  C   C46       1.0  0.25085  0.48789  0.33990  1.0000
  C   C47       1.0  0.25396  0.43631  0.36677  1.0000
  C   C48       1.0  0.26818  0.46952  0.33745  1.0000
  H   H37       1.0  0.29269  0.48044  0.32105  1.0000
  N   N15       1.0  0.25093  0.36771  0.25679  1.0000
  N   N16       1.0  0.25343  0.39678  0.26822  1.0000
  N   N17       1.0  0.29100  0.16182  0.33094  1.0000
  N   N18       1.0  0.29083  0.13393  0.33116  1.0000
  C   C49       1.0  0.27470  0.20014  0.37031  1.0000
  C   C50       1.0  0.25428  0.21430  0.35176  1.0000
  C   C51       1.0  0.26317  0.30096  0.32945  1.0000
  C   C52       1.0  0.24551  0.31833  0.32082  1.0000
  H   H38       1.0  0.28831  0.31555  0.33609  1.0000
  C   C53       1.0  0.26829  0.41679  0.34069  1.0000
  C   C54       1.0  0.28270  0.40491  0.40427  1.0000
  C   C55       1.0  0.28054  0.37363  0.39146  1.0000
  C   C56       1.0  0.26269  0.35373  0.31655  1.0000
  H   H39       1.0  0.28653  0.36332  0.44413  1.0000
  H   H40       1.0  0.29046  0.41646  0.46552  1.0000
  C   C57       1.0  0.26524  0.10436  0.36012  1.0000
  C   C58       1.0  0.23505  0.10461  0.37450  1.0000
  C   C59       1.0  0.23517  0.13556  0.37424  1.0000
  C   C60       1.0  0.26547  0.16591  0.35952  1.0000
  C   C61       1.0  0.26784  0.74946  0.33879  1.0000
  C   C62       1.0  0.24792  0.76545  0.32972  1.0000
  C   C63       1.0  0.26899  0.52390  0.33868  1.0000
  C   C64       1.0  0.25445  0.54454  0.35401  1.0000
  C   C65       1.0  0.27447  0.57935  0.37114  1.0000
  C   C66       1.0  0.25085  0.98789  0.33990  1.0000
  C   C67       1.0  0.25396  0.93631  0.36677  1.0000
  C   C68       1.0  0.26818  0.96952  0.33745  1.0000
  H   H41       1.0  0.29269  0.98044  0.32105  1.0000
  N   N19       1.0  0.25093  0.86771  0.25679  1.0000
  N   N20       1.0  0.25342  0.89678  0.26822  1.0000
  N   N21       1.0  0.29100  0.66182  0.33094  1.0000
  N   N22       1.0  0.29083  0.63393  0.33116  1.0000
  C   C69       1.0  0.27470  0.70014  0.37031  1.0000
  C   C70       1.0  0.25428  0.71430  0.35176  1.0000
  C   C71       1.0  0.26317  0.80096  0.32945  1.0000
  C   C72       1.0  0.24551  0.81833  0.32082  1.0000
  H   H42       1.0  0.28831  0.81555  0.33609  1.0000
  C   C73       1.0  0.26829  0.91679  0.34069  1.0000
  C   C74       1.0  0.28270  0.90491  0.40427  1.0000
  C   C75       1.0  0.28054  0.87363  0.39146  1.0000
  C   C76       1.0  0.26269  0.85373  0.31655  1.0000
  H   H43       1.0  0.28652  0.86332  0.44413  1.0000
  H   H44       1.0  0.29046  0.91646  0.46552  1.0000
  C   C77       1.0  0.26524  0.60436  0.36012  1.0000
  C   C78       1.0  0.23505  0.60460  0.37450  1.0000
  C   C79       1.0  0.23517  0.63557  0.37424  1.0000
  C   C80       1.0  0.26547  0.66591  0.35952  1.0000
  C   C81       1.0  0.48841  0.24666  0.32721  1.0000
  C   C82       1.0  0.46810  0.21112  0.32508  1.0000
  C   C83       1.0  0.43295  0.19385  0.31929  1.0000
  H   H45       1.0  0.47860  0.19643  0.32672  1.0000
  H   H46       1.0  0.37284  0.17419  0.37773  1.0000
  C   C84       1.0  0.30350  0.26785  0.33071  1.0000
  C   C85       1.0  0.32441  0.25609  0.36336  1.0000
  H   H47       1.0  0.31526  0.29083  0.30141  1.0000
  H   H48       1.0  0.34568  0.22921  0.48143  1.0000
  H   H49       1.0  0.31313  0.12615  0.48649  1.0000
  N   N23       1.0  0.39025  0.25237  0.25422  1.0000
  N   N24       1.0  0.36333  0.25443  0.26535  1.0000
  N   N25       1.0  0.36105  0.11649  0.26404  1.0000
  N   N26       1.0  0.38707  0.14606  0.25489  1.0000
  C   C86       1.0  0.41631  0.21257  0.32693  1.0000
  C   C87       1.0  0.43472  0.24804  0.31988  1.0000
  C   C88       1.0  0.47011  0.26411  0.32447  1.0000
  N   N27       1.0  0.38381  0.19688  0.35597  1.0000
  H   H50       1.0  0.37386  0.20948  0.37778  1.0000
  H   H51       1.0  0.48251  0.28947  0.32272  1.0000
  C   C89       1.0  0.30834  0.22292  0.39604  1.0000
  N   N28       1.0  0.32461  0.21310  0.45461  1.0000
  H   H52       1.0  0.31270  0.19193  0.48626  1.0000
  C   C90       1.0  0.30826  0.09065  0.39611  1.0000
  C   C91       1.0  0.32464  0.07439  0.36014  1.0000
  C   C92       1.0  0.30434  0.04206  0.32579  1.0000
  N   N29       1.0  0.32491  0.11701  0.45360  1.0000
  H   H53       1.0  0.34669  0.12289  0.47732  1.0000
  H   H54       1.0  0.31645  0.03171  0.29413  1.0000
  C   C93       1.0  0.35824  0.27031  0.33554  1.0000
  C   C94       1.0  0.38525  0.28597  0.39701  1.0000
  C   C95       1.0  0.41468  0.28419  0.38458  1.0000
  C   C96       1.0  0.41683  0.26560  0.31161  1.0000
  H   H55       1.0  0.43136  0.29121  0.43664  1.0000
  H   H56       1.0  0.38189  0.29472  0.45719  1.0000
  C   C97       1.0  0.41410  0.15860  0.31019  1.0000
  C   C98       1.0  0.41431  0.13667  0.37632  1.0000
  C   C99       1.0  0.38561  0.10491  0.38726  1.0000
  C   C100      1.0  0.35781  0.09443  0.32931  1.0000
  H   H57       1.0  0.38334  0.09159  0.44452  1.0000
  H   H58       1.0  0.43185  0.14552  0.42642  1.0000
  C   C101      1.0  0.48841  0.74666  0.32721  1.0000
  C   C102      1.0  0.46810  0.71112  0.32508  1.0000
  C   C103      1.0  0.43295  0.69385  0.31929  1.0000
  H   H59       1.0  0.47860  0.69642  0.32672  1.0000
  H   H60       1.0  0.37284  0.67419  0.37773  1.0000
  C   C104      1.0  0.30350  0.76785  0.33071  1.0000
  C   C105      1.0  0.32441  0.75609  0.36336  1.0000
  H   H61       1.0  0.31526  0.79082  0.30141  1.0000
  H   H62       1.0  0.34568  0.72921  0.48143  1.0000
  H   H63       1.0  0.31313  0.62615  0.48649  1.0000
  N   N30       1.0  0.39025  0.75237  0.25422  1.0000
  N   N31       1.0  0.36333  0.75443  0.26535  1.0000
  N   N32       1.0  0.36105  0.61649  0.26404  1.0000
  N   N33       1.0  0.38707  0.64607  0.25489  1.0000
  C   C106      1.0  0.41631  0.71257  0.32693  1.0000
  C   C107      1.0  0.43472  0.74804  0.31988  1.0000
  C   C108      1.0  0.47011  0.76411  0.32447  1.0000
  N   N34       1.0  0.38381  0.69688  0.35597  1.0000
  H   H64       1.0  0.37386  0.70948  0.37778  1.0000
  H   H65       1.0  0.48251  0.78947  0.32272  1.0000
  C   C109      1.0  0.30834  0.72292  0.39604  1.0000
  N   N35       1.0  0.32460  0.71310  0.45461  1.0000
  H   H66       1.0  0.31270  0.69193  0.48626  1.0000
  C   C110      1.0  0.30826  0.59065  0.39611  1.0000
  C   C111      1.0  0.32464  0.57439  0.36014  1.0000
  C   C112      1.0  0.30434  0.54206  0.32579  1.0000
  N   N36       1.0  0.32491  0.61701  0.45360  1.0000
  H   H67       1.0  0.34669  0.62289  0.47732  1.0000
  H   H68       1.0  0.31645  0.53171  0.29413  1.0000
  C   C113      1.0  0.35824  0.77031  0.33554  1.0000
  C   C114      1.0  0.38525  0.78597  0.39701  1.0000
  C   C115      1.0  0.41468  0.78419  0.38459  1.0000
  C   C116      1.0  0.41683  0.76560  0.31161  1.0000
  H   H69       1.0  0.43136  0.79121  0.43664  1.0000
  H   H70       1.0  0.38189  0.79472  0.45719  1.0000
  C   C117      1.0  0.41411  0.65860  0.31019  1.0000
  C   C118      1.0  0.41431  0.63667  0.37632  1.0000
  C   C119      1.0  0.38561  0.60491  0.38726  1.0000
  C   C120      1.0  0.35781  0.59443  0.32931  1.0000
  H   H71       1.0  0.38334  0.59159  0.44452  1.0000
  H   H72       1.0  0.43185  0.64552  0.42642  1.0000
  C   C121      1.0  0.98842  0.24666  0.32721  1.0000
  C   C122      1.0  0.96811  0.21112  0.32508  1.0000
  C   C123      1.0  0.93295  0.19385  0.31929  1.0000
  H   H73       1.0  0.97861  0.19643  0.32672  1.0000
  C   C124      1.0  0.52444  0.26291  0.33473  1.0000
  C   C125      1.0  0.58051  0.31332  0.35973  1.0000
  C   C126      1.0  0.54570  0.29829  0.34413  1.0000
  H   H74       1.0  0.53665  0.31399  0.33328  1.0000
  H   H75       1.0  0.62930  0.32501  0.46830  1.0000
  H   H76       1.0  0.87284  0.17419  0.37773  1.0000
  C   C127      1.0  0.76784  0.24946  0.33879  1.0000
  C   C128      1.0  0.80350  0.26785  0.33071  1.0000
  C   C129      1.0  0.82441  0.25609  0.36336  1.0000
  H   H77       1.0  0.81526  0.29083  0.30141  1.0000
  C   C130      1.0  0.74792  0.26545  0.32972  1.0000
  C   C131      1.0  0.69297  0.26407  0.31753  1.0000
  C   C132      1.0  0.71225  0.24800  0.32499  1.0000
  H   H78       1.0  0.69943  0.22261  0.32369  1.0000
  H   H79       1.0  0.66959  0.30367  0.35950  1.0000
  H   H80       1.0  0.84568  0.22921  0.48143  1.0000
  C   C133      1.0  0.76899  0.02390  0.33868  1.0000
  C   C134      1.0  0.75445  0.04454  0.35401  1.0000
  C   C135      1.0  0.77446  0.07935  0.37114  1.0000
  H   H81       1.0  0.72935  0.03482  0.34779  1.0000
  C   C136      1.0  0.75085  0.48789  0.33990  1.0000
  C   C137      1.0  0.75397  0.43631  0.36677  1.0000
  C   C138      1.0  0.76818  0.46952  0.33745  1.0000
  H   H82       1.0  0.79269  0.48044  0.32105  1.0000
  H   H83       1.0  0.72179  0.38461  0.47131  1.0000
  H   H84       1.0  0.81313  0.12615  0.48649  1.0000
  N   N37       1.0  0.61469  0.25607  0.26067  1.0000
  N   N38       1.0  0.64343  0.25750  0.24965  1.0000
  N   N39       1.0  0.75093  0.36771  0.25679  1.0000
  N   N40       1.0  0.75343  0.39678  0.26822  1.0000
  N   N41       1.0  0.66094  0.38047  0.30695  1.0000
  N   N42       1.0  0.63323  0.35240  0.30689  1.0000
  N   N43       1.0  0.89025  0.25237  0.25422  1.0000
  N   N44       1.0  0.86333  0.25443  0.26535  1.0000
  N   N45       1.0  0.79100  0.16182  0.33094  1.0000
  N   N46       1.0  0.79083  0.13393  0.33116  1.0000
  N   N47       1.0  0.86105  0.11649  0.26404  1.0000
  N   N48       1.0  0.88707  0.14606  0.25489  1.0000
  C   C139      1.0  0.91631  0.21257  0.32693  1.0000
  C   C140      1.0  0.93473  0.24804  0.31988  1.0000
  C   C141      1.0  0.97011  0.26411  0.32447  1.0000
  N   N49       1.0  0.88381  0.19688  0.35597  1.0000
  C   C142      1.0  0.54209  0.24481  0.32919  1.0000
  C   C143      1.0  0.57549  0.25784  0.35759  1.0000
  C   C144      1.0  0.59280  0.29170  0.38479  1.0000
  N   N50       1.0  0.62011  0.30330  0.43964  1.0000
  H   H85       1.0  0.62582  0.28807  0.46855  1.0000
  H   H86       1.0  0.87386  0.20948  0.37778  1.0000
  H   H87       1.0  0.98251  0.28947  0.32272  1.0000
  H   H88       1.0  0.53074  0.22108  0.30506  1.0000
  C   C145      1.0  0.80834  0.22292  0.39604  1.0000
  C   C146      1.0  0.77470  0.20014  0.37031  1.0000
  C   C147      1.0  0.75428  0.21430  0.35176  1.0000
  N   N51       1.0  0.82461  0.21310  0.45461  1.0000
  C   C148      1.0  0.76317  0.30096  0.32945  1.0000
  C   C149      1.0  0.74551  0.31833  0.32082  1.0000
  C   C150      1.0  0.70999  0.29966  0.32251  1.0000
  N   N52       1.0  0.69269  0.31568  0.34329  1.0000
  H   H89       1.0  0.70381  0.33855  0.36316  1.0000
  H   H90       1.0  0.81270  0.19193  0.48626  1.0000
  H   H91       1.0  0.72951  0.19821  0.34236  1.0000
  H   H92       1.0  0.78831  0.31555  0.33609  1.0000
  C   C151      1.0  0.80826  0.09065  0.39611  1.0000
  C   C152      1.0  0.82464  0.07439  0.36014  1.0000
  C   C153      1.0  0.80434  0.04206  0.32579  1.0000
  N   N53       1.0  0.82491  0.11701  0.45360  1.0000
  C   C154      1.0  0.71532  0.46780  0.34850  1.0000
  C   C155      1.0  0.69926  0.43280  0.36374  1.0000
  C   C156      1.0  0.71992  0.41964  0.39122  1.0000
  N   N54       1.0  0.70732  0.39164  0.44369  1.0000
  H   H93       1.0  0.68527  0.38217  0.47042  1.0000
  H   H94       1.0  0.84669  0.12289  0.47732  1.0000
  H   H95       1.0  0.81646  0.03171  0.29413  1.0000
  H   H96       1.0  0.70065  0.47799  0.33597  1.0000
  C   C157      1.0  0.65745  0.24602  0.31044  1.0000
  C   C158      1.0  0.63762  0.23004  0.38728  1.0000
  C   C159      1.0  0.60663  0.22877  0.39920  1.0000
  C   C160      1.0  0.59458  0.24256  0.33395  1.0000
  H   H97       1.0  0.59531  0.22204  0.46098  1.0000
  H   H98       1.0  0.64784  0.22466  0.44141  1.0000
  C   C161      1.0  0.76829  0.41679  0.34069  1.0000
  C   C162      1.0  0.78270  0.40491  0.40427  1.0000
  C   C163      1.0  0.78055  0.37363  0.39146  1.0000
  C   C164      1.0  0.76269  0.35373  0.31655  1.0000
  H   H99       1.0  0.78653  0.36332  0.44413  1.0000
  H   H100      1.0  0.79046  0.41646  0.46552  1.0000
  C   C165      1.0  0.60450  0.34757  0.34482  1.0000
  C   C166      1.0  0.60476  0.37707  0.37227  1.0000
  C   C167      1.0  0.63545  0.40807  0.37291  1.0000
  C   C168      1.0  0.66523  0.40901  0.34517  1.0000
  H   H101      1.0  0.63673  0.42806  0.40576  1.0000
  H   H102      1.0  0.58446  0.37541  0.40438  1.0000
  C   C169      1.0  0.85824  0.27031  0.33554  1.0000
  C   C170      1.0  0.88525  0.28597  0.39701  1.0000
  C   C171      1.0  0.91468  0.28419  0.38458  1.0000
  C   C172      1.0  0.91683  0.26560  0.31161  1.0000
  H   H103      1.0  0.93136  0.29121  0.43664  1.0000
  H   H104      1.0  0.88189  0.29472  0.45719  1.0000
  C   C173      1.0  0.76524  0.10436  0.36012  1.0000
  C   C174      1.0  0.73505  0.10461  0.37450  1.0000
  C   C175      1.0  0.73517  0.13556  0.37424  1.0000
  C   C176      1.0  0.76547  0.16591  0.35952  1.0000
  H   H105      1.0  0.71451  0.13617  0.39546  1.0000
  H   H106      1.0  0.71430  0.08345  0.39592  1.0000
  C   C177      1.0  0.91411  0.15860  0.31019  1.0000
  C   C178      1.0  0.91431  0.13667  0.37632  1.0000
  C   C179      1.0  0.88561  0.10491  0.38726  1.0000
  C   C180      1.0  0.85781  0.09443  0.32931  1.0000
  H   H107      1.0  0.88334  0.09159  0.44452  1.0000
  H   H108      1.0  0.93185  0.14552  0.42642  1.0000
  C   C181      1.0  0.98842  0.74666  0.32721  1.0000
  C   C182      1.0  0.96811  0.71112  0.32508  1.0000
  C   C183      1.0  0.93295  0.69385  0.31929  1.0000
  H   H109      1.0  0.97860  0.69642  0.32672  1.0000
  C   C184      1.0  0.52444  0.76291  0.33473  1.0000
  C   C185      1.0  0.58051  0.81333  0.35973  1.0000
  C   C186      1.0  0.54571  0.79829  0.34413  1.0000
  H   H110      1.0  0.53665  0.81398  0.33328  1.0000
  H   H111      1.0  0.62930  0.82501  0.46830  1.0000
  H   H112      1.0  0.87284  0.67419  0.37773  1.0000
  C   C187      1.0  0.76785  0.74946  0.33879  1.0000
  C   C188      1.0  0.80350  0.76785  0.33071  1.0000
  C   C189      1.0  0.82441  0.75609  0.36336  1.0000
  H   H113      1.0  0.81526  0.79082  0.30141  1.0000
  C   C190      1.0  0.74792  0.76545  0.32972  1.0000
  C   C191      1.0  0.69297  0.76407  0.31753  1.0000
  C   C192      1.0  0.71225  0.74800  0.32499  1.0000
  H   H114      1.0  0.69943  0.72261  0.32369  1.0000
  H   H115      1.0  0.66958  0.80367  0.35949  1.0000
  H   H116      1.0  0.84568  0.72921  0.48143  1.0000
  C   C193      1.0  0.76899  0.52390  0.33868  1.0000
  C   C194      1.0  0.75445  0.54454  0.35401  1.0000
  C   C195      1.0  0.77447  0.57935  0.37114  1.0000
  H   H117      1.0  0.72935  0.53482  0.34779  1.0000
  C   C196      1.0  0.75085  0.98789  0.33990  1.0000
  C   C197      1.0  0.75397  0.93631  0.36677  1.0000
  C   C198      1.0  0.76818  0.96952  0.33745  1.0000
  H   H118      1.0  0.79269  0.98044  0.32105  1.0000
  H   H119      1.0  0.72178  0.88461  0.47130  1.0000
  H   H120      1.0  0.81312  0.62615  0.48649  1.0000
  N   N55       1.0  0.61469  0.75607  0.26067  1.0000
  N   N56       1.0  0.64343  0.75750  0.24965  1.0000
  N   N57       1.0  0.75093  0.86771  0.25679  1.0000
  N   N58       1.0  0.75343  0.89678  0.26822  1.0000
  N   N59       1.0  0.66093  0.88047  0.30695  1.0000
  N   N60       1.0  0.63323  0.85240  0.30689  1.0000
  N   N61       1.0  0.89025  0.75237  0.25422  1.0000
  N   N62       1.0  0.86333  0.75443  0.26535  1.0000
  N   N63       1.0  0.79100  0.66182  0.33094  1.0000
  N   N64       1.0  0.79083  0.63393  0.33116  1.0000
  N   N65       1.0  0.86105  0.61649  0.26404  1.0000
  N   N66       1.0  0.88707  0.64607  0.25489  1.0000
  C   C199      1.0  0.91631  0.71257  0.32693  1.0000
  C   C200      1.0  0.93472  0.74804  0.31988  1.0000
  C   C201      1.0  0.97011  0.76411  0.32447  1.0000
  N   N67       1.0  0.88381  0.69688  0.35597  1.0000
  C   C202      1.0  0.54209  0.74481  0.32919  1.0000
  C   C203      1.0  0.57549  0.75784  0.35759  1.0000
  C   C204      1.0  0.59280  0.79170  0.38479  1.0000
  N   N68       1.0  0.62011  0.80330  0.43964  1.0000
  H   H121      1.0  0.62582  0.78807  0.46855  1.0000
  H   H122      1.0  0.87386  0.70948  0.37778  1.0000
  H   H123      1.0  0.98251  0.78947  0.32272  1.0000
  H   H124      1.0  0.53074  0.72108  0.30506  1.0000
  C   C205      1.0  0.80834  0.72292  0.39604  1.0000
  C   C206      1.0  0.77470  0.70014  0.37031  1.0000
  C   C207      1.0  0.75428  0.71430  0.35176  1.0000
  N   N69       1.0  0.82461  0.71310  0.45461  1.0000
  C   C208      1.0  0.76317  0.80096  0.32945  1.0000
  C   C209      1.0  0.74551  0.81833  0.32082  1.0000
  C   C210      1.0  0.70999  0.79966  0.32251  1.0000
  N   N70       1.0  0.69268  0.81568  0.34329  1.0000
  H   H125      1.0  0.70381  0.83855  0.36316  1.0000
  H   H126      1.0  0.81270  0.69193  0.48626  1.0000
  H   H127      1.0  0.72951  0.69821  0.34236  1.0000
  H   H128      1.0  0.78831  0.81555  0.33609  1.0000
  C   C211      1.0  0.80826  0.59065  0.39611  1.0000
  C   C212      1.0  0.82464  0.57439  0.36014  1.0000
  C   C213      1.0  0.80434  0.54206  0.32579  1.0000
  N   N71       1.0  0.82491  0.61701  0.45360  1.0000
  C   C214      1.0  0.71532  0.96780  0.34850  1.0000
  C   C215      1.0  0.69926  0.93280  0.36374  1.0000
  C   C216      1.0  0.71992  0.91964  0.39122  1.0000
  N   N72       1.0  0.70732  0.89164  0.44369  1.0000
  H   H129      1.0  0.68527  0.88217  0.47042  1.0000
  H   H130      1.0  0.84669  0.62289  0.47732  1.0000
  H   H131      1.0  0.81646  0.53171  0.29413  1.0000
  H   H132      1.0  0.70065  0.97799  0.33597  1.0000
  C   C217      1.0  0.65745  0.74602  0.31044  1.0000
  C   C218      1.0  0.63763  0.73004  0.38728  1.0000
  C   C219      1.0  0.60663  0.72877  0.39920  1.0000
  C   C220      1.0  0.59458  0.74256  0.33395  1.0000
  H   H133      1.0  0.59531  0.72204  0.46098  1.0000
  H   H134      1.0  0.64784  0.72466  0.44141  1.0000
  C   C221      1.0  0.76829  0.91679  0.34069  1.0000
  C   C222      1.0  0.78270  0.90491  0.40427  1.0000
  C   C223      1.0  0.78055  0.87363  0.39146  1.0000
  C   C224      1.0  0.76268  0.85373  0.31655  1.0000
  H   H135      1.0  0.78653  0.86332  0.44413  1.0000
  H   H136      1.0  0.79046  0.91646  0.46552  1.0000
  C   C225      1.0  0.60450  0.84757  0.34482  1.0000
  C   C226      1.0  0.60476  0.87707  0.37227  1.0000
  C   C227      1.0  0.63545  0.90807  0.37291  1.0000
  C   C228      1.0  0.66523  0.90900  0.34517  1.0000
  H   H137      1.0  0.63673  0.92806  0.40576  1.0000
  H   H138      1.0  0.58446  0.87540  0.40438  1.0000
  C   C229      1.0  0.85824  0.77031  0.33554  1.0000
  C   C230      1.0  0.88525  0.78597  0.39701  1.0000
  C   C231      1.0  0.91468  0.78419  0.38459  1.0000
  C   C232      1.0  0.91683  0.76560  0.31161  1.0000
  H   H139      1.0  0.93136  0.79121  0.43664  1.0000
  H   H140      1.0  0.88189  0.79472  0.45719  1.0000
  C   C233      1.0  0.76524  0.60436  0.36012  1.0000
  C   C234      1.0  0.73505  0.60460  0.37450  1.0000
  C   C235      1.0  0.73517  0.63557  0.37424  1.0000
  C   C236      1.0  0.76547  0.66591  0.35952  1.0000
  H   H141      1.0  0.71450  0.63617  0.39546  1.0000
  H   H142      1.0  0.71430  0.58345  0.39592  1.0000
  C   C237      1.0  0.91410  0.65860  0.31019  1.0000
  C   C238      1.0  0.91431  0.63667  0.37632  1.0000
  C   C239      1.0  0.88561  0.60491  0.38726  1.0000
  C   C240      1.0  0.85781  0.59443  0.32931  1.0000
  H   H143      1.0  0.88334  0.59159  0.44452  1.0000
  H   H144      1.0  0.93185  0.64552  0.42642  1.0000
