data_image0
_chemical_formula_structural       NC4HN5C24H15C24H15C8H4C8H4C4H3
_chemical_formula_sum              "N6 C72 H42"
_cell_length_a       29.9797
_cell_length_b       29.9796
_cell_length_c       14.9156
_cell_angle_alpha    90
_cell_angle_beta     90
_cell_angle_gamma    120

_space_group_name_H-M_alt    "P 1"
_space_group_IT_number       1

loop_
  _space_group_symop_operation_xyz
  'x, y, z'

loop_
  _atom_site_type_symbol
  _atom_site_label
  _atom_site_symmetry_multiplicity
  _atom_site_fract_x
  _atom_site_fract_y
  _atom_site_fract_z
  _atom_site_occupancy
  N   N1        1.0  0.02942  0.51541  0.27393  1.0000
  C   C1        1.0  0.03179  0.51660  0.43374  1.0000
  C   C2        1.0  0.03125  0.51633  0.59839  1.0000
  C   C3        1.0  0.05801  0.52971  0.35010  1.0000
  C   C4        1.0  0.05832  0.52987  0.51685  1.0000
  H   H1        1.0  0.05090  0.52616  0.65781  1.0000
  N   N2        1.0  0.49166  0.51541  0.27394  1.0000
  N   N3        1.0  0.51683  0.49024  0.27394  1.0000
  N   N4        1.0  0.49166  0.97766  0.27392  1.0000
  N   N5        1.0  0.51683  0.02800  0.27393  1.0000
  N   N6        1.0  0.97907  0.49024  0.27393  1.0000
  C   C5        1.0  0.28126  0.64134  0.33635  1.0000
  C   C6        1.0  0.31102  0.61638  0.33625  1.0000
  C   C7        1.0  0.36574  0.64134  0.33634  1.0000
  C   C8        1.0  0.39069  0.69605  0.33627  1.0000
  C   C9        1.0  0.36574  0.72582  0.33636  1.0000
  C   C10       1.0  0.31102  0.69605  0.33631  1.0000
  C   C11       1.0  0.39417  0.61290  0.33687  1.0000
  C   C12       1.0  0.36916  0.55791  0.33763  1.0000
  C   C13       1.0  0.39606  0.53055  0.33981  1.0000
  C   C14       1.0  0.45020  0.55686  0.34094  1.0000
  C   C15       1.0  0.47652  0.61100  0.33981  1.0000
  C   C16       1.0  0.44916  0.63791  0.33763  1.0000
  C   C17       1.0  0.22439  0.61290  0.33688  1.0000
  C   C18       1.0  0.19441  0.55791  0.33763  1.0000
  C   C19       1.0  0.14014  0.53055  0.33981  1.0000
  C   C20       1.0  0.11232  0.55687  0.34094  1.0000
  C   C21       1.0  0.14014  0.61101  0.33980  1.0000
  C   C22       1.0  0.19441  0.63791  0.33762  1.0000
  C   C23       1.0  0.39417  0.78268  0.33690  1.0000
  C   C24       1.0  0.36916  0.81266  0.33763  1.0000
  C   C25       1.0  0.39606  0.86693  0.33978  1.0000
  C   C26       1.0  0.45021  0.89476  0.34091  1.0000
  C   C27       1.0  0.47652  0.86693  0.33981  1.0000
  C   C28       1.0  0.44916  0.81267  0.33764  1.0000
  H   H2        1.0  0.12106  0.49113  0.34208  1.0000
  H   H3        1.0  0.21091  0.53546  0.33774  1.0000
  H   H4        1.0  0.12106  0.63136  0.34202  1.0000
  H   H5        1.0  0.21092  0.67688  0.33763  1.0000
  H   H6        1.0  0.33019  0.79616  0.33767  1.0000
  H   H7        1.0  0.37572  0.88601  0.34203  1.0000
  H   H8        1.0  0.47162  0.79616  0.33775  1.0000
  H   H9        1.0  0.51595  0.88601  0.34208  1.0000
  H   H10       1.0  0.47162  0.67688  0.33768  1.0000
  H   H11       1.0  0.51595  0.63134  0.34204  1.0000
  H   H12       1.0  0.37572  0.49112  0.34203  1.0000
  H   H13       1.0  0.33019  0.53545  0.33767  1.0000
  H   H14       1.0  0.29171  0.57777  0.33590  1.0000
  H   H15       1.0  0.29171  0.71536  0.33604  1.0000
  H   H16       1.0  0.42931  0.71536  0.33593  1.0000
  C   C29       1.0  0.72723  0.36432  0.33635  1.0000
  C   C30       1.0  0.69747  0.38928  0.33625  1.0000
  C   C31       1.0  0.64275  0.36432  0.33633  1.0000
  C   C32       1.0  0.61780  0.30961  0.33626  1.0000
  C   C33       1.0  0.64275  0.27984  0.33635  1.0000
  C   C34       1.0  0.69747  0.30961  0.33630  1.0000
  C   C35       1.0  0.61432  0.39276  0.33686  1.0000
  C   C36       1.0  0.63933  0.44775  0.33763  1.0000
  C   C37       1.0  0.61242  0.47511  0.33979  1.0000
  C   C38       1.0  0.55829  0.44879  0.34097  1.0000
  C   C39       1.0  0.53197  0.39466  0.33982  1.0000
  C   C40       1.0  0.55933  0.36775  0.33761  1.0000
  C   C41       1.0  0.78410  0.39276  0.33687  1.0000
  C   C42       1.0  0.81408  0.44775  0.33763  1.0000
  C   C43       1.0  0.86835  0.47511  0.33979  1.0000
  C   C44       1.0  0.89617  0.44879  0.34094  1.0000
  C   C45       1.0  0.86834  0.39465  0.33978  1.0000
  C   C46       1.0  0.81408  0.36775  0.33761  1.0000
  C   C47       1.0  0.61432  0.22298  0.33688  1.0000
  C   C48       1.0  0.63933  0.19299  0.33761  1.0000
  C   C49       1.0  0.61242  0.13873  0.33981  1.0000
  C   C50       1.0  0.55828  0.11091  0.34094  1.0000
  C   C51       1.0  0.53197  0.13873  0.33977  1.0000
  C   C52       1.0  0.55933  0.19299  0.33763  1.0000
  H   H17       1.0  0.88743  0.51453  0.34210  1.0000
  H   H18       1.0  0.79757  0.47020  0.33775  1.0000
  H   H19       1.0  0.88743  0.37431  0.34203  1.0000
  H   H20       1.0  0.79757  0.32878  0.33764  1.0000
  H   H21       1.0  0.67829  0.20950  0.33767  1.0000
  H   H22       1.0  0.63277  0.11965  0.34204  1.0000
  H   H23       1.0  0.53687  0.20950  0.33773  1.0000
  H   H24       1.0  0.49254  0.11964  0.34208  1.0000
  H   H25       1.0  0.53687  0.32878  0.33766  1.0000
  H   H26       1.0  0.49254  0.37431  0.34205  1.0000
  H   H27       1.0  0.63277  0.51454  0.34205  1.0000
  H   H28       1.0  0.67829  0.47020  0.33766  1.0000
  H   H29       1.0  0.71678  0.42789  0.33589  1.0000
  H   H30       1.0  0.71677  0.29030  0.33603  1.0000
  H   H31       1.0  0.57918  0.29030  0.33593  1.0000
  C   C53       1.0  0.53113  0.47595  0.35012  1.0000
  C   C54       1.0  0.51802  0.48906  0.43375  1.0000
  C   C55       1.0  0.49047  0.51660  0.43375  1.0000
  C   C56       1.0  0.47736  0.52971  0.35010  1.0000
  C   C57       1.0  0.47720  0.52987  0.51685  1.0000
  C   C58       1.0  0.49073  0.51634  0.59839  1.0000
  C   C59       1.0  0.51774  0.48933  0.59839  1.0000
  C   C60       1.0  0.53128  0.47579  0.51687  1.0000
  H   H32       1.0  0.45752  0.54954  0.51929  1.0000
  H   H33       1.0  0.48091  0.52616  0.65781  1.0000
  H   H34       1.0  0.52756  0.47951  0.65782  1.0000
  H   H35       1.0  0.55096  0.45612  0.51931  1.0000
  C   C61       1.0  0.53113  0.05660  0.35010  1.0000
  C   C62       1.0  0.51802  0.03037  0.43373  1.0000
  C   C63       1.0  0.49047  0.97528  0.43373  1.0000
  C   C64       1.0  0.47736  0.94906  0.35008  1.0000
  C   C65       1.0  0.47720  0.94875  0.51683  1.0000
  C   C66       1.0  0.49074  0.97581  0.59837  1.0000
  C   C67       1.0  0.51775  0.02983  0.59838  1.0000
  C   C68       1.0  0.53128  0.05690  0.51685  1.0000
  H   H36       1.0  0.45753  0.90939  0.51927  1.0000
  H   H37       1.0  0.48091  0.95616  0.65779  1.0000
  H   H38       1.0  0.52757  0.04947  0.65781  1.0000
  H   H39       1.0  0.55095  0.09625  0.51929  1.0000
  C   C69       1.0  0.95048  0.47595  0.35010  1.0000
  C   C70       1.0  0.97670  0.48906  0.43374  1.0000
  C   C71       1.0  0.97723  0.48932  0.59838  1.0000
  C   C72       1.0  0.95017  0.47579  0.51685  1.0000
  H   H40       1.0  0.09767  0.54954  0.51929  1.0000
  H   H41       1.0  0.95759  0.47950  0.65781  1.0000
  H   H42       1.0  0.91081  0.45611  0.51928  1.0000
