data_image0
_chemical_formula_structural       C3HC4H2CH3C3HC4H2CH3C3HC4H2CH3C5H3CH3C5H3CH3C5H3CH3C24H15C24H15C24H15C24H15C5H3CH3C5H3CH3C5H3CH3C3HC4H2CH3C3HC4H2CH3C3HC4H2CH3
_chemical_formula_sum              "C180 H132"
_cell_length_a       57.5459
_cell_length_b       57.5458
_cell_length_c       14.9538
_cell_angle_alpha    90
_cell_angle_beta     90
_cell_angle_gamma    120

_space_group_name_H-M_alt    "P 1"
_space_group_IT_number       1

loop_
  _space_group_symop_operation_xyz
  'x, y, z'

loop_
  _atom_site_type_symbol
  _atom_site_label
  _atom_site_symmetry_multiplicity
  _atom_site_fract_x
  _atom_site_fract_y
  _atom_site_fract_z
  _atom_site_occupancy
  C   C1        1.0  0.22590  0.11196  0.33285  1.0000
  C   C2        1.0  0.24001  0.14025  0.32631  1.0000
  C   C3        1.0  0.26822  0.15477  0.32593  1.0000
  H   H1        1.0  0.27768  0.17519  0.31951  1.0000
  C   C4        1.0  0.19730  0.09826  0.33101  1.0000
  C   C5        1.0  0.13988  0.06995  0.33556  1.0000
  C   C6        1.0  0.15407  0.07661  0.25346  1.0000
  C   C7        1.0  0.18249  0.09065  0.24964  1.0000
  H   H2        1.0  0.14343  0.07147  0.19491  1.0000
  H   H3        1.0  0.22983  0.15055  0.32105  1.0000
  C   C8        1.0  0.19618  0.09703  0.16116  1.0000
  H   H4        1.0  0.20880  0.08790  0.15612  1.0000
  H   H5        1.0  0.20874  0.11872  0.15374  1.0000
  H   H6        1.0  0.18208  0.08966  0.10529  1.0000
  C   C9        1.0  0.88223  0.11471  0.33287  1.0000
  C   C10       1.0  0.85395  0.10054  0.32633  1.0000
  C   C11       1.0  0.83942  0.11422  0.32591  1.0000
  H   H7        1.0  0.81900  0.10326  0.31947  1.0000
  C   C12       1.0  0.89593  0.09982  0.33103  1.0000
  C   C13       1.0  0.92425  0.07072  0.33557  1.0000
  C   C14       1.0  0.91759  0.07824  0.25348  1.0000
  C   C15       1.0  0.90354  0.09262  0.24966  1.0000
  H   H8        1.0  0.92273  0.07275  0.19492  1.0000
  H   H9        1.0  0.84365  0.08005  0.32104  1.0000
  C   C16       1.0  0.89716  0.09994  0.16118  1.0000
  H   H10       1.0  0.90629  0.12168  0.15615  1.0000
  H   H11       1.0  0.87548  0.09080  0.15376  1.0000
  H   H12       1.0  0.90454  0.09321  0.10531  1.0000
  C   C17       1.0  0.87947  0.76831  0.33288  1.0000
  C   C18       1.0  0.89364  0.75420  0.32631  1.0000
  C   C19       1.0  0.87997  0.72599  0.32588  1.0000
  H   H13       1.0  0.89094  0.71654  0.31945  1.0000
  C   C20       1.0  0.89435  0.79690  0.33103  1.0000
  C   C21       1.0  0.92346  0.85433  0.33556  1.0000
  C   C22       1.0  0.91593  0.84014  0.25347  1.0000
  C   C23       1.0  0.90155  0.81171  0.24966  1.0000
  H   H14       1.0  0.92143  0.85077  0.19491  1.0000
  H   H15       1.0  0.91413  0.76439  0.32102  1.0000
  C   C24       1.0  0.89424  0.79802  0.16118  1.0000
  H   H16       1.0  0.87248  0.78539  0.15616  1.0000
  H   H17       1.0  0.90337  0.78547  0.15376  1.0000
  H   H18       1.0  0.90096  0.81212  0.10531  1.0000
  C   C25       1.0  0.64193  0.16869  0.33214  1.0000
  C   C26       1.0  0.63794  0.19092  0.34131  1.0000
  C   C27       1.0  0.61211  0.18815  0.33772  1.0000
  C   C28       1.0  0.55264  0.16367  0.25024  1.0000
  C   C29       1.0  0.52886  0.16487  0.25428  1.0000
  H   H19       1.0  0.56338  0.16899  0.19185  1.0000
  H   H20       1.0  0.52328  0.17129  0.19879  1.0000
  H   H21       1.0  0.65426  0.20959  0.35120  1.0000
  C   C30       1.0  0.60931  0.21235  0.34973  1.0000
  H   H22       1.0  0.62854  0.23061  0.36060  1.0000
  H   H23       1.0  0.59660  0.20967  0.40740  1.0000
  H   H24       1.0  0.60021  0.21543  0.29024  1.0000
  C   C31       1.0  0.82555  0.47403  0.33218  1.0000
  C   C32       1.0  0.80332  0.44781  0.34149  1.0000
  C   C33       1.0  0.80610  0.42476  0.33796  1.0000
  C   C34       1.0  0.83054  0.38975  0.25044  1.0000
  C   C35       1.0  0.82932  0.36476  0.25447  1.0000
  H   H25       1.0  0.82520  0.39516  0.19207  1.0000
  H   H26       1.0  0.82288  0.35276  0.19899  1.0000
  H   H27       1.0  0.78466  0.44547  0.35141  1.0000
  C   C36       1.0  0.78191  0.39776  0.35011  1.0000
  H   H28       1.0  0.76365  0.39872  0.36103  1.0000
  H   H29       1.0  0.78461  0.38775  0.40780  1.0000
  H   H30       1.0  0.77880  0.38555  0.29065  1.0000
  C   C37       1.0  0.52020  0.35225  0.33223  1.0000
  C   C38       1.0  0.54642  0.35624  0.34150  1.0000
  C   C39       1.0  0.56947  0.38207  0.33794  1.0000
  C   C40       1.0  0.60450  0.44151  0.25039  1.0000
  C   C41       1.0  0.62947  0.46529  0.25439  1.0000
  H   H31       1.0  0.59904  0.43078  0.19197  1.0000
  H   H32       1.0  0.64145  0.47087  0.19884  1.0000
  H   H33       1.0  0.54876  0.33992  0.35144  1.0000
  C   C42       1.0  0.59647  0.38488  0.35007  1.0000
  H   H34       1.0  0.59550  0.36566  0.36103  1.0000
  H   H35       1.0  0.60649  0.39760  0.40774  1.0000
  H   H36       1.0  0.60867  0.39397  0.29060  1.0000
  C   C43       1.0  0.98168  0.01286  0.34200  1.0000
  C   C44       1.0  0.01009  0.02644  0.34203  1.0000
  C   C45       1.0  0.02459  0.01252  0.34198  1.0000
  C   C46       1.0  0.00976  0.98411  0.34202  1.0000
  C   C47       1.0  0.98135  0.96962  0.34198  1.0000
  C   C48       1.0  0.96776  0.98444  0.34202  1.0000
  C   C49       1.0  0.05336  0.02675  0.34096  1.0000
  C   C50       1.0  0.06842  0.04912  0.39742  1.0000
  C   C51       1.0  0.09669  0.06315  0.39603  1.0000
  C   C52       1.0  0.11111  0.05553  0.33771  1.0000
  C   C53       1.0  0.09603  0.03316  0.28126  1.0000
  C   C54       1.0  0.06777  0.01904  0.28300  1.0000
  C   C55       1.0  0.96745  0.02740  0.34097  1.0000
  C   C56       1.0  0.97517  0.04953  0.28301  1.0000
  C   C57       1.0  0.96104  0.06365  0.28126  1.0000
  C   C58       1.0  0.93867  0.05637  0.33772  1.0000
  C   C59       1.0  0.93105  0.03433  0.39606  1.0000
  C   C60       1.0  0.94508  0.02009  0.39743  1.0000
  C   C61       1.0  0.96681  0.94085  0.34094  1.0000
  C   C62       1.0  0.94468  0.92643  0.28297  1.0000
  C   C63       1.0  0.93054  0.89818  0.28124  1.0000
  C   C64       1.0  0.93782  0.88309  0.33770  1.0000
  C   C65       1.0  0.95987  0.89751  0.39602  1.0000
  C   C66       1.0  0.97411  0.92578  0.39737  1.0000
  H   H37       1.0  0.96756  0.07966  0.23880  1.0000
  H   H38       1.0  0.99096  0.05534  0.24001  1.0000
  H   H39       1.0  0.91482  0.02806  0.43731  1.0000
  H   H40       1.0  0.93894  0.00444  0.44125  1.0000
  H   H41       1.0  0.93886  0.93641  0.24001  1.0000
  H   H42       1.0  0.91453  0.88870  0.23878  1.0000
  H   H43       1.0  0.98975  0.93528  0.44122  1.0000
  H   H44       1.0  0.96613  0.88754  0.43727  1.0000
  H   H45       1.0  0.05780  0.00325  0.24000  1.0000
  H   H46       1.0  0.10551  0.02664  0.23878  1.0000
  H   H47       1.0  0.10666  0.07938  0.43730  1.0000
  H   H48       1.0  0.05892  0.05526  0.44125  1.0000
  H   H49       1.0  0.02048  0.04698  0.34173  1.0000
  H   H50       1.0  0.94722  0.97429  0.34172  1.0000
  H   H51       1.0  0.01991  0.97372  0.34171  1.0000
  C   C67       1.0  0.44185  0.24208  0.34186  1.0000
  C   C68       1.0  0.41359  0.22807  0.33424  1.0000
  C   C69       1.0  0.39857  0.19959  0.33216  1.0000
  C   C70       1.0  0.41282  0.18535  0.33566  1.0000
  C   C71       1.0  0.44108  0.19884  0.34296  1.0000
  C   C72       1.0  0.45518  0.22713  0.34512  1.0000
  C   C73       1.0  0.36978  0.18550  0.32998  1.0000
  C   C74       1.0  0.35490  0.19373  0.38370  1.0000
  C   C75       1.0  0.32664  0.17950  0.38364  1.0000
  C   C76       1.0  0.31202  0.15630  0.33030  1.0000
  C   C77       1.0  0.32684  0.14809  0.27633  1.0000
  C   C78       1.0  0.35510  0.16241  0.27607  1.0000
  C   C79       1.0  0.45744  0.27055  0.34700  1.0000
  C   C80       1.0  0.45826  0.28695  0.27524  1.0000
  C   C81       1.0  0.47806  0.31436  0.27229  1.0000
  C   C82       1.0  0.49757  0.32596  0.34070  1.0000
  C   C83       1.0  0.49558  0.30988  0.41505  1.0000
  C   C84       1.0  0.47585  0.28262  0.41816  1.0000
  C   C85       1.0  0.45584  0.18508  0.34846  1.0000
  C   C86       1.0  0.47486  0.19142  0.41757  1.0000
  C   C87       1.0  0.49325  0.18213  0.41488  1.0000
  C   C88       1.0  0.49326  0.16605  0.34323  1.0000
  C   C89       1.0  0.47340  0.15875  0.27615  1.0000
  C   C90       1.0  0.45487  0.16800  0.27885  1.0000
  H   H52       1.0  0.47941  0.32522  0.21637  1.0000
  H   H53       1.0  0.44593  0.27863  0.22118  1.0000
  H   H54       1.0  0.50933  0.31755  0.46586  1.0000
  H   H55       1.0  0.47603  0.27128  0.47061  1.0000
  H   H56       1.0  0.47650  0.20416  0.46813  1.0000
  H   H57       1.0  0.50778  0.18878  0.46318  1.0000
  H   H58       1.0  0.44194  0.16369  0.22633  1.0000
  H   H59       1.0  0.47290  0.14741  0.22269  1.0000
  H   H60       1.0  0.36489  0.15590  0.23495  1.0000
  H   H61       1.0  0.31714  0.13171  0.23547  1.0000
  H   H62       1.0  0.31681  0.18586  0.42520  1.0000
  H   H63       1.0  0.36453  0.20984  0.42565  1.0000
  H   H64       1.0  0.40388  0.23888  0.33132  1.0000
  H   H65       1.0  0.47574  0.23715  0.34810  1.0000
  H   H66       1.0  0.40250  0.16481  0.33687  1.0000
  C   C91       1.0  0.75211  0.20055  0.34180  1.0000
  C   C92       1.0  0.76611  0.18629  0.33416  1.0000
  C   C93       1.0  0.79460  0.19975  0.33210  1.0000
  C   C94       1.0  0.80883  0.22824  0.33564  1.0000
  C   C95       1.0  0.79536  0.24302  0.34294  1.0000
  C   C96       1.0  0.76706  0.22883  0.34510  1.0000
  C   C97       1.0  0.80868  0.18504  0.32992  1.0000
  C   C98       1.0  0.80044  0.16193  0.38360  1.0000
  C   C99       1.0  0.81467  0.14790  0.38358  1.0000
  C   C100      1.0  0.83788  0.15649  0.33027  1.0000
  C   C101      1.0  0.84610  0.17952  0.27632  1.0000
  C   C102      1.0  0.83177  0.19345  0.27602  1.0000
  C   C103      1.0  0.72364  0.18768  0.34690  1.0000
  C   C104      1.0  0.70725  0.17207  0.27518  1.0000
  C   C105      1.0  0.67984  0.16449  0.27217  1.0000
  C   C106      1.0  0.66822  0.17235  0.34065  1.0000
  C   C107      1.0  0.68431  0.18648  0.41495  1.0000
  C   C108      1.0  0.71157  0.19399  0.41810  1.0000
  C   C109      1.0  0.80912  0.27154  0.34848  1.0000
  C   C110      1.0  0.80279  0.28421  0.41762  1.0000
  C   C111      1.0  0.81211  0.31189  0.41505  1.0000
  C   C112      1.0  0.82815  0.32798  0.34331  1.0000
  C   C113      1.0  0.83544  0.31543  0.27618  1.0000
  C   C114      1.0  0.82618  0.28765  0.27883  1.0000
  H   H67       1.0  0.66896  0.15489  0.21639  1.0000
  H   H68       1.0  0.71557  0.16804  0.22114  1.0000
  H   H69       1.0  0.67663  0.19255  0.46574  1.0000
  H   H70       1.0  0.72291  0.20558  0.47047  1.0000
  H   H71       1.0  0.79005  0.27311  0.46817  1.0000
  H   H72       1.0  0.80543  0.31977  0.46326  1.0000
  H   H73       1.0  0.83052  0.27903  0.22637  1.0000
  H   H74       1.0  0.84679  0.32627  0.22275  1.0000
  H   H75       1.0  0.83829  0.20976  0.23495  1.0000
  H   H76       1.0  0.86247  0.18619  0.23546  1.0000
  H   H77       1.0  0.80831  0.13171  0.42514  1.0000
  H   H78       1.0  0.78433  0.15545  0.42559  1.0000
  H   H79       1.0  0.75530  0.16578  0.33124  1.0000
  H   H80       1.0  0.75705  0.23938  0.34807  1.0000
  H   H81       1.0  0.82938  0.23845  0.33687  1.0000
  C   C115      1.0  0.79370  0.55236  0.34175  1.0000
  C   C116      1.0  0.80794  0.58062  0.33412  1.0000
  C   C117      1.0  0.79447  0.59564  0.33207  1.0000
  C   C118      1.0  0.76598  0.58137  0.33560  1.0000
  C   C119      1.0  0.75121  0.55311  0.34288  1.0000
  C   C120      1.0  0.76542  0.53902  0.34502  1.0000
  C   C121      1.0  0.80917  0.62442  0.32990  1.0000
  C   C122      1.0  0.83228  0.63931  0.38358  1.0000
  C   C123      1.0  0.84630  0.66757  0.38356  1.0000
  C   C124      1.0  0.83771  0.68218  0.33026  1.0000
  C   C125      1.0  0.81468  0.66737  0.27631  1.0000
  C   C126      1.0  0.80075  0.63910  0.27601  1.0000
  C   C127      1.0  0.80659  0.53678  0.34682  1.0000
  C   C128      1.0  0.82210  0.53591  0.27497  1.0000
  C   C129      1.0  0.82973  0.51612  0.27205  1.0000
  C   C130      1.0  0.82188  0.49666  0.34060  1.0000
  C   C131      1.0  0.80779  0.49866  0.41496  1.0000
  C   C132      1.0  0.80028  0.51840  0.41804  1.0000
  C   C133      1.0  0.72269  0.53834  0.34839  1.0000
  C   C134      1.0  0.71003  0.51931  0.41747  1.0000
  C   C135      1.0  0.68235  0.50095  0.41489  1.0000
  C   C136      1.0  0.66624  0.50092  0.34324  1.0000
  C   C137      1.0  0.67881  0.52074  0.27607  1.0000
  C   C138      1.0  0.70658  0.53930  0.27878  1.0000
  H   H82       1.0  0.83932  0.51482  0.21627  1.0000
  H   H83       1.0  0.82620  0.54831  0.22102  1.0000
  H   H84       1.0  0.80171  0.48491  0.46574  1.0000
  H   H85       1.0  0.78872  0.51819  0.47045  1.0000
  H   H86       1.0  0.72113  0.51772  0.46814  1.0000
  H   H87       1.0  0.67447  0.48644  0.46326  1.0000
  H   H88       1.0  0.71519  0.55223  0.22627  1.0000
  H   H89       1.0  0.66796  0.52126  0.22267  1.0000
  H   H90       1.0  0.78444  0.62931  0.23494  1.0000
  H   H91       1.0  0.80800  0.67707  0.23547  1.0000
  H   H92       1.0  0.86249  0.67740  0.42513  1.0000
  H   H93       1.0  0.83877  0.62968  0.42557  1.0000
  H   H94       1.0  0.82846  0.59034  0.33120  1.0000
  H   H95       1.0  0.75488  0.51846  0.34798  1.0000
  H   H96       1.0  0.75576  0.59169  0.33682  1.0000
  C   C139      1.0  0.28329  0.14153  0.33149  1.0000
  C   C140      1.0  0.26900  0.11319  0.33852  1.0000
  C   C141      1.0  0.24057  0.09816  0.33969  1.0000
  C   C142      1.0  0.18333  0.09186  0.41317  1.0000
  C   C143      1.0  0.15512  0.07797  0.41533  1.0000
  H   H97       1.0  0.19362  0.09705  0.47246  1.0000
  H   H98       1.0  0.14580  0.07323  0.47628  1.0000
  H   H99       1.0  0.27957  0.10331  0.34446  1.0000
  C   C144      1.0  0.22671  0.06840  0.34782  1.0000
  H   H100      1.0  0.24071  0.06085  0.35179  1.0000
  H   H101      1.0  0.21382  0.05912  0.28989  1.0000
  H   H102      1.0  0.21442  0.06204  0.40819  1.0000
  C   C145      1.0  0.85265  0.14253  0.33148  1.0000
  C   C146      1.0  0.88099  0.15658  0.33855  1.0000
  C   C147      1.0  0.89603  0.14319  0.33972  1.0000
  C   C148      1.0  0.90234  0.09226  0.41319  1.0000
  C   C149      1.0  0.91623  0.07794  0.41535  1.0000
  H   H103      1.0  0.89714  0.09734  0.47248  1.0000
  H   H104      1.0  0.92097  0.07335  0.47630  1.0000
  H   H105      1.0  0.89087  0.17704  0.34446  1.0000
  C   C150      1.0  0.92578  0.15909  0.34785  1.0000
  H   H106      1.0  0.93334  0.18065  0.35182  1.0000
  H   H107      1.0  0.93507  0.15548  0.28991  1.0000
  H   H108      1.0  0.93215  0.15317  0.40821  1.0000
  C   C151      1.0  0.85167  0.71092  0.33148  1.0000
  C   C152      1.0  0.83760  0.72519  0.33858  1.0000
  C   C153      1.0  0.85099  0.75362  0.33974  1.0000
  C   C154      1.0  0.90192  0.81088  0.41319  1.0000
  C   C155      1.0  0.91624  0.83908  0.41534  1.0000
  H   H109      1.0  0.89685  0.80059  0.47248  1.0000
  H   H110      1.0  0.92085  0.84841  0.47628  1.0000
  H   H111      1.0  0.81715  0.71462  0.34448  1.0000
  C   C156      1.0  0.83508  0.76747  0.34787  1.0000
  H   H112      1.0  0.81353  0.75346  0.35187  1.0000
  H   H113      1.0  0.83869  0.78037  0.28995  1.0000
  H   H114      1.0  0.84101  0.77977  0.40824  1.0000
  C   C157      1.0  0.58950  0.16212  0.32433  1.0000
  C   C158      1.0  0.59341  0.13992  0.31291  1.0000
  C   C159      1.0  0.61933  0.14320  0.31601  1.0000
  H   H115      1.0  0.62146  0.12665  0.30999  1.0000
  C   C160      1.0  0.56291  0.15780  0.32741  1.0000
  C   C161      1.0  0.51456  0.16013  0.33544  1.0000
  C   C162      1.0  0.52417  0.15272  0.41116  1.0000
  C   C163      1.0  0.54825  0.15170  0.40895  1.0000
  H   H116      1.0  0.51401  0.14914  0.47037  1.0000
  H   H117      1.0  0.57732  0.12106  0.30405  1.0000
  C   C164      1.0  0.55828  0.14563  0.49252  1.0000
  H   H118      1.0  0.57778  0.16264  0.51051  1.0000
  H   H119      1.0  0.56042  0.12802  0.48225  1.0000
  H   H120      1.0  0.54479  0.14149  0.54917  1.0000
  C   C165      1.0  0.83213  0.42818  0.32449  1.0000
  C   C166      1.0  0.85432  0.45428  0.31295  1.0000
  C   C167      1.0  0.85103  0.47692  0.31604  1.0000
  H   H121      1.0  0.86758  0.49560  0.30982  1.0000
  C   C168      1.0  0.83646  0.40591  0.32758  1.0000
  C   C169      1.0  0.83408  0.35520  0.33560  1.0000
  C   C170      1.0  0.84151  0.37223  0.41131  1.0000
  C   C171      1.0  0.84255  0.39734  0.40910  1.0000
  H   H122      1.0  0.84511  0.36565  0.47049  1.0000
  H   H123      1.0  0.87318  0.45706  0.30398  1.0000
  C   C172      1.0  0.84866  0.41346  0.49265  1.0000
  H   H124      1.0  0.83167  0.41598  0.51068  1.0000
  H   H125      1.0  0.86628  0.43319  0.48232  1.0000
  H   H126      1.0  0.85280  0.40410  0.54929  1.0000
  C   C173      1.0  0.56605  0.40468  0.32443  1.0000
  C   C174      1.0  0.53995  0.40077  0.31288  1.0000
  C   C175      1.0  0.51731  0.37485  0.31606  1.0000
  H   H127      1.0  0.49863  0.37272  0.30988  1.0000
  C   C176      1.0  0.58832  0.43127  0.32752  1.0000
  C   C177      1.0  0.63903  0.47961  0.33552  1.0000
  C   C178      1.0  0.62201  0.47000  0.41125  1.0000
  C   C179      1.0  0.59690  0.44594  0.40904  1.0000
  H   H128      1.0  0.62858  0.48020  0.47041  1.0000
  H   H129      1.0  0.53718  0.41686  0.30398  1.0000
  C   C180      1.0  0.58078  0.43594  0.49257  1.0000
  H   H130      1.0  0.57824  0.41643  0.51062  1.0000
  H   H131      1.0  0.56105  0.43384  0.48224  1.0000
  H   H132      1.0  0.59013  0.44943  0.54922  1.0000
