data_image0
_chemical_formula_structural       C3H3NC5H3NC2HCHC3H2N3C3H3NC3H3C2HCNCHNCNCHCNCHCNCHC6H3C6H3C6H3C6H3C6H3C2HCNCHCNCHN2C3H3C3H3NC3H3NC3H3NC3H3
_chemical_formula_sum              "C81 H54 N18"
_cell_length_a       30.3353
_cell_length_b       30.3353
_cell_length_c       14.7552
_cell_angle_alpha    90
_cell_angle_beta     90
_cell_angle_gamma    120

_space_group_name_H-M_alt    "P 1"
_space_group_IT_number       1

loop_
  _space_group_symop_operation_xyz
  'x, y, z'

loop_
  _atom_site_type_symbol
  _atom_site_label
  _atom_site_symmetry_multiplicity
  _atom_site_fract_x
  _atom_site_fract_y
  _atom_site_fract_z
  _atom_site_occupancy
  C   C1        1.0  0.03538  0.48782  0.32044  1.0000
  C   C2        1.0  0.06608  0.53035  0.37735  1.0000
  C   C3        1.0  0.05476  0.46862  0.24719  1.0000
  H   H1        1.0  0.02397  0.44196  0.20315  1.0000
  H   H2        1.0  0.07295  0.44859  0.27570  1.0000
  H   H3        1.0  0.08207  0.50017  0.20528  1.0000
  N   N1        1.0  0.04031  0.54640  0.43154  1.0000
  C   C4        1.0  0.20228  0.56090  0.34502  1.0000
  C   C5        1.0  0.19863  0.64099  0.33713  1.0000
  C   C6        1.0  0.14677  0.61331  0.36324  1.0000
  C   C7        1.0  0.12089  0.55938  0.37346  1.0000
  C   C8        1.0  0.15065  0.53497  0.37244  1.0000
  H   H4        1.0  0.12663  0.63210  0.36599  1.0000
  H   H5        1.0  0.13353  0.49677  0.38456  1.0000
  H   H6        1.0  0.18547  0.47357  0.48996  1.0000
  N   N2        1.0  0.26403  0.55354  0.26074  1.0000
  C   C9        1.0  0.22723  0.69451  0.32426  1.0000
  C   C10       1.0  0.26020  0.71429  0.24893  1.0000
  H   H7        1.0  0.25450  0.69262  0.19234  1.0000
  C   C11       1.0  0.22440  0.61333  0.32536  1.0000
  H   H8        1.0  0.26256  0.63330  0.31056  1.0000
  C   C12       1.0  0.24963  0.51877  0.40804  1.0000
  C   C13       1.0  0.23390  0.53891  0.33577  1.0000
  C   C14       1.0  0.22424  0.50529  0.49744  1.0000
  H   H9        1.0  0.24430  0.49382  0.54481  1.0000
  H   H10       1.0  0.22310  0.53783  0.52636  1.0000
  N   N3        1.0  0.24227  0.72454  0.39985  1.0000
  N   N4        1.0  0.98381  0.46556  0.32728  1.0000
  N   N5        1.0  0.55507  0.52227  0.32619  1.0000
  C   C15       1.0  0.53279  0.55155  0.31937  1.0000
  C   C16       1.0  0.49052  0.53994  0.37682  1.0000
  C   C17       1.0  0.55166  0.58984  0.24563  1.0000
  H   H11       1.0  0.57814  0.58555  0.20137  1.0000
  H   H12       1.0  0.57179  0.62817  0.27365  1.0000
  H   H13       1.0  0.51993  0.58542  0.20408  1.0000
  N   N6        1.0  0.49771  0.03674  0.32878  1.0000
  C   C18       1.0  0.46831  0.98518  0.32200  1.0000
  C   C19       1.0  0.48080  0.95442  0.37741  1.0000
  C   C20       1.0  0.42907  0.96600  0.24985  1.0000
  H   H14       1.0  0.43303  0.99685  0.20618  1.0000
  H   H15       1.0  0.39113  0.94809  0.27951  1.0000
  H   H16       1.0  0.43266  0.93852  0.20732  1.0000
  C   C21       1.0  0.32635  0.53715  0.32530  1.0000
  C   C22       1.0  0.30658  0.55044  0.25005  1.0000
  H   H17       1.0  0.32808  0.56645  0.19327  1.0000
  C   C23       1.0  0.48412  0.79343  0.32343  1.0000
  N   N7        1.0  0.46778  0.71475  0.25951  1.0000
  C   C24       1.0  0.47119  0.76051  0.24811  1.0000
  H   H18       1.0  0.45478  0.76567  0.19160  1.0000
  N   N8        1.0  0.30606  0.75656  0.25979  1.0000
  C   C25       1.0  0.70084  0.47936  0.32316  1.0000
  N   N9        1.0  0.76316  0.46346  0.25781  1.0000
  C   C26       1.0  0.72021  0.46585  0.24773  1.0000
  H   H19       1.0  0.69846  0.44954  0.19134  1.0000
  C   C27       1.0  0.54131  0.22537  0.32382  1.0000
  N   N10       1.0  0.55752  0.30363  0.25783  1.0000
  C   C28       1.0  0.55472  0.25808  0.24812  1.0000
  H   H20       1.0  0.57098  0.25235  0.19197  1.0000
  C   C29       1.0  0.79499  0.32010  0.32442  1.0000
  N   N11       1.0  0.71681  0.25792  0.25874  1.0000
  C   C30       1.0  0.76222  0.30082  0.24880  1.0000
  H   H21       1.0  0.76778  0.32277  0.19265  1.0000
  C   C31       1.0  0.46016  0.64570  0.34438  1.0000
  C   C32       1.0  0.40769  0.61543  0.32506  1.0000
  C   C33       1.0  0.37995  0.56202  0.33714  1.0000
  C   C34       1.0  0.40757  0.53783  0.36365  1.0000
  C   C35       1.0  0.46155  0.56580  0.37310  1.0000
  C   C36       1.0  0.48607  0.61997  0.37171  1.0000
  H   H22       1.0  0.38875  0.49890  0.36650  1.0000
  H   H23       1.0  0.52432  0.64102  0.38346  1.0000
  H   H24       1.0  0.38778  0.63370  0.31032  1.0000
  C   C37       1.0  0.37534  0.81819  0.34397  1.0000
  C   C38       1.0  0.40576  0.79631  0.32332  1.0000
  C   C39       1.0  0.45915  0.82205  0.33571  1.0000
  C   C40       1.0  0.48321  0.87376  0.36286  1.0000
  C   C41       1.0  0.45510  0.89959  0.37311  1.0000
  C   C42       1.0  0.40095  0.86968  0.37222  1.0000
  H   H25       1.0  0.52213  0.89394  0.36566  1.0000
  H   H26       1.0  0.37977  0.88663  0.38498  1.0000
  H   H27       1.0  0.38763  0.75820  0.30820  1.0000
  C   C43       1.0  0.82437  0.45556  0.34269  1.0000
  C   C44       1.0  0.80084  0.40286  0.32343  1.0000
  C   C45       1.0  0.82475  0.37361  0.33690  1.0000
  C   C46       1.0  0.87600  0.39972  0.36608  1.0000
  C   C47       1.0  0.90333  0.45357  0.37794  1.0000
  C   C48       1.0  0.87579  0.48018  0.37205  1.0000
  H   H28       1.0  0.89466  0.37955  0.37204  1.0000
  H   H29       1.0  0.89467  0.51890  0.37932  1.0000
  H   H30       1.0  0.76277  0.38382  0.30782  1.0000
  C   C49       1.0  0.56551  0.37315  0.34214  1.0000
  C   C50       1.0  0.61811  0.40240  0.32212  1.0000
  C   C51       1.0  0.64732  0.45558  0.33550  1.0000
  C   C52       1.0  0.62120  0.48065  0.36503  1.0000
  C   C53       1.0  0.56738  0.45405  0.37718  1.0000
  C   C54       1.0  0.54086  0.39989  0.37170  1.0000
  H   H31       1.0  0.64133  0.51948  0.37093  1.0000
  H   H32       1.0  0.50217  0.37999  0.37934  1.0000
  H   H33       1.0  0.63719  0.38344  0.30630  1.0000
  C   C55       1.0  0.64763  0.19647  0.34332  1.0000
  C   C56       1.0  0.61837  0.21987  0.32389  1.0000
  C   C57       1.0  0.56517  0.19580  0.33697  1.0000
  C   C58       1.0  0.54010  0.14451  0.36592  1.0000
  C   C59       1.0  0.56672  0.11729  0.37801  1.0000
  C   C60       1.0  0.62090  0.14501  0.37251  1.0000
  H   H34       1.0  0.50126  0.12578  0.37178  1.0000
  H   H35       1.0  0.64083  0.12624  0.37991  1.0000
  H   H36       1.0  0.63731  0.25792  0.30816  1.0000
  C   C61       1.0  0.95793  0.47999  0.38387  1.0000
  C   C62       1.0  0.98856  0.52363  0.43684  1.0000
  H   H37       1.0  0.97262  0.53822  0.47964  1.0000
  C   C63       1.0  0.54089  0.48216  0.38318  1.0000
  N   N12       1.0  0.47468  0.49831  0.43141  1.0000
  C   C64       1.0  0.49745  0.46932  0.43661  1.0000
  H   H38       1.0  0.48306  0.43895  0.47978  1.0000
  C   C65       1.0  0.53863  0.06266  0.38411  1.0000
  N   N13       1.0  0.52318  0.98021  0.43030  1.0000
  C   C66       1.0  0.55218  0.03197  0.43564  1.0000
  H   H39       1.0  0.58316  0.04787  0.47745  1.0000
  N   N14       1.0  0.29614  0.52170  0.40058  1.0000
  N   N15       1.0  0.49932  0.77877  0.39918  1.0000
  C   C67       1.0  0.50224  0.73521  0.40706  1.0000
  C   C68       1.0  0.48226  0.69930  0.33481  1.0000
  C   C69       1.0  0.51538  0.72329  0.49675  1.0000
  H   H40       1.0  0.52681  0.75488  0.54398  1.0000
  H   H41       1.0  0.54702  0.71608  0.48979  1.0000
  H   H42       1.0  0.48268  0.68970  0.52552  1.0000
  C   C70       1.0  0.28595  0.77096  0.40746  1.0000
  C   C71       1.0  0.32171  0.78645  0.33510  1.0000
  C   C72       1.0  0.29805  0.79596  0.49721  1.0000
  H   H43       1.0  0.26653  0.77583  0.54460  1.0000
  H   H44       1.0  0.30529  0.83483  0.49043  1.0000
  H   H45       1.0  0.33166  0.79679  0.52571  1.0000
  N   N16       1.0  0.73157  0.49584  0.39771  1.0000
  C   C73       1.0  0.77826  0.49910  0.40453  1.0000
  C   C74       1.0  0.79374  0.47864  0.33235  1.0000
  C   C75       1.0  0.80416  0.51332  0.49341  1.0000
  H   H46       1.0  0.78454  0.52547  0.54050  1.0000
  H   H47       1.0  0.84299  0.54477  0.48484  1.0000
  H   H48       1.0  0.80521  0.48094  0.52329  1.0000
  N   N17       1.0  0.52516  0.24016  0.39821  1.0000
  C   C76       1.0  0.52206  0.28369  0.40469  1.0000
  C   C77       1.0  0.54271  0.31944  0.33224  1.0000
  C   C78       1.0  0.50804  0.29566  0.49353  1.0000
  H   H49       1.0  0.49589  0.26399  0.54085  1.0000
  H   H50       1.0  0.47665  0.30312  0.48498  1.0000
  H   H51       1.0  0.54053  0.32910  0.52313  1.0000
  N   N18       1.0  0.78070  0.28927  0.39885  1.0000
  C   C79       1.0  0.73724  0.24259  0.40542  1.0000
  C   C80       1.0  0.70135  0.22730  0.33319  1.0000
  C   C81       1.0  0.72549  0.21651  0.49416  1.0000
  H   H52       1.0  0.75721  0.23606  0.54135  1.0000
  H   H53       1.0  0.71814  0.17771  0.48535  1.0000
  H   H54       1.0  0.69203  0.21540  0.52405  1.0000
