data_image0
_chemical_formula_structural       C18H9C3O3C18H9C3O3C2HC6H3NHC2HC6H3NHC2HC6H3NHC6H6C6H6C2NC2NHCH3NHC2NC2NHCH3NHC2NC2NHCH3NH
_chemical_formula_sum              "C93 H60 O6 N12"
_cell_length_a       44.2403
_cell_length_b       44.2403
_cell_length_c       15.0424
_cell_angle_alpha    90
_cell_angle_beta     90
_cell_angle_gamma    120

_space_group_name_H-M_alt    "P 1"
_space_group_IT_number       1

loop_
  _space_group_symop_operation_xyz
  'x, y, z'

loop_
  _atom_site_type_symbol
  _atom_site_label
  _atom_site_symmetry_multiplicity
  _atom_site_fract_x
  _atom_site_fract_y
  _atom_site_fract_z
  _atom_site_occupancy
  C   C1        1.0  0.29442  0.64259  0.32803  1.0000
  C   C2        1.0  0.30887  0.67921  0.32786  1.0000
  C   C3        1.0  0.34536  0.70207  0.32803  1.0000
  C   C4        1.0  0.36752  0.68761  0.32791  1.0000
  C   C5        1.0  0.35390  0.65113  0.32808  1.0000
  C   C6        1.0  0.31728  0.62896  0.32792  1.0000
  C   C7        1.0  0.35950  0.73884  0.32990  1.0000
  C   C8        1.0  0.34813  0.75544  0.26906  1.0000
  C   C9        1.0  0.36260  0.79188  0.27028  1.0000
  C   C10       1.0  0.38896  0.81284  0.33204  1.0000
  C   C11       1.0  0.25765  0.61995  0.32992  1.0000
  C   C12       1.0  0.18365  0.57538  0.33218  1.0000
  C   C13       1.0  0.20461  0.56998  0.27041  1.0000
  C   C14       1.0  0.24104  0.59197  0.26913  1.0000
  C   C15       1.0  0.37654  0.63699  0.33003  1.0000
  C   C16       1.0  0.42109  0.60756  0.33235  1.0000
  C   C17       1.0  0.42651  0.63392  0.27058  1.0000
  C   C18       1.0  0.40453  0.64838  0.26928  1.0000
  H   H1        1.0  0.19348  0.55054  0.22391  1.0000
  H   H2        1.0  0.25525  0.58785  0.22190  1.0000
  H   H3        1.0  0.40864  0.66667  0.22198  1.0000
  H   H4        1.0  0.44593  0.64220  0.22405  1.0000
  H   H5        1.0  0.35430  0.80301  0.22376  1.0000
  H   H6        1.0  0.32981  0.74123  0.22183  1.0000
  H   H7        1.0  0.29256  0.68939  0.32839  1.0000
  H   H8        1.0  0.30709  0.60247  0.32849  1.0000
  H   H9        1.0  0.39402  0.70392  0.32848  1.0000
  C   C19       1.0  0.40409  0.84972  0.33042  1.0000
  C   C20       1.0  0.14678  0.55361  0.33062  1.0000
  C   C21       1.0  0.44285  0.59243  0.33079  1.0000
  O   O1        1.0  0.47683  0.61338  0.30857  1.0000
  O   O2        1.0  0.13375  0.51963  0.30838  1.0000
  O   O3        1.0  0.38315  0.86276  0.30818  1.0000
  C   C22       1.0  0.70154  0.35456  0.31305  1.0000
  C   C23       1.0  0.68671  0.31786  0.31284  1.0000
  C   C24       1.0  0.65020  0.29495  0.31309  1.0000
  C   C25       1.0  0.62832  0.30977  0.31282  1.0000
  C   C26       1.0  0.64192  0.34628  0.31302  1.0000
  C   C27       1.0  0.67862  0.36816  0.31278  1.0000
  C   C28       1.0  0.63585  0.25795  0.31590  1.0000
  C   C29       1.0  0.65021  0.24132  0.26458  1.0000
  C   C30       1.0  0.63616  0.20494  0.26811  1.0000
  C   C31       1.0  0.60667  0.18401  0.32133  1.0000
  C   C32       1.0  0.73853  0.37721  0.31582  1.0000
  C   C33       1.0  0.81246  0.42201  0.32121  1.0000
  C   C34       1.0  0.79151  0.43055  0.26800  1.0000
  C   C35       1.0  0.75514  0.40820  0.26449  1.0000
  C   C36       1.0  0.61927  0.36063  0.31572  1.0000
  C   C37       1.0  0.57448  0.38977  0.32101  1.0000
  C   C38       1.0  0.56596  0.36030  0.26778  1.0000
  C   C39       1.0  0.58828  0.34625  0.26437  1.0000
  H   H10       1.0  0.80265  0.45243  0.22897  1.0000
  H   H11       1.0  0.74098  0.41458  0.22256  1.0000
  H   H12       1.0  0.58190  0.32569  0.22252  1.0000
  H   H13       1.0  0.54405  0.34951  0.22886  1.0000
  H   H14       1.0  0.64690  0.19379  0.22911  1.0000
  H   H15       1.0  0.67075  0.25547  0.22266  1.0000
  H   H16       1.0  0.70289  0.30756  0.31356  1.0000
  H   H17       1.0  0.68891  0.39463  0.31346  1.0000
  H   H18       1.0  0.60185  0.29358  0.31351  1.0000
  C   C40       1.0  0.59172  0.14733  0.32352  1.0000
  C   C41       1.0  0.84914  0.44376  0.32335  1.0000
  C   C42       1.0  0.55273  0.40470  0.32311  1.0000
  O   O4        1.0  0.51780  0.38289  0.32896  1.0000
  O   O5        1.0  0.86226  0.47869  0.32909  1.0000
  O   O6        1.0  0.61352  0.13420  0.32920  1.0000
  C   C43       1.0  0.48642  0.52588  0.25427  1.0000
  C   C44       1.0  0.46696  0.54300  0.26312  1.0000
  H   H19       1.0  0.46467  0.55612  0.20984  1.0000
  C   C45       1.0  0.50767  0.48972  0.32248  1.0000
  C   C46       1.0  0.54641  0.45539  0.31421  1.0000
  C   C47       1.0  0.54580  0.47478  0.24043  1.0000
  C   C48       1.0  0.52589  0.49166  0.24292  1.0000
  C   C49       1.0  0.52377  0.51032  0.16934  1.0000
  C   C50       1.0  0.50394  0.52709  0.17475  1.0000
  H   H20       1.0  0.53660  0.51183  0.11142  1.0000
  H   H21       1.0  0.50284  0.54058  0.12075  1.0000
  H   H22       1.0  0.55938  0.47595  0.18419  1.0000
  N   N1        1.0  0.56609  0.43964  0.31270  1.0000
  H   H23       1.0  0.59041  0.45393  0.29438  1.0000
  C   C51       1.0  0.47065  0.95990  0.25424  1.0000
  C   C52       1.0  0.45354  0.92331  0.26294  1.0000
  H   H24       1.0  0.44044  0.90793  0.20959  1.0000
  C   C53       1.0  0.50677  0.01727  0.32269  1.0000
  C   C54       1.0  0.54105  0.09034  0.31477  1.0000
  C   C55       1.0  0.52172  0.07038  0.24086  1.0000
  C   C56       1.0  0.50487  0.03360  0.24318  1.0000
  C   C57       1.0  0.48624  0.01286  0.16952  1.0000
  C   C58       1.0  0.46947  0.97626  0.17478  1.0000
  H   H25       1.0  0.48475  0.02421  0.11163  1.0000
  H   H26       1.0  0.45601  0.96169  0.12071  1.0000
  H   H27       1.0  0.52055  0.08284  0.18470  1.0000
  N   N2        1.0  0.55675  0.12577  0.31354  1.0000
  H   H28       1.0  0.54248  0.13577  0.29494  1.0000
  C   C59       1.0  0.03661  0.51000  0.25424  1.0000
  C   C60       1.0  0.07320  0.52945  0.26305  1.0000
  H   H29       1.0  0.08860  0.53172  0.20975  1.0000
  C   C61       1.0  0.97922  0.48879  0.32248  1.0000
  C   C62       1.0  0.90614  0.45007  0.31430  1.0000
  C   C63       1.0  0.92613  0.45068  0.24050  1.0000
  C   C64       1.0  0.96292  0.47056  0.24295  1.0000
  C   C65       1.0  0.98368  0.47265  0.16938  1.0000
  C   C66       1.0  0.02028  0.49246  0.17474  1.0000
  H   H30       1.0  0.97236  0.45981  0.11147  1.0000
  H   H31       1.0  0.03487  0.49354  0.12075  1.0000
  H   H32       1.0  0.91370  0.43706  0.18431  1.0000
  N   N3        1.0  0.87072  0.43040  0.31284  1.0000
  H   H33       1.0  0.86068  0.40608  0.29452  1.0000
  C   C67       1.0  0.39974  0.79609  0.39410  1.0000
  C   C68       1.0  0.38528  0.75967  0.39294  1.0000
  C   C69       1.0  0.23682  0.62491  0.39297  1.0000
  C   C70       1.0  0.20041  0.60293  0.39417  1.0000
  C   C71       1.0  0.37157  0.61122  0.39312  1.0000
  C   C72       1.0  0.39354  0.59677  0.39433  1.0000
  H   H34       1.0  0.18640  0.60705  0.44189  1.0000
  H   H35       1.0  0.24803  0.64436  0.43941  1.0000
  H   H36       1.0  0.35210  0.60296  0.43950  1.0000
  H   H37       1.0  0.38940  0.57862  0.44204  1.0000
  H   H38       1.0  0.39352  0.74846  0.43940  1.0000
  H   H39       1.0  0.41788  0.81010  0.44179  1.0000
  C   C73       1.0  0.59224  0.20034  0.37294  1.0000
  C   C74       1.0  0.60687  0.23676  0.37097  1.0000
  C   C75       1.0  0.75974  0.36944  0.37087  1.0000
  C   C76       1.0  0.79616  0.39126  0.37283  1.0000
  C   C77       1.0  0.62704  0.38962  0.37073  1.0000
  C   C78       1.0  0.60523  0.40423  0.37263  1.0000
  H   H40       1.0  0.81057  0.38480  0.41369  1.0000
  H   H41       1.0  0.74888  0.34792  0.41110  1.0000
  H   H42       1.0  0.64856  0.40028  0.41098  1.0000
  H   H43       1.0  0.61168  0.42509  0.41349  1.0000
  H   H44       1.0  0.59622  0.24764  0.41120  1.0000
  H   H45       1.0  0.57139  0.18595  0.41384  1.0000
  C   C79       1.0  0.45036  0.54216  0.34423  1.0000
  C   C80       1.0  0.45275  0.52259  0.41596  1.0000
  N   N4        1.0  0.47157  0.50627  0.40466  1.0000
  C   C81       1.0  0.48831  0.50706  0.32832  1.0000
  C   C82       1.0  0.52752  0.45417  0.39100  1.0000
  N   N5        1.0  0.50930  0.47128  0.39274  1.0000
  H   H46       1.0  0.52796  0.44113  0.44659  1.0000
  C   C83       1.0  0.43735  0.51950  0.50516  1.0000
  H   H47       1.0  0.42389  0.53435  0.51161  1.0000
  H   H48       1.0  0.45798  0.52910  0.55524  1.0000
  H   H49       1.0  0.41872  0.49214  0.51897  1.0000
  N   N6        1.0  0.43090  0.55820  0.35015  1.0000
  H   H50       1.0  0.40642  0.54323  0.36559  1.0000
  C   C84       1.0  0.45435  0.90750  0.34400  1.0000
  C   C85       1.0  0.47388  0.92942  0.41583  1.0000
  N   N7        1.0  0.49020  0.96457  0.40466  1.0000
  C   C86       1.0  0.48944  0.98057  0.32838  1.0000
  C   C87       1.0  0.54226  0.07262  0.39147  1.0000
  N   N8        1.0  0.52517  0.03729  0.39305  1.0000
  H   H51       1.0  0.55525  0.08607  0.44715  1.0000
  C   C88       1.0  0.47696  0.91706  0.50498  1.0000
  H   H52       1.0  0.46210  0.88874  0.51132  1.0000
  H   H53       1.0  0.46734  0.92805  0.55511  1.0000
  H   H54       1.0  0.50431  0.92578  0.51880  1.0000
  N   N9        1.0  0.43832  0.87200  0.34976  1.0000
  H   H55       1.0  0.45328  0.86248  0.36528  1.0000
  C   C89       1.0  0.08898  0.54605  0.34414  1.0000
  C   C90       1.0  0.06703  0.54370  0.41587  1.0000
  N   N10       1.0  0.03189  0.52489  0.40460  1.0000
  C   C91       1.0  0.01592  0.50814  0.32829  1.0000
  C   C92       1.0  0.92383  0.46898  0.39105  1.0000
  N   N11       1.0  0.95916  0.48719  0.39275  1.0000
  H   H56       1.0  0.91036  0.46855  0.44665  1.0000
  C   C93       1.0  0.07936  0.55912  0.50504  1.0000
  H   H57       1.0  0.10768  0.57256  0.51148  1.0000
  H   H58       1.0  0.06832  0.53851  0.55516  1.0000
  H   H59       1.0  0.07066  0.57778  0.51880  1.0000
  N   N12       1.0  0.12448  0.56554  0.34996  1.0000
  H   H60       1.0  0.13398  0.59001  0.36546  1.0000
