data_image0
_chemical_formula_structural       C3H2CH2C3H2CH2C3H2CH2CNCNCNC18H12NHNHNHCNCNCNC18H12NHNHNHC3NC2NH2CH2C3NC2NH2CH2C3NC2NH2CH2
_chemical_formula_sum              "C72 H54 N18"
_cell_length_a       36.5933
_cell_length_b       36.594
_cell_length_c       15.0481
_cell_angle_alpha    90
_cell_angle_beta     90
_cell_angle_gamma    120

_space_group_name_H-M_alt    "P 1"
_space_group_IT_number       1

loop_
  _space_group_symop_operation_xyz
  'x, y, z'

loop_
  _atom_site_type_symbol
  _atom_site_label
  _atom_site_symmetry_multiplicity
  _atom_site_fract_x
  _atom_site_fract_y
  _atom_site_fract_z
  _atom_site_occupancy
  C   C1        1.0  0.52403  0.47667  0.31239  1.0000
  C   C2        1.0  0.51474  0.49777  0.24537  1.0000
  C   C3        1.0  0.48766  0.51380  0.26211  1.0000
  H   H1        1.0  0.48195  0.52870  0.21111  1.0000
  H   H2        1.0  0.52711  0.50110  0.18294  1.0000
  C   C4        1.0  0.55046  0.45743  0.29161  1.0000
  H   H3        1.0  0.56156  0.46319  0.22265  1.0000
  H   H4        1.0  0.52997  0.42333  0.29893  1.0000
  C   C5        1.0  0.51928  0.04654  0.31240  1.0000
  C   C6        1.0  0.49818  0.01615  0.24538  1.0000
  C   C7        1.0  0.48217  0.97305  0.26210  1.0000
  H   H5        1.0  0.46728  0.95245  0.21110  1.0000
  H   H6        1.0  0.49486  0.02520  0.18293  1.0000
  C   C8        1.0  0.53852  0.09221  0.29161  1.0000
  H   H7        1.0  0.53276  0.09756  0.22265  1.0000
  H   H8        1.0  0.57262  0.10581  0.29890  1.0000
  C   C9        1.0  0.94948  0.47197  0.31236  1.0000
  C   C10       1.0  0.97989  0.48127  0.24538  1.0000
  C   C11       1.0  0.02299  0.50835  0.26216  1.0000
  H   H9        1.0  0.04361  0.51406  0.21119  1.0000
  H   H10       1.0  0.97086  0.46890  0.18294  1.0000
  C   C12       1.0  0.90382  0.44555  0.29153  1.0000
  H   H11       1.0  0.89848  0.43444  0.22257  1.0000
  H   H12       1.0  0.89021  0.46605  0.29880  1.0000
  C   C13       1.0  0.28764  0.64586  0.33672  1.0000
  N   N1        1.0  0.30746  0.62285  0.33605  1.0000
  C   C14       1.0  0.35016  0.64097  0.33664  1.0000
  N   N2        1.0  0.37318  0.68380  0.33600  1.0000
  C   C15       1.0  0.35506  0.70838  0.33667  1.0000
  N   N3        1.0  0.31222  0.68856  0.33605  1.0000
  C   C16       1.0  0.36976  0.61601  0.32931  1.0000
  C   C17       1.0  0.34752  0.57239  0.35005  1.0000
  C   C18       1.0  0.36617  0.54723  0.33759  1.0000
  C   C19       1.0  0.40743  0.56509  0.30303  1.0000
  C   C20       1.0  0.42991  0.60839  0.28252  1.0000
  C   C21       1.0  0.41149  0.63363  0.29632  1.0000
  C   C22       1.0  0.24308  0.62627  0.32940  1.0000
  C   C23       1.0  0.21897  0.58456  0.29637  1.0000
  C   C24       1.0  0.17530  0.56614  0.28257  1.0000
  C   C25       1.0  0.15449  0.58861  0.30314  1.0000
  C   C26       1.0  0.17789  0.62986  0.33774  1.0000
  C   C27       1.0  0.22171  0.64851  0.35020  1.0000
  C   C28       1.0  0.38001  0.75294  0.32927  1.0000
  C   C29       1.0  0.36238  0.77704  0.29629  1.0000
  C   C30       1.0  0.38761  0.82071  0.28254  1.0000
  C   C31       1.0  0.43091  0.84153  0.30298  1.0000
  C   C32       1.0  0.44879  0.81814  0.33752  1.0000
  C   C33       1.0  0.42364  0.77432  0.34998  1.0000
  H   H13       1.0  0.15878  0.53632  0.25676  1.0000
  H   H14       1.0  0.23310  0.56754  0.27875  1.0000
  H   H15       1.0  0.16326  0.64673  0.35211  1.0000
  H   H16       1.0  0.23782  0.67869  0.37425  1.0000
  H   H17       1.0  0.33122  0.76292  0.27889  1.0000
  H   H18       1.0  0.37429  0.83723  0.25684  1.0000
  H   H19       1.0  0.43773  0.75823  0.37396  1.0000
  H   H20       1.0  0.48031  0.83279  0.35177  1.0000
  H   H21       1.0  0.42851  0.66478  0.27879  1.0000
  H   H22       1.0  0.45974  0.62170  0.25678  1.0000
  H   H23       1.0  0.34930  0.51572  0.35191  1.0000
  H   H24       1.0  0.31733  0.55831  0.37407  1.0000
  N   N4        1.0  0.42697  0.54104  0.28548  1.0000
  H   H25       1.0  0.40786  0.51624  0.24465  1.0000
  N   N5        1.0  0.45495  0.88512  0.28545  1.0000
  H   H26       1.0  0.47975  0.89082  0.24460  1.0000
  N   N6        1.0  0.11091  0.56909  0.28558  1.0000
  H   H27       1.0  0.10521  0.58821  0.24479  1.0000
  C   C34       1.0  0.70659  0.34534  0.35451  1.0000
  N   N7        1.0  0.69249  0.37335  0.35461  1.0000
  C   C35       1.0  0.65066  0.36044  0.35452  1.0000
  N   N8        1.0  0.62264  0.31833  0.35462  1.0000
  C   C36       1.0  0.63556  0.28941  0.35451  1.0000
  N   N9        1.0  0.67767  0.30351  0.35461  1.0000
  C   C37       1.0  0.63654  0.39000  0.35642  1.0000
  C   C38       1.0  0.65874  0.42901  0.31112  1.0000
  C   C39       1.0  0.64325  0.45730  0.30983  1.0000
  C   C40       1.0  0.60577  0.44761  0.35561  1.0000
  C   C41       1.0  0.58477  0.40968  0.40441  1.0000
  C   C42       1.0  0.59947  0.38085  0.40348  1.0000
  C   C43       1.0  0.75026  0.35946  0.35638  1.0000
  C   C44       1.0  0.77819  0.39655  0.40338  1.0000
  C   C45       1.0  0.82173  0.41128  0.40420  1.0000
  C   C46       1.0  0.83866  0.39026  0.35548  1.0000
  C   C47       1.0  0.81086  0.35275  0.30979  1.0000
  C   C48       1.0  0.76708  0.33725  0.31112  1.0000
  C   C49       1.0  0.60600  0.24574  0.35640  1.0000
  C   C50       1.0  0.61514  0.21781  0.40345  1.0000
  C   C51       1.0  0.58631  0.17428  0.40436  1.0000
  C   C52       1.0  0.54836  0.15735  0.35560  1.0000
  C   C53       1.0  0.53868  0.18515  0.30983  1.0000
  C   C54       1.0  0.56699  0.22892  0.31108  1.0000
  H   H28       1.0  0.84128  0.43837  0.43819  1.0000
  H   H29       1.0  0.76713  0.41307  0.43813  1.0000
  H   H30       1.0  0.82246  0.33709  0.27378  1.0000
  H   H31       1.0  0.74782  0.31057  0.27560  1.0000
  H   H32       1.0  0.64273  0.22888  0.43822  1.0000
  H   H33       1.0  0.59387  0.15474  0.43832  1.0000
  H   H34       1.0  0.55956  0.24818  0.27558  1.0000
  H   H35       1.0  0.51143  0.17355  0.27379  1.0000
  H   H36       1.0  0.58295  0.35326  0.43823  1.0000
  H   H37       1.0  0.55766  0.40211  0.43832  1.0000
  H   H38       1.0  0.65890  0.48455  0.27379  1.0000
  H   H39       1.0  0.68542  0.43644  0.27559  1.0000
  N   N10       1.0  0.58747  0.47375  0.35219  1.0000
  H   H40       1.0  0.60920  0.50417  0.33473  1.0000
  N   N11       1.0  0.52222  0.11292  0.35221  1.0000
  H   H41       1.0  0.49180  0.10423  0.33477  1.0000
  N   N12       1.0  0.88309  0.40853  0.35210  1.0000
  H   H42       1.0  0.89178  0.38680  0.33464  1.0000
  C   C55       1.0  0.46876  0.50940  0.34649  1.0000
  C   C56       1.0  0.47894  0.48934  0.41489  1.0000
  C   C57       1.0  0.50597  0.47264  0.39771  1.0000
  N   N13       1.0  0.51389  0.45294  0.46561  1.0000
  C   C58       1.0  0.49774  0.44879  0.54847  1.0000
  C   C59       1.0  0.47136  0.46558  0.56567  1.0000
  N   N14       1.0  0.46290  0.48493  0.49848  1.0000
  H   H43       1.0  0.50479  0.43383  0.59706  1.0000
  H   H44       1.0  0.45852  0.46314  0.62714  1.0000
  C   C60       1.0  0.43939  0.52569  0.36490  1.0000
  H   H45       1.0  0.45505  0.55146  0.41284  1.0000
  H   H46       1.0  0.41074  0.50058  0.39594  1.0000
  C   C61       1.0  0.48657  0.95855  0.34648  1.0000
  C   C62       1.0  0.50663  0.98878  0.41488  1.0000
  C   C63       1.0  0.52332  0.03252  0.39771  1.0000
  N   N15       1.0  0.54302  0.06014  0.46561  1.0000
  C   C64       1.0  0.54717  0.04813  0.54846  1.0000
  C   C65       1.0  0.53040  0.00497  0.56565  1.0000
  N   N16       1.0  0.51104  0.97716  0.49847  1.0000
  H   H47       1.0  0.56213  0.07015  0.59706  1.0000
  H   H48       1.0  0.53284  0.99457  0.62712  1.0000
  C   C66       1.0  0.47031  0.91289  0.36487  1.0000
  H   H49       1.0  0.44455  0.90277  0.41283  1.0000
  H   H50       1.0  0.49542  0.90936  0.39588  1.0000
  C   C67       1.0  0.03747  0.52725  0.34655  1.0000
  C   C68       1.0  0.00722  0.51707  0.41491  1.0000
  C   C69       1.0  0.96348  0.49003  0.39769  1.0000
  N   N17       1.0  0.93585  0.48211  0.46555  1.0000
  C   C70       1.0  0.94783  0.49826  0.54842  1.0000
  C   C71       1.0  0.99099  0.52464  0.56566  1.0000
  N   N18       1.0  0.01882  0.53310  0.49852  1.0000
  H   H51       1.0  0.92580  0.49120  0.59699  1.0000
  H   H52       1.0  0.00137  0.53748  0.62714  1.0000
  C   C72       1.0  0.08312  0.55664  0.36499  1.0000
  H   H53       1.0  0.09323  0.54097  0.41292  1.0000
  H   H54       1.0  0.08666  0.58527  0.39607  1.0000
