data_image0
_chemical_formula_structural       N12C4NH3C4NH3C4NH3C4NH3C4NH3C4NH3C4NH3C4NH3C4NH3C4NH3C4NH3C4NH3CNCNCNCNCNCNCNCNCNCNCNCNCNCNCNCNCNCNCNCNCNCNCNCNCNCNCNCNCNCNCNCNCNCNCNCNC4NH3C4NH3C4NH3C4NH3C4NH3C4NH3N24
_chemical_formula_sum              "N90 C108 H54"
_cell_length_a       36.9039
_cell_length_b       36.9038
_cell_length_c       14.85
_cell_angle_alpha    90
_cell_angle_beta     90
_cell_angle_gamma    120

_space_group_name_H-M_alt    "P 1"
_space_group_IT_number       1

loop_
  _space_group_symop_operation_xyz
  'x, y, z'

loop_
  _atom_site_type_symbol
  _atom_site_label
  _atom_site_symmetry_multiplicity
  _atom_site_fract_x
  _atom_site_fract_y
  _atom_site_fract_z
  _atom_site_occupancy
  N   N1        1.0  0.22632  0.41535  0.31460  1.0000
  N   N2        1.0  0.20754  0.37465  0.30397  1.0000
  N   N3        1.0  0.58859  0.80484  0.31441  1.0000
  N   N4        1.0  0.62930  0.82673  0.30384  1.0000
  N   N5        1.0  0.19899  0.77743  0.31491  1.0000
  N   N6        1.0  0.17711  0.79625  0.30422  1.0000
  N   N7        1.0  0.78295  0.58301  0.31484  1.0000
  N   N8        1.0  0.80173  0.62371  0.30421  1.0000
  N   N9        1.0  0.42080  0.19368  0.31455  1.0000
  N   N10       1.0  0.38010  0.17176  0.30392  1.0000
  N   N11       1.0  0.81031  0.22096  0.31454  1.0000
  N   N12       1.0  0.83220  0.20214  0.30394  1.0000
  C   C1        1.0  0.21973  0.17935  0.28707  1.0000
  C   C2        1.0  0.18078  0.16026  0.24225  1.0000
  C   C3        1.0  0.15761  0.18111  0.23223  1.0000
  C   C4        1.0  0.17324  0.22089  0.27473  1.0000
  N   N13       1.0  0.12288  0.16275  0.17907  1.0000
  H   H1        1.0  0.11460  0.13641  0.14848  1.0000
  H   H2        1.0  0.11025  0.17856  0.15688  1.0000
  H   H3        1.0  0.17012  0.13175  0.21219  1.0000
  C   C5        1.0  0.82454  0.03414  0.28701  1.0000
  C   C6        1.0  0.84360  0.01429  0.24205  1.0000
  C   C7        1.0  0.82275  0.97027  0.23202  1.0000
  C   C8        1.0  0.78302  0.94611  0.27470  1.0000
  N   N14       1.0  0.84105  0.95394  0.17865  1.0000
  H   H4        1.0  0.86759  0.97188  0.14860  1.0000
  H   H5        1.0  0.82557  0.92535  0.15724  1.0000
  H   H6        1.0  0.87205  0.03215  0.21174  1.0000
  C   C9        1.0  0.96971  0.78409  0.28717  1.0000
  C   C10       1.0  0.98955  0.82304  0.24238  1.0000
  C   C11       1.0  0.03357  0.84622  0.23232  1.0000
  C   C12       1.0  0.05774  0.83060  0.27478  1.0000
  N   N15       1.0  0.04994  0.88098  0.17929  1.0000
  H   H7        1.0  0.03188  0.88928  0.14875  1.0000
  H   H8        1.0  0.07838  0.89364  0.15709  1.0000
  H   H9        1.0  0.97169  0.83370  0.21236  1.0000
  C   C13       1.0  0.78961  0.81905  0.28717  1.0000
  C   C14       1.0  0.82854  0.83812  0.24233  1.0000
  C   C15       1.0  0.85170  0.81724  0.23230  1.0000
  C   C16       1.0  0.83605  0.77745  0.27478  1.0000
  N   N16       1.0  0.88643  0.83558  0.17917  1.0000
  H   H10       1.0  0.89474  0.86193  0.14859  1.0000
  H   H11       1.0  0.89904  0.81976  0.15696  1.0000
  H   H12       1.0  0.83923  0.86663  0.21227  1.0000
  C   C17       1.0  0.18479  0.96427  0.28712  1.0000
  C   C18       1.0  0.16569  0.98412  0.24232  1.0000
  C   C19       1.0  0.18654  0.02815  0.23228  1.0000
  C   C20       1.0  0.22634  0.05230  0.27470  1.0000
  N   N17       1.0  0.16818  0.04452  0.17917  1.0000
  H   H13       1.0  0.14182  0.02646  0.14861  1.0000
  H   H14       1.0  0.18398  0.07295  0.15696  1.0000
  H   H15       1.0  0.13717  0.96627  0.21229  1.0000
  C   C21       1.0  0.03959  0.21429  0.28698  1.0000
  C   C22       1.0  0.01975  0.17540  0.24194  1.0000
  C   C23       1.0  0.97573  0.15224  0.23189  1.0000
  C   C24       1.0  0.95156  0.16779  0.27463  1.0000
  N   N18       1.0  0.95940  0.11763  0.17845  1.0000
  H   H16       1.0  0.97734  0.10904  0.14837  1.0000
  H   H17       1.0  0.93081  0.10453  0.15703  1.0000
  H   H18       1.0  0.03761  0.16482  0.21160  1.0000
  C   C25       1.0  0.22788  0.57952  0.39575  1.0000
  C   C26       1.0  0.19510  0.58413  0.35793  1.0000
  C   C27       1.0  0.19743  0.62424  0.35733  1.0000
  C   C28       1.0  0.23309  0.65925  0.39698  1.0000
  N   N19       1.0  0.16772  0.62875  0.31328  1.0000
  H   H19       1.0  0.14372  0.60487  0.28583  1.0000
  H   H20       1.0  0.16840  0.65538  0.31171  1.0000
  H   H21       1.0  0.17199  0.55964  0.32275  1.0000
  C   C29       1.0  0.42427  0.64219  0.39438  1.0000
  C   C30       1.0  0.41971  0.60471  0.35713  1.0000
  C   C31       1.0  0.37957  0.56695  0.35656  1.0000
  C   C32       1.0  0.34453  0.56777  0.39554  1.0000
  N   N20       1.0  0.37507  0.53263  0.31296  1.0000
  H   H22       1.0  0.39898  0.53241  0.28590  1.0000
  H   H23       1.0  0.34841  0.50671  0.31134  1.0000
  H   H24       1.0  0.44423  0.60601  0.32226  1.0000
  C   C33       1.0  0.36159  0.77573  0.39505  1.0000
  C   C34       1.0  0.39898  0.80866  0.35754  1.0000
  C   C35       1.0  0.43678  0.80637  0.35665  1.0000
  C   C36       1.0  0.43608  0.77054  0.39549  1.0000
  N   N21       1.0  0.47100  0.83620  0.31284  1.0000
  H   H25       1.0  0.47114  0.86030  0.28585  1.0000
  H   H26       1.0  0.49694  0.83550  0.31096  1.0000
  H   H27       1.0  0.39760  0.83188  0.32282  1.0000
  C   C37       1.0  0.78138  0.41885  0.39581  1.0000
  C   C38       1.0  0.81420  0.41433  0.35785  1.0000
  C   C39       1.0  0.81185  0.37421  0.35686  1.0000
  C   C40       1.0  0.77622  0.33917  0.39649  1.0000
  N   N22       1.0  0.84151  0.36975  0.31248  1.0000
  H   H28       1.0  0.86538  0.39361  0.28461  1.0000
  H   H29       1.0  0.84070  0.34306  0.31015  1.0000
  H   H30       1.0  0.83718  0.43883  0.32248  1.0000
  C   C41       1.0  0.58499  0.35630  0.39573  1.0000
  C   C42       1.0  0.58963  0.39370  0.35787  1.0000
  C   C43       1.0  0.62977  0.43145  0.35722  1.0000
  C   C44       1.0  0.66476  0.43072  0.39676  1.0000
  N   N23       1.0  0.63431  0.46569  0.31321  1.0000
  H   H31       1.0  0.61043  0.46585  0.28583  1.0000
  H   H32       1.0  0.66095  0.49162  0.31159  1.0000
  H   H33       1.0  0.56515  0.39234  0.32271  1.0000
  C   C45       1.0  0.64769  0.22267  0.39447  1.0000
  C   C46       1.0  0.61024  0.18976  0.35712  1.0000
  C   C47       1.0  0.57246  0.19209  0.35652  1.0000
  C   C48       1.0  0.57324  0.22793  0.39556  1.0000
  N   N24       1.0  0.53818  0.16229  0.31282  1.0000
  H   H34       1.0  0.53799  0.13819  0.28572  1.0000
  H   H35       1.0  0.51224  0.16301  0.31118  1.0000
  H   H36       1.0  0.61157  0.16656  0.32222  1.0000
  C   C49       1.0  0.15062  0.24279  0.28327  1.0000
  N   N25       1.0  0.16943  0.28497  0.29701  1.0000
  C   C50       1.0  0.14675  0.30471  0.30854  1.0000
  N   N26       1.0  0.10413  0.28083  0.30659  1.0000
  C   C51       1.0  0.08392  0.23880  0.29363  1.0000
  N   N27       1.0  0.10810  0.22097  0.28307  1.0000
  C   C52       1.0  0.76113  0.90160  0.28329  1.0000
  N   N28       1.0  0.71895  0.87823  0.29698  1.0000
  C   C53       1.0  0.69920  0.83582  0.30853  1.0000
  N   N29       1.0  0.72307  0.81707  0.30666  1.0000
  C   C54       1.0  0.76511  0.83888  0.29378  1.0000
  N   N30       1.0  0.78295  0.88090  0.28317  1.0000
  C   C55       1.0  0.10225  0.85324  0.28343  1.0000
  N   N31       1.0  0.12563  0.83443  0.29707  1.0000
  C   C56       1.0  0.16805  0.85710  0.30855  1.0000
  N   N32       1.0  0.18679  0.89972  0.30663  1.0000
  C   C57       1.0  0.16497  0.91993  0.29374  1.0000
  N   N33       1.0  0.12295  0.89575  0.28321  1.0000
  C   C58       1.0  0.85867  0.75557  0.28348  1.0000
  N   N34       1.0  0.83986  0.71338  0.29714  1.0000
  C   C59       1.0  0.86254  0.69364  0.30866  1.0000
  N   N35       1.0  0.90516  0.71753  0.30673  1.0000
  C   C60       1.0  0.92537  0.75957  0.29383  1.0000
  N   N36       1.0  0.90118  0.77739  0.28326  1.0000
  C   C61       1.0  0.24824  0.09682  0.28328  1.0000
  N   N37       1.0  0.29042  0.12020  0.29698  1.0000
  C   C62       1.0  0.31016  0.16262  0.30851  1.0000
  N   N38       1.0  0.28628  0.18135  0.30659  1.0000
  C   C63       1.0  0.24424  0.15953  0.29370  1.0000
  N   N39       1.0  0.22641  0.11751  0.28312  1.0000
  C   C64       1.0  0.90705  0.14517  0.28319  1.0000
  N   N40       1.0  0.88368  0.16397  0.29690  1.0000
  C   C65       1.0  0.84126  0.14130  0.30843  1.0000
  N   N41       1.0  0.82252  0.09868  0.30653  1.0000
  C   C66       1.0  0.84435  0.07847  0.29362  1.0000
  N   N42       1.0  0.88637  0.10266  0.28303  1.0000
  C   C67       1.0  0.30039  0.54023  0.38823  1.0000
  N   N43       1.0  0.27567  0.49924  0.36408  1.0000
  C   C68       1.0  0.23283  0.48107  0.35457  1.0000
  N   N44       1.0  0.21532  0.50632  0.36148  1.0000
  C   C69       1.0  0.23780  0.54708  0.38713  1.0000
  N   N45       1.0  0.27871  0.56045  0.39936  1.0000
  C   C70       1.0  0.46366  0.75401  0.38783  1.0000
  N   N46       1.0  0.50467  0.77031  0.36384  1.0000
  C   C71       1.0  0.52283  0.74562  0.35418  1.0000
  N   N47       1.0  0.49757  0.70286  0.36069  1.0000
  C   C72       1.0  0.45674  0.68453  0.38585  1.0000
  N   N48       1.0  0.44341  0.71208  0.39842  1.0000
  C   C73       1.0  0.24971  0.70338  0.38950  1.0000
  N   N49       1.0  0.23349  0.72808  0.36484  1.0000
  C   C74       1.0  0.25820  0.77090  0.35481  1.0000
  N   N50       1.0  0.30095  0.78835  0.36136  1.0000
  C   C75       1.0  0.31922  0.76588  0.38708  1.0000
  N   N51       1.0  0.29166  0.72502  0.39997  1.0000
  C   C76       1.0  0.70890  0.45825  0.38946  1.0000
  N   N52       1.0  0.73360  0.49916  0.36472  1.0000
  C   C77       1.0  0.77643  0.51728  0.35484  1.0000
  N   N53       1.0  0.79388  0.49199  0.36159  1.0000
  C   C78       1.0  0.77140  0.45125  0.38729  1.0000
  N   N54       1.0  0.73053  0.43794  0.40014  1.0000
  C   C79       1.0  0.54568  0.24450  0.38822  1.0000
  N   N55       1.0  0.50469  0.22823  0.36404  1.0000
  C   C80       1.0  0.48653  0.25291  0.35451  1.0000
  N   N56       1.0  0.51177  0.29566  0.36142  1.0000
  C   C81       1.0  0.55253  0.31395  0.38712  1.0000
  N   N57       1.0  0.56590  0.28641  0.39936  1.0000
  C   C82       1.0  0.75955  0.29504  0.38841  1.0000
  N   N58       1.0  0.77581  0.27033  0.36420  1.0000
  C   C83       1.0  0.75109  0.22750  0.35426  1.0000
  N   N59       1.0  0.70834  0.21004  0.36070  1.0000
  C   C84       1.0  0.69005  0.23256  0.38603  1.0000
  N   N60       1.0  0.71761  0.27341  0.39892  1.0000
  C   C85       1.0  0.16620  0.34883  0.32103  1.0000
  C   C86       1.0  0.14389  0.36819  0.35232  1.0000
  C   C87       1.0  0.16395  0.41191  0.36782  1.0000
  C   C88       1.0  0.20724  0.43665  0.34435  1.0000
  N   N61       1.0  0.14062  0.42651  0.40845  1.0000
  H   H37       1.0  0.11163  0.40764  0.42538  1.0000
  H   H38       1.0  0.15313  0.45421  0.43417  1.0000
  H   H39       1.0  0.11297  0.34989  0.36896  1.0000
  C   C89       1.0  0.65507  0.81117  0.32096  1.0000
  C   C90       1.0  0.63568  0.76949  0.35223  1.0000
  C   C91       1.0  0.59195  0.74586  0.36764  1.0000
  C   C92       1.0  0.56726  0.76446  0.34415  1.0000
  N   N62       1.0  0.57729  0.70793  0.40833  1.0000
  H   H40       1.0  0.59613  0.69778  0.42531  1.0000
  H   H41       1.0  0.54959  0.69281  0.43405  1.0000
  H   H42       1.0  0.65395  0.75684  0.36892  1.0000
  C   C93       1.0  0.19270  0.83762  0.32099  1.0000
  C   C94       1.0  0.23443  0.85995  0.35197  1.0000
  C   C95       1.0  0.25806  0.83986  0.36746  1.0000
  C   C96       1.0  0.23940  0.79651  0.34441  1.0000
  N   N63       1.0  0.29605  0.86321  0.40790  1.0000
  H   H43       1.0  0.30623  0.89224  0.42460  1.0000
  H   H44       1.0  0.31122  0.85070  0.43367  1.0000
  H   H45       1.0  0.24711  0.89090  0.36838  1.0000
  C   C97       1.0  0.84309  0.64951  0.32110  1.0000
  C   C98       1.0  0.86543  0.63015  0.35214  1.0000
  C   C99       1.0  0.84537  0.58642  0.36760  1.0000
  C   C100      1.0  0.80205  0.56169  0.34437  1.0000
  N   N64       1.0  0.86878  0.57186  0.40802  1.0000
  H   H46       1.0  0.89789  0.59064  0.42423  1.0000
  H   H47       1.0  0.85652  0.54400  0.43277  1.0000
  H   H48       1.0  0.89635  0.64844  0.36874  1.0000
  C   C101      1.0  0.35429  0.18729  0.32097  1.0000
  C   C102      1.0  0.37364  0.22897  0.35222  1.0000
  C   C103      1.0  0.41737  0.25263  0.36772  1.0000
  C   C104      1.0  0.44210  0.23407  0.34427  1.0000
  N   N65       1.0  0.43196  0.29057  0.40833  1.0000
  H   H49       1.0  0.41309  0.30069  0.42523  1.0000
  H   H50       1.0  0.45966  0.30575  0.43404  1.0000
  H   H51       1.0  0.35535  0.24159  0.36886  1.0000
  C   C105      1.0  0.81661  0.16078  0.32086  1.0000
  C   C106      1.0  0.77490  0.13847  0.35193  1.0000
  C   C107      1.0  0.75126  0.15857  0.36734  1.0000
  C   C108      1.0  0.76991  0.20189  0.34410  1.0000
  N   N66       1.0  0.71328  0.13525  0.40780  1.0000
  H   H52       1.0  0.70310  0.10624  0.42463  1.0000
  H   H53       1.0  0.69812  0.14779  0.43349  1.0000
  H   H54       1.0  0.76222  0.10754  0.36845  1.0000
  N   N67       1.0  0.21116  0.23721  0.31627  1.0000
  N   N68       1.0  0.23314  0.21822  0.32115  1.0000
  N   N69       1.0  0.76673  0.96769  0.31644  1.0000
  N   N70       1.0  0.78571  0.00867  0.32129  1.0000
  N   N71       1.0  0.03616  0.79269  0.31637  1.0000
  N   N72       1.0  0.99518  0.77069  0.32125  1.0000
  N   N73       1.0  0.79815  0.76117  0.31641  1.0000
  N   N74       1.0  0.77618  0.78018  0.32129  1.0000
  N   N75       1.0  0.24266  0.03071  0.31625  1.0000
  N   N76       1.0  0.22367  0.98973  0.32115  1.0000
  N   N77       1.0  0.97315  0.20565  0.31643  1.0000
  N   N78       1.0  0.01413  0.22764  0.32131  1.0000
  N   N79       1.0  0.25947  0.64948  0.44047  1.0000
  N   N80       1.0  0.25733  0.61367  0.43998  1.0000
  N   N81       1.0  0.35431  0.60390  0.43903  1.0000
  N   N82       1.0  0.39013  0.63753  0.43857  1.0000
  N   N83       1.0  0.40002  0.74415  0.43919  1.0000
  N   N84       1.0  0.36635  0.74628  0.43908  1.0000
  N   N85       1.0  0.74984  0.34886  0.44019  1.0000
  N   N86       1.0  0.75196  0.38466  0.43996  1.0000
  N   N87       1.0  0.65496  0.39462  0.44040  1.0000
  N   N88       1.0  0.61913  0.36098  0.43999  1.0000
  N   N89       1.0  0.60935  0.25428  0.43913  1.0000
  N   N90       1.0  0.64300  0.25212  0.43871  1.0000
