data_image0
_chemical_formula_structural       C4HONCHC2H2C2NH2CNC4HONCHC2H2C2NH2CNC3HOCOHCHNH2C2H2CNC2NH2C3HOCOHCHNH2C2H2CNC2NH2C5HC3NCHNCHC4HC2NCNH2C2NCNH2C5HC3NCHNCHC4HC2NCNH2C2NCNH2C4OHC3OHCONCHNCHC2H3C2H2C2NCNH2C2NCNH2C4OHC3OHCONCHNCHC2H3C2H2C2NCNH2C2NCNH2C4HOC4OHC4HOC4OHC4HOC4OHNCHNCHNCHNCHNCHNCHC4H4C4H4C4H4C2NCNH2C2NCNH2C2NCNH2C2NCNH2C2NCNH2C2NCNH2C4HOC4OHC4HOC4OHC4HOC4OHNCHNCHNCHNCHNCHNCHC4H4C4H4C4H4C2NCNH2C2NCNH2C2NCNH2C2NCNH2C2NCNH2C2NCNH2
_chemical_formula_sum              "C240 H144 O24 N72"
_cell_length_a       46.4722
_cell_length_b       46.4722
_cell_length_c       14.8143
_cell_angle_alpha    90
_cell_angle_beta     90
_cell_angle_gamma    120

_space_group_name_H-M_alt    "P 1"
_space_group_IT_number       1

loop_
  _space_group_symop_operation_xyz
  'x, y, z'

loop_
  _atom_site_type_symbol
  _atom_site_label
  _atom_site_symmetry_multiplicity
  _atom_site_fract_x
  _atom_site_fract_y
  _atom_site_fract_z
  _atom_site_occupancy
  C   C1        1.0  0.02746  0.26531  0.34286  1.0000
  C   C2        1.0  0.04671  0.30091  0.34093  1.0000
  C   C3        1.0  0.08186  0.31905  0.34249  1.0000
  C   C4        1.0  0.09922  0.30134  0.34582  1.0000
  H   H1        1.0  0.03554  0.31492  0.33779  1.0000
  O   O1        1.0  0.13314  0.31836  0.34786  1.0000
  N   N1        1.0  0.11720  0.25239  0.26848  1.0000
  C   C5        1.0  0.11761  0.37040  0.26110  1.0000
  H   H2        1.0  0.11053  0.35878  0.19984  1.0000
  C   C6        1.0  0.08199  0.26625  0.34531  1.0000
  C   C7        1.0  0.04683  0.24910  0.34488  1.0000
  H   H3        1.0  0.13924  0.32183  0.41214  1.0000
  H   H4        1.0  0.03575  0.22391  0.34672  1.0000
  C   C8        1.0  0.10062  0.24972  0.34677  1.0000
  C   C9        1.0  0.11662  0.24841  0.42726  1.0000
  N   N2        1.0  0.10567  0.24964  0.51113  1.0000
  H   H5        1.0  0.08478  0.24926  0.52051  1.0000
  H   H6        1.0  0.11794  0.24957  0.56427  1.0000
  C   C10       1.0  0.10036  0.35418  0.34060  1.0000
  N   N3        1.0  0.11582  0.36917  0.41917  1.0000
  C   C11       1.0  0.02746  0.76531  0.34286  1.0000
  C   C12       1.0  0.04671  0.80091  0.34093  1.0000
  C   C13       1.0  0.08186  0.81905  0.34249  1.0000
  C   C14       1.0  0.09922  0.80134  0.34582  1.0000
  H   H7        1.0  0.03554  0.81492  0.33779  1.0000
  O   O2        1.0  0.13314  0.81836  0.34786  1.0000
  N   N4        1.0  0.11720  0.75238  0.26848  1.0000
  C   C15       1.0  0.11761  0.87040  0.26110  1.0000
  H   H8        1.0  0.11053  0.85878  0.19984  1.0000
  C   C16       1.0  0.08199  0.76625  0.34531  1.0000
  C   C17       1.0  0.04683  0.74910  0.34488  1.0000
  H   H9        1.0  0.13924  0.82183  0.41214  1.0000
  H   H10       1.0  0.03575  0.72391  0.34672  1.0000
  C   C18       1.0  0.10062  0.74972  0.34677  1.0000
  C   C19       1.0  0.11661  0.74842  0.42726  1.0000
  N   N5        1.0  0.10567  0.74964  0.51113  1.0000
  H   H11       1.0  0.08478  0.74926  0.52051  1.0000
  H   H12       1.0  0.11794  0.74957  0.56427  1.0000
  C   C20       1.0  0.10036  0.85418  0.34060  1.0000
  N   N6        1.0  0.11582  0.86917  0.41917  1.0000
  C   C21       1.0  0.21473  0.24892  0.34162  1.0000
  C   C22       1.0  0.19659  0.26594  0.34259  1.0000
  C   C23       1.0  0.21432  0.30101  0.34561  1.0000
  H   H13       1.0  0.20071  0.22374  0.33908  1.0000
  O   O3        1.0  0.19730  0.31792  0.34751  1.0000
  C   C24       1.0  0.21475  0.41648  0.34578  1.0000
  O   O4        1.0  0.19785  0.38256  0.34756  1.0000
  H   H14       1.0  0.22687  0.03241  0.33911  1.0000
  C   C25       1.0  0.14542  0.25061  0.26172  1.0000
  H   H15       1.0  0.15716  0.25556  0.20056  1.0000
  N   N7        1.0  0.14760  0.39863  0.26762  1.0000
  H   H16       1.0  0.19371  0.32046  0.41176  1.0000
  H   H17       1.0  0.22702  0.19758  0.34651  1.0000
  C   C26       1.0  0.19688  0.43370  0.34520  1.0000
  C   C27       1.0  0.21487  0.46886  0.34448  1.0000
  H   H18       1.0  0.19523  0.37639  0.41178  1.0000
  H   H19       1.0  0.20074  0.47992  0.34567  1.0000
  C   C28       1.0  0.16145  0.24931  0.34133  1.0000
  N   N8        1.0  0.14638  0.24945  0.41998  1.0000
  C   C29       1.0  0.16172  0.41500  0.34591  1.0000
  C   C30       1.0  0.14456  0.39892  0.42656  1.0000
  N   N9        1.0  0.15682  0.40965  0.51049  1.0000
  H   H20       1.0  0.17719  0.43066  0.52003  1.0000
  H   H21       1.0  0.14439  0.39739  0.56354  1.0000
  C   C31       1.0  0.21473  0.74892  0.34162  1.0000
  C   C32       1.0  0.19659  0.76594  0.34259  1.0000
  C   C33       1.0  0.21432  0.80101  0.34561  1.0000
  H   H22       1.0  0.20071  0.72373  0.33908  1.0000
  O   O5        1.0  0.19730  0.81792  0.34751  1.0000
  C   C34       1.0  0.21475  0.91648  0.34578  1.0000
  O   O6        1.0  0.19785  0.88256  0.34756  1.0000
  H   H23       1.0  0.22687  0.53241  0.33911  1.0000
  C   C35       1.0  0.14542  0.75061  0.26172  1.0000
  H   H24       1.0  0.15716  0.75556  0.20056  1.0000
  N   N10       1.0  0.14760  0.89863  0.26762  1.0000
  H   H25       1.0  0.19371  0.82046  0.41176  1.0000
  H   H26       1.0  0.22702  0.69758  0.34651  1.0000
  C   C36       1.0  0.19688  0.93370  0.34520  1.0000
  C   C37       1.0  0.21487  0.96886  0.34448  1.0000
  H   H27       1.0  0.19522  0.87639  0.41178  1.0000
  H   H28       1.0  0.20074  0.97992  0.34567  1.0000
  C   C38       1.0  0.16145  0.74931  0.34133  1.0000
  N   N11       1.0  0.14638  0.74945  0.41998  1.0000
  C   C39       1.0  0.16172  0.91500  0.34591  1.0000
  C   C40       1.0  0.14456  0.89893  0.42656  1.0000
  N   N12       1.0  0.15682  0.90965  0.51049  1.0000
  H   H29       1.0  0.17719  0.93066  0.52003  1.0000
  H   H30       1.0  0.14439  0.89739  0.56354  1.0000
  C   C41       1.0  0.25033  0.26526  0.34313  1.0000
  C   C42       1.0  0.26843  0.24728  0.34309  1.0000
  C   C43       1.0  0.25046  0.48826  0.34290  1.0000
  C   C44       1.0  0.26681  0.46901  0.34139  1.0000
  C   C45       1.0  0.24982  0.43385  0.34273  1.0000
  H   H31       1.0  0.29200  0.48019  0.33877  1.0000
  C   C46       1.0  0.26841  0.02433  0.34288  1.0000
  C   C47       1.0  0.26906  0.07874  0.34259  1.0000
  C   C48       1.0  0.25206  0.04358  0.34150  1.0000
  N   N13       1.0  0.26361  0.36818  0.26777  1.0000
  C   C49       1.0  0.26540  0.39818  0.26135  1.0000
  H   H32       1.0  0.26087  0.40531  0.20016  1.0000
  N   N14       1.0  0.25545  0.14454  0.26815  1.0000
  C   C50       1.0  0.25370  0.11455  0.26179  1.0000
  H   H33       1.0  0.25859  0.10768  0.20067  1.0000
  C   C51       1.0  0.24940  0.31887  0.34516  1.0000
  C   C52       1.0  0.26655  0.30085  0.34465  1.0000
  C   C53       1.0  0.25221  0.21168  0.34483  1.0000
  C   C54       1.0  0.26935  0.19366  0.34500  1.0000
  H   H34       1.0  0.29174  0.31496  0.34600  1.0000
  C   C55       1.0  0.26588  0.35403  0.34598  1.0000
  C   C56       1.0  0.26647  0.41536  0.34105  1.0000
  N   N15       1.0  0.26602  0.39993  0.41959  1.0000
  C   C57       1.0  0.26699  0.37115  0.42674  1.0000
  N   N16       1.0  0.26556  0.35888  0.51059  1.0000
  H   H35       1.0  0.26605  0.33842  0.51997  1.0000
  H   H36       1.0  0.26562  0.37120  0.56374  1.0000
  C   C58       1.0  0.25282  0.15849  0.34635  1.0000
  C   C59       1.0  0.25244  0.09725  0.34152  1.0000
  N   N17       1.0  0.25258  0.11260  0.41993  1.0000
  C   C60       1.0  0.25152  0.14132  0.42707  1.0000
  N   N18       1.0  0.25273  0.15354  0.51086  1.0000
  H   H37       1.0  0.25231  0.17404  0.52010  1.0000
  H   H38       1.0  0.25266  0.14124  0.56409  1.0000
  C   C61       1.0  0.25033  0.76526  0.34313  1.0000
  C   C62       1.0  0.26843  0.74728  0.34309  1.0000
  C   C63       1.0  0.25046  0.98825  0.34290  1.0000
  C   C64       1.0  0.26681  0.96901  0.34139  1.0000
  C   C65       1.0  0.24982  0.93385  0.34273  1.0000
  H   H39       1.0  0.29200  0.98019  0.33877  1.0000
  C   C66       1.0  0.26841  0.52433  0.34288  1.0000
  C   C67       1.0  0.26906  0.57874  0.34259  1.0000
  C   C68       1.0  0.25206  0.54358  0.34150  1.0000
  N   N19       1.0  0.26361  0.86818  0.26777  1.0000
  C   C69       1.0  0.26540  0.89818  0.26135  1.0000
  H   H40       1.0  0.26087  0.90531  0.20016  1.0000
  N   N20       1.0  0.25545  0.64454  0.26815  1.0000
  C   C70       1.0  0.25370  0.61455  0.26179  1.0000
  H   H41       1.0  0.25859  0.60768  0.20067  1.0000
  C   C71       1.0  0.24940  0.81886  0.34516  1.0000
  C   C72       1.0  0.26655  0.80085  0.34465  1.0000
  C   C73       1.0  0.25221  0.71168  0.34483  1.0000
  C   C74       1.0  0.26935  0.69366  0.34500  1.0000
  H   H42       1.0  0.29174  0.81496  0.34600  1.0000
  C   C75       1.0  0.26588  0.85403  0.34598  1.0000
  C   C76       1.0  0.26647  0.91536  0.34105  1.0000
  N   N21       1.0  0.26603  0.89993  0.41959  1.0000
  C   C77       1.0  0.26699  0.87115  0.42674  1.0000
  N   N22       1.0  0.26556  0.85888  0.51059  1.0000
  H   H43       1.0  0.26605  0.83842  0.51997  1.0000
  H   H44       1.0  0.26562  0.87120  0.56374  1.0000
  C   C78       1.0  0.25282  0.65849  0.34635  1.0000
  C   C79       1.0  0.25244  0.59725  0.34152  1.0000
  N   N23       1.0  0.25258  0.61260  0.41993  1.0000
  C   C80       1.0  0.25152  0.64132  0.42707  1.0000
  N   N24       1.0  0.25273  0.65354  0.51086  1.0000
  H   H45       1.0  0.25231  0.67404  0.52010  1.0000
  H   H46       1.0  0.25266  0.64124  0.56409  1.0000
  C   C81       1.0  0.49138  0.24721  0.34287  1.0000
  C   C82       1.0  0.41962  0.21119  0.34601  1.0000
  C   C83       1.0  0.43697  0.19347  0.34262  1.0000
  C   C84       1.0  0.47212  0.21161  0.34103  1.0000
  O   O7        1.0  0.38569  0.19417  0.34809  1.0000
  H   H47       1.0  0.48329  0.19760  0.33790  1.0000
  C   C85       1.0  0.30444  0.21151  0.34533  1.0000
  C   C86       1.0  0.32216  0.24659  0.34232  1.0000
  C   C87       1.0  0.30403  0.26361  0.34132  1.0000
  O   O8        1.0  0.32145  0.19460  0.34726  1.0000
  H   H48       1.0  0.31804  0.28879  0.33866  1.0000
  C   C88       1.0  0.30414  0.09611  0.34568  1.0000
  O   O9        1.0  0.32104  0.13003  0.34769  1.0000
  N   N25       1.0  0.40174  0.26022  0.26835  1.0000
  C   C89       1.0  0.37355  0.26202  0.26138  1.0000
  H   H49       1.0  0.36181  0.25703  0.20024  1.0000
  N   N26       1.0  0.37129  0.11402  0.26759  1.0000
  C   C90       1.0  0.40129  0.14224  0.26118  1.0000
  H   H50       1.0  0.40841  0.15392  0.19999  1.0000
  C   C91       1.0  0.47201  0.26342  0.34481  1.0000
  C   C92       1.0  0.43685  0.24628  0.34536  1.0000
  H   H51       1.0  0.37960  0.19070  0.41236  1.0000
  H   H52       1.0  0.48310  0.28861  0.34651  1.0000
  H   H53       1.0  0.32499  0.19201  0.41152  1.0000
  C   C93       1.0  0.30401  0.04372  0.34432  1.0000
  C   C94       1.0  0.32200  0.07888  0.34501  1.0000
  H   H54       1.0  0.32358  0.13614  0.41195  1.0000
  H   H55       1.0  0.31814  0.03266  0.34549  1.0000
  C   C95       1.0  0.41823  0.26282  0.34673  1.0000
  C   C96       1.0  0.35728  0.26320  0.34068  1.0000
  N   N27       1.0  0.37235  0.26297  0.41933  1.0000
  C   C97       1.0  0.40213  0.26404  0.42704  1.0000
  N   N28       1.0  0.41288  0.26266  0.51104  1.0000
  H   H56       1.0  0.43375  0.26302  0.52068  1.0000
  H   H57       1.0  0.40049  0.26263  0.56402  1.0000
  C   C98       1.0  0.35716  0.09757  0.34579  1.0000
  C   C99       1.0  0.41846  0.15833  0.34088  1.0000
  N   N29       1.0  0.40305  0.14333  0.41943  1.0000
  C   C100      1.0  0.37429  0.11359  0.42656  1.0000
  N   N30       1.0  0.36202  0.10271  0.51041  1.0000
  H   H58       1.0  0.34158  0.08177  0.51979  1.0000
  H   H59       1.0  0.37435  0.11498  0.56357  1.0000
  C   C101      1.0  0.49138  0.74721  0.34287  1.0000
  C   C102      1.0  0.41962  0.71119  0.34601  1.0000
  C   C103      1.0  0.43697  0.69347  0.34262  1.0000
  C   C104      1.0  0.47212  0.71161  0.34103  1.0000
  O   O10       1.0  0.38569  0.69417  0.34809  1.0000
  H   H60       1.0  0.48329  0.69760  0.33790  1.0000
  C   C105      1.0  0.30444  0.71151  0.34533  1.0000
  C   C106      1.0  0.32216  0.74659  0.34232  1.0000
  C   C107      1.0  0.30402  0.76361  0.34132  1.0000
  O   O11       1.0  0.32145  0.69460  0.34726  1.0000
  H   H61       1.0  0.31804  0.78879  0.33866  1.0000
  C   C108      1.0  0.30414  0.59610  0.34568  1.0000
  O   O12       1.0  0.32104  0.63003  0.34769  1.0000
  N   N31       1.0  0.40175  0.76022  0.26835  1.0000
  C   C109      1.0  0.37355  0.76202  0.26138  1.0000
  H   H62       1.0  0.36181  0.75703  0.20024  1.0000
  N   N32       1.0  0.37130  0.61402  0.26759  1.0000
  C   C110      1.0  0.40129  0.64224  0.26118  1.0000
  H   H63       1.0  0.40841  0.65392  0.19999  1.0000
  C   C111      1.0  0.47201  0.76343  0.34481  1.0000
  C   C112      1.0  0.43685  0.74628  0.34536  1.0000
  H   H64       1.0  0.37960  0.69070  0.41236  1.0000
  H   H65       1.0  0.48310  0.78861  0.34651  1.0000
  H   H66       1.0  0.32499  0.69201  0.41152  1.0000
  C   C113      1.0  0.30401  0.54372  0.34432  1.0000
  C   C114      1.0  0.32200  0.57888  0.34501  1.0000
  H   H67       1.0  0.32358  0.63614  0.41195  1.0000
  H   H68       1.0  0.31813  0.53266  0.34549  1.0000
  C   C115      1.0  0.41823  0.76282  0.34673  1.0000
  C   C116      1.0  0.35728  0.76320  0.34068  1.0000
  N   N33       1.0  0.37236  0.76297  0.41933  1.0000
  C   C117      1.0  0.40213  0.76404  0.42704  1.0000
  N   N34       1.0  0.41288  0.76265  0.51104  1.0000
  H   H69       1.0  0.43375  0.76302  0.52068  1.0000
  H   H70       1.0  0.40049  0.76263  0.56402  1.0000
  C   C118      1.0  0.35716  0.59757  0.34579  1.0000
  C   C119      1.0  0.41846  0.65833  0.34088  1.0000
  N   N35       1.0  0.40305  0.64333  0.41943  1.0000
  C   C120      1.0  0.37429  0.61359  0.42656  1.0000
  N   N36       1.0  0.36202  0.60271  0.51041  1.0000
  H   H71       1.0  0.34158  0.58177  0.51979  1.0000
  H   H72       1.0  0.37435  0.61498  0.56357  1.0000
  C   C121      1.0  0.52746  0.26531  0.34286  1.0000
  C   C122      1.0  0.54671  0.30091  0.34093  1.0000
  C   C123      1.0  0.58187  0.31905  0.34249  1.0000
  C   C124      1.0  0.59922  0.30134  0.34582  1.0000
  H   H73       1.0  0.53554  0.31492  0.33779  1.0000
  O   O13       1.0  0.63314  0.31836  0.34786  1.0000
  C   C125      1.0  0.99138  0.24721  0.34287  1.0000
  C   C126      1.0  0.91962  0.21119  0.34601  1.0000
  C   C127      1.0  0.93697  0.19347  0.34262  1.0000
  C   C128      1.0  0.97212  0.21161  0.34103  1.0000
  O   O14       1.0  0.88569  0.19417  0.34809  1.0000
  H   H74       1.0  0.98329  0.19760  0.33790  1.0000
  C   C129      1.0  0.75033  0.26526  0.34313  1.0000
  C   C130      1.0  0.71473  0.24892  0.34162  1.0000
  C   C131      1.0  0.69659  0.26594  0.34259  1.0000
  C   C132      1.0  0.71432  0.30101  0.34561  1.0000
  H   H75       1.0  0.70071  0.22374  0.33908  1.0000
  O   O15       1.0  0.69730  0.31792  0.34751  1.0000
  C   C133      1.0  0.76843  0.24728  0.34309  1.0000
  C   C134      1.0  0.80444  0.21151  0.34533  1.0000
  C   C135      1.0  0.82216  0.24659  0.34232  1.0000
  C   C136      1.0  0.80403  0.26361  0.34132  1.0000
  O   O16       1.0  0.82145  0.19460  0.34726  1.0000
  H   H76       1.0  0.81804  0.28879  0.33866  1.0000
  C   C137      1.0  0.75046  0.48826  0.34290  1.0000
  C   C138      1.0  0.76681  0.46901  0.34139  1.0000
  C   C139      1.0  0.74983  0.43385  0.34273  1.0000
  C   C140      1.0  0.71475  0.41648  0.34578  1.0000
  H   H77       1.0  0.79200  0.48019  0.33877  1.0000
  O   O17       1.0  0.69785  0.38256  0.34756  1.0000
  C   C141      1.0  0.76841  0.02433  0.34288  1.0000
  C   C142      1.0  0.80414  0.09611  0.34568  1.0000
  C   C143      1.0  0.76906  0.07874  0.34259  1.0000
  C   C144      1.0  0.75206  0.04358  0.34150  1.0000
  O   O18       1.0  0.82104  0.13003  0.34769  1.0000
  H   H78       1.0  0.72687  0.03241  0.33911  1.0000
  N   N37       1.0  0.61720  0.25239  0.26848  1.0000
  C   C145      1.0  0.64542  0.25061  0.26172  1.0000
  H   H79       1.0  0.65716  0.25556  0.20056  1.0000
  N   N38       1.0  0.76361  0.36818  0.26777  1.0000
  C   C146      1.0  0.76540  0.39818  0.26135  1.0000
  H   H80       1.0  0.76087  0.40531  0.20016  1.0000
  N   N39       1.0  0.64760  0.39863  0.26762  1.0000
  C   C147      1.0  0.61762  0.37040  0.26110  1.0000
  H   H81       1.0  0.61053  0.35878  0.19984  1.0000
  N   N40       1.0  0.90174  0.26022  0.26835  1.0000
  C   C148      1.0  0.87355  0.26202  0.26138  1.0000
  H   H82       1.0  0.86181  0.25703  0.20024  1.0000
  N   N41       1.0  0.75545  0.14454  0.26815  1.0000
  C   C149      1.0  0.75370  0.11455  0.26179  1.0000
  H   H83       1.0  0.75859  0.10768  0.20067  1.0000
  N   N42       1.0  0.87130  0.11402  0.26759  1.0000
  C   C150      1.0  0.90129  0.14224  0.26118  1.0000
  H   H84       1.0  0.90841  0.15392  0.19999  1.0000
  C   C151      1.0  0.58199  0.26625  0.34531  1.0000
  C   C152      1.0  0.54683  0.24910  0.34488  1.0000
  C   C153      1.0  0.97201  0.26342  0.34481  1.0000
  C   C154      1.0  0.93685  0.24628  0.34536  1.0000
  H   H85       1.0  0.63924  0.32183  0.41214  1.0000
  H   H86       1.0  0.87960  0.19070  0.41236  1.0000
  H   H87       1.0  0.53575  0.22391  0.34672  1.0000
  H   H88       1.0  0.98310  0.28861  0.34651  1.0000
  C   C155      1.0  0.74940  0.31887  0.34516  1.0000
  C   C156      1.0  0.76655  0.30085  0.34465  1.0000
  C   C157      1.0  0.75221  0.21168  0.34483  1.0000
  C   C158      1.0  0.76935  0.19366  0.34500  1.0000
  H   H89       1.0  0.69371  0.32046  0.41176  1.0000
  H   H90       1.0  0.82499  0.19201  0.41152  1.0000
  H   H91       1.0  0.79174  0.31496  0.34600  1.0000
  H   H92       1.0  0.72702  0.19758  0.34651  1.0000
  C   C159      1.0  0.69688  0.43370  0.34520  1.0000
  C   C160      1.0  0.71487  0.46886  0.34448  1.0000
  C   C161      1.0  0.80401  0.04372  0.34432  1.0000
  C   C162      1.0  0.82200  0.07888  0.34501  1.0000
  H   H93       1.0  0.69523  0.37639  0.41178  1.0000
  H   H94       1.0  0.82358  0.13614  0.41195  1.0000
  H   H95       1.0  0.70074  0.47992  0.34567  1.0000
  H   H96       1.0  0.81813  0.03266  0.34549  1.0000
  C   C163      1.0  0.60063  0.24972  0.34677  1.0000
  C   C164      1.0  0.66145  0.24931  0.34133  1.0000
  N   N43       1.0  0.64638  0.24945  0.41998  1.0000
  C   C165      1.0  0.61662  0.24841  0.42726  1.0000
  N   N44       1.0  0.60567  0.24964  0.51113  1.0000
  H   H97       1.0  0.58478  0.24926  0.52051  1.0000
  H   H98       1.0  0.61794  0.24957  0.56427  1.0000
  C   C166      1.0  0.76589  0.35403  0.34598  1.0000
  C   C167      1.0  0.76647  0.41536  0.34105  1.0000
  N   N45       1.0  0.76603  0.39993  0.41959  1.0000
  C   C168      1.0  0.76699  0.37115  0.42674  1.0000
  N   N46       1.0  0.76556  0.35888  0.51059  1.0000
  H   H99       1.0  0.76605  0.33842  0.51997  1.0000
  H   H100      1.0  0.76562  0.37120  0.56374  1.0000
  C   C169      1.0  0.66172  0.41500  0.34591  1.0000
  C   C170      1.0  0.60036  0.35418  0.34060  1.0000
  N   N47       1.0  0.61582  0.36917  0.41917  1.0000
  C   C171      1.0  0.64457  0.39892  0.42656  1.0000
  N   N48       1.0  0.65682  0.40965  0.51049  1.0000
  H   H101      1.0  0.67719  0.43066  0.52003  1.0000
  H   H102      1.0  0.64439  0.39739  0.56354  1.0000
  C   C172      1.0  0.91823  0.26282  0.34673  1.0000
  C   C173      1.0  0.85728  0.26320  0.34068  1.0000
  N   N49       1.0  0.87235  0.26297  0.41933  1.0000
  C   C174      1.0  0.90213  0.26404  0.42704  1.0000
  N   N50       1.0  0.91288  0.26266  0.51104  1.0000
  H   H103      1.0  0.93375  0.26302  0.52068  1.0000
  H   H104      1.0  0.90049  0.26263  0.56402  1.0000
  C   C175      1.0  0.75282  0.15849  0.34635  1.0000
  C   C176      1.0  0.75244  0.09725  0.34152  1.0000
  N   N51       1.0  0.75258  0.11260  0.41993  1.0000
  C   C177      1.0  0.75152  0.14132  0.42707  1.0000
  N   N52       1.0  0.75273  0.15354  0.51086  1.0000
  H   H105      1.0  0.75231  0.17404  0.52010  1.0000
  H   H106      1.0  0.75266  0.14124  0.56409  1.0000
  C   C178      1.0  0.85716  0.09757  0.34579  1.0000
  C   C179      1.0  0.91846  0.15833  0.34088  1.0000
  N   N53       1.0  0.90305  0.14333  0.41943  1.0000
  C   C180      1.0  0.87429  0.11359  0.42656  1.0000
  N   N54       1.0  0.86203  0.10271  0.51041  1.0000
  H   H107      1.0  0.84158  0.08177  0.51979  1.0000
  H   H108      1.0  0.87435  0.11498  0.56357  1.0000
  C   C181      1.0  0.52746  0.76531  0.34286  1.0000
  C   C182      1.0  0.54671  0.80091  0.34093  1.0000
  C   C183      1.0  0.58187  0.81905  0.34249  1.0000
  C   C184      1.0  0.59922  0.80134  0.34582  1.0000
  H   H109      1.0  0.53554  0.81492  0.33779  1.0000
  O   O19       1.0  0.63314  0.81836  0.34786  1.0000
  C   C185      1.0  0.99138  0.74721  0.34287  1.0000
  C   C186      1.0  0.91962  0.71119  0.34601  1.0000
  C   C187      1.0  0.93697  0.69347  0.34262  1.0000
  C   C188      1.0  0.97212  0.71161  0.34103  1.0000
  O   O20       1.0  0.88570  0.69417  0.34809  1.0000
  H   H110      1.0  0.98329  0.69760  0.33790  1.0000
  C   C189      1.0  0.75033  0.76526  0.34313  1.0000
  C   C190      1.0  0.71473  0.74892  0.34162  1.0000
  C   C191      1.0  0.69660  0.76594  0.34259  1.0000
  C   C192      1.0  0.71432  0.80101  0.34561  1.0000
  H   H111      1.0  0.70071  0.72373  0.33908  1.0000
  O   O21       1.0  0.69730  0.81792  0.34751  1.0000
  C   C193      1.0  0.76843  0.74728  0.34309  1.0000
  C   C194      1.0  0.80444  0.71151  0.34533  1.0000
  C   C195      1.0  0.82216  0.74659  0.34232  1.0000
  C   C196      1.0  0.80403  0.76361  0.34132  1.0000
  O   O22       1.0  0.82145  0.69460  0.34726  1.0000
  H   H112      1.0  0.81804  0.78879  0.33866  1.0000
  C   C197      1.0  0.75046  0.98825  0.34290  1.0000
  C   C198      1.0  0.76682  0.96901  0.34139  1.0000
  C   C199      1.0  0.74982  0.93385  0.34273  1.0000
  C   C200      1.0  0.71475  0.91648  0.34578  1.0000
  H   H113      1.0  0.79200  0.98019  0.33877  1.0000
  O   O23       1.0  0.69785  0.88256  0.34756  1.0000
  C   C201      1.0  0.76841  0.52433  0.34288  1.0000
  C   C202      1.0  0.80414  0.59610  0.34568  1.0000
  C   C203      1.0  0.76906  0.57874  0.34259  1.0000
  C   C204      1.0  0.75206  0.54358  0.34150  1.0000
  O   O24       1.0  0.82104  0.63003  0.34769  1.0000
  H   H114      1.0  0.72687  0.53241  0.33911  1.0000
  N   N55       1.0  0.61720  0.75238  0.26848  1.0000
  C   C205      1.0  0.64542  0.75061  0.26172  1.0000
  H   H115      1.0  0.65716  0.75556  0.20056  1.0000
  N   N56       1.0  0.76361  0.86818  0.26777  1.0000
  C   C206      1.0  0.76540  0.89818  0.26135  1.0000
  H   H116      1.0  0.76087  0.90531  0.20016  1.0000
  N   N57       1.0  0.64760  0.89863  0.26762  1.0000
  C   C207      1.0  0.61761  0.87040  0.26110  1.0000
  H   H117      1.0  0.61053  0.85878  0.19984  1.0000
  N   N58       1.0  0.90175  0.76022  0.26835  1.0000
  C   C208      1.0  0.87355  0.76202  0.26138  1.0000
  H   H118      1.0  0.86181  0.75703  0.20024  1.0000
  N   N59       1.0  0.75546  0.64454  0.26815  1.0000
  C   C209      1.0  0.75370  0.61455  0.26179  1.0000
  H   H119      1.0  0.75859  0.60768  0.20067  1.0000
  N   N60       1.0  0.87130  0.61402  0.26759  1.0000
  C   C210      1.0  0.90129  0.64224  0.26118  1.0000
  H   H120      1.0  0.90841  0.65392  0.19999  1.0000
  C   C211      1.0  0.58199  0.76625  0.34531  1.0000
  C   C212      1.0  0.54683  0.74910  0.34488  1.0000
  C   C213      1.0  0.97201  0.76343  0.34481  1.0000
  C   C214      1.0  0.93685  0.74628  0.34536  1.0000
  H   H121      1.0  0.63924  0.82183  0.41214  1.0000
  H   H122      1.0  0.87960  0.69070  0.41236  1.0000
  H   H123      1.0  0.53575  0.72391  0.34672  1.0000
  H   H124      1.0  0.98310  0.78861  0.34651  1.0000
  C   C215      1.0  0.74940  0.81886  0.34516  1.0000
  C   C216      1.0  0.76655  0.80085  0.34465  1.0000
  C   C217      1.0  0.75221  0.71168  0.34483  1.0000
  C   C218      1.0  0.76935  0.69366  0.34500  1.0000
  H   H125      1.0  0.69371  0.82046  0.41176  1.0000
  H   H126      1.0  0.82499  0.69201  0.41152  1.0000
  H   H127      1.0  0.79174  0.81496  0.34600  1.0000
  H   H128      1.0  0.72702  0.69758  0.34651  1.0000
  C   C219      1.0  0.69688  0.93370  0.34520  1.0000
  C   C220      1.0  0.71487  0.96886  0.34448  1.0000
  C   C221      1.0  0.80401  0.54372  0.34432  1.0000
  C   C222      1.0  0.82200  0.57888  0.34501  1.0000
  H   H129      1.0  0.69522  0.87639  0.41178  1.0000
  H   H130      1.0  0.82358  0.63614  0.41195  1.0000
  H   H131      1.0  0.70074  0.97992  0.34567  1.0000
  H   H132      1.0  0.81813  0.53266  0.34549  1.0000
  C   C223      1.0  0.60062  0.74972  0.34677  1.0000
  C   C224      1.0  0.66145  0.74931  0.34133  1.0000
  N   N61       1.0  0.64638  0.74945  0.41998  1.0000
  C   C225      1.0  0.61662  0.74842  0.42726  1.0000
  N   N62       1.0  0.60567  0.74964  0.51113  1.0000
  H   H133      1.0  0.58478  0.74926  0.52051  1.0000
  H   H134      1.0  0.61794  0.74957  0.56427  1.0000
  C   C226      1.0  0.76588  0.85403  0.34598  1.0000
  C   C227      1.0  0.76647  0.91536  0.34105  1.0000
  N   N63       1.0  0.76602  0.89993  0.41959  1.0000
  C   C228      1.0  0.76699  0.87115  0.42674  1.0000
  N   N64       1.0  0.76556  0.85888  0.51059  1.0000
  H   H135      1.0  0.76605  0.83842  0.51997  1.0000
  H   H136      1.0  0.76562  0.87120  0.56374  1.0000
  C   C229      1.0  0.66172  0.91500  0.34591  1.0000
  C   C230      1.0  0.60036  0.85418  0.34060  1.0000
  N   N65       1.0  0.61582  0.86917  0.41917  1.0000
  C   C231      1.0  0.64457  0.89893  0.42656  1.0000
  N   N66       1.0  0.65682  0.90965  0.51049  1.0000
  H   H137      1.0  0.67719  0.93066  0.52003  1.0000
  H   H138      1.0  0.64439  0.89739  0.56354  1.0000
  C   C232      1.0  0.91823  0.76282  0.34673  1.0000
  C   C233      1.0  0.85728  0.76320  0.34068  1.0000
  N   N67       1.0  0.87235  0.76297  0.41933  1.0000
  C   C234      1.0  0.90213  0.76404  0.42704  1.0000
  N   N68       1.0  0.91288  0.76265  0.51104  1.0000
  H   H139      1.0  0.93375  0.76302  0.52068  1.0000
  H   H140      1.0  0.90049  0.76263  0.56402  1.0000
  C   C235      1.0  0.75282  0.65849  0.34635  1.0000
  C   C236      1.0  0.75244  0.59725  0.34152  1.0000
  N   N69       1.0  0.75258  0.61260  0.41993  1.0000
  C   C237      1.0  0.75152  0.64132  0.42707  1.0000
  N   N70       1.0  0.75273  0.65354  0.51086  1.0000
  H   H141      1.0  0.75231  0.67404  0.52010  1.0000
  H   H142      1.0  0.75266  0.64124  0.56409  1.0000
  C   C238      1.0  0.85716  0.59757  0.34579  1.0000
  C   C239      1.0  0.91846  0.65833  0.34088  1.0000
  N   N71       1.0  0.90305  0.64333  0.41943  1.0000
  C   C240      1.0  0.87429  0.61359  0.42656  1.0000
  N   N72       1.0  0.86202  0.60271  0.51041  1.0000
  H   H143      1.0  0.84158  0.58177  0.51979  1.0000
  H   H144      1.0  0.87435  0.61498  0.56357  1.0000
