data_image0
_chemical_formula_structural       C8H3NOC8H3NO2C2H2C2H2CNC2NCNCNCNCNCNC2H2C2H2C2H2C2H2C8H3NO3C8H3NO2C2H2C2H2C2H2C2H2CN2CNCNCNC2H2C2H2C8H3NO2C8H3NO2
_chemical_formula_sum              "C84 H42 N18 O12"
_cell_length_a       34.1533
_cell_length_b       34.1556
_cell_length_c       14.717
_cell_angle_alpha    90
_cell_angle_beta     90
_cell_angle_gamma    120.007

_space_group_name_H-M_alt    "P 1"
_space_group_IT_number       1

loop_
  _space_group_symop_operation_xyz
  'x, y, z'

loop_
  _atom_site_type_symbol
  _atom_site_label
  _atom_site_symmetry_multiplicity
  _atom_site_fract_x
  _atom_site_fract_y
  _atom_site_fract_z
  _atom_site_occupancy
  C   C1        1.0  0.10363  0.05480  0.34715  1.0000
  C   C2        1.0  0.12874  0.04620  0.28120  1.0000
  C   C3        1.0  0.17674  0.07107  0.28373  1.0000
  C   C4        1.0  0.20099  0.10429  0.35087  1.0000
  C   C5        1.0  0.24967  0.12878  0.35318  1.0000
  C   C6        1.0  0.27510  0.10721  0.33531  1.0000
  C   C7        1.0  0.32276  0.13117  0.33767  1.0000
  C   C8        1.0  0.34754  0.17804  0.35755  1.0000
  H   H1        1.0  0.25905  0.07326  0.32181  1.0000
  H   H2        1.0  0.33922  0.11368  0.32405  1.0000
  H   H3        1.0  0.19412  0.06513  0.23410  1.0000
  N   N1        1.0  0.10549  0.01428  0.21150  1.0000
  O   O1        1.0  0.11440  0.03273  0.13458  1.0000
  C   C9        1.0  0.96264  0.05560  0.35759  1.0000
  C   C10       1.0  0.97226  0.08979  0.29198  1.0000
  C   C11       1.0  0.94773  0.11321  0.29330  1.0000
  C   C12       1.0  0.91360  0.10387  0.35840  1.0000
  C   C13       1.0  0.88914  0.12807  0.35835  1.0000
  C   C14       1.0  0.91101  0.17518  0.34127  1.0000
  C   C15       1.0  0.88690  0.19873  0.33981  1.0000
  C   C16       1.0  0.83960  0.17635  0.35496  1.0000
  H   H4        1.0  0.94522  0.19320  0.33075  1.0000
  H   H5        1.0  0.90455  0.23272  0.32668  1.0000
  H   H6        1.0  0.95441  0.13683  0.24386  1.0000
  N   N2        1.0  0.00473  0.09860  0.22328  1.0000
  O   O2        1.0  0.98715  0.08995  0.14553  1.0000
  O   O3        1.0  0.03629  0.13899  0.22504  1.0000
  C   C17       1.0  0.62678  0.15389  0.27412  1.0000
  C   C18       1.0  0.67111  0.16120  0.27797  1.0000
  H   H7        1.0  0.61018  0.14499  0.21307  1.0000
  H   H8        1.0  0.68573  0.15860  0.21914  1.0000
  C   C19       1.0  0.52694  0.20013  0.26895  1.0000
  C   C20       1.0  0.56217  0.19015  0.27001  1.0000
  H   H9        1.0  0.52731  0.22169  0.22003  1.0000
  H   H10       1.0  0.58712  0.20524  0.22209  1.0000
  C   C21       1.0  0.98622  0.03110  0.35894  1.0000
  N   N3        1.0  0.03217  0.05321  0.35431  1.0000
  C   C22       1.0  0.05554  0.03067  0.34920  1.0000
  C   C23       1.0  0.46569  0.27230  0.36851  1.0000
  N   N4        1.0  0.41972  0.24867  0.36762  1.0000
  C   C24       1.0  0.39607  0.20259  0.35870  1.0000
  N   N5        1.0  0.42043  0.18090  0.34973  1.0000
  C   C25       1.0  0.46643  0.20393  0.34844  1.0000
  N   N6        1.0  0.48816  0.24938  0.35812  1.0000
  C   C26       1.0  0.74434  0.19852  0.35140  1.0000
  N   N7        1.0  0.76858  0.17695  0.35652  1.0000
  C   C27       1.0  0.81476  0.19998  0.35104  1.0000
  N   N8        1.0  0.83596  0.24595  0.34004  1.0000
  C   C28       1.0  0.81233  0.26824  0.33305  1.0000
  N   N9        1.0  0.76672  0.24378  0.33943  1.0000
  C   C29       1.0  0.17516  0.11239  0.41552  1.0000
  C   C30       1.0  0.12757  0.08849  0.41329  1.0000
  H   H11       1.0  0.19082  0.13537  0.46662  1.0000
  H   H12       1.0  0.11046  0.09510  0.46258  1.0000
  C   C31       1.0  0.32205  0.19959  0.37545  1.0000
  C   C32       1.0  0.27439  0.17557  0.37358  1.0000
  H   H13       1.0  0.33795  0.23340  0.39020  1.0000
  H   H14       1.0  0.25783  0.19313  0.38547  1.0000
  C   C33       1.0  0.90426  0.06930  0.42238  1.0000
  C   C34       1.0  0.92797  0.04540  0.42158  1.0000
  H   H15       1.0  0.88036  0.06156  0.47173  1.0000
  H   H16       1.0  0.92034  0.02103  0.46995  1.0000
  C   C35       1.0  0.81781  0.12924  0.37243  1.0000
  C   C36       1.0  0.84194  0.10574  0.37432  1.0000
  H   H17       1.0  0.78366  0.11110  0.38365  1.0000
  H   H18       1.0  0.82420  0.07155  0.38520  1.0000
  C   C37       1.0  0.69686  0.17724  0.35839  1.0000
  C   C38       1.0  0.67696  0.18441  0.43663  1.0000
  C   C39       1.0  0.63200  0.17615  0.43198  1.0000
  C   C40       1.0  0.60679  0.16240  0.35022  1.0000
  C   C41       1.0  0.56616  0.16458  0.34142  1.0000
  C   C42       1.0  0.53203  0.14730  0.40904  1.0000
  C   C43       1.0  0.49613  0.15656  0.40715  1.0000
  C   C44       1.0  0.49376  0.18400  0.33807  1.0000
  H   H19       1.0  0.53430  0.12964  0.46305  1.0000
  H   H20       1.0  0.47414  0.14651  0.46090  1.0000
  H   H21       1.0  0.61927  0.18435  0.48717  1.0000
  N   N10       1.0  0.70329  0.20198  0.51647  1.0000
  O   O4        1.0  0.70848  0.23999  0.53714  1.0000
  O   O5        1.0  0.68565  0.17562  0.58261  1.0000
  O   O6        1.0  0.11526  0.98337  0.21142  1.0000
  C   C45       1.0  0.96155  0.91344  0.35200  1.0000
  C   C46       1.0  0.96438  0.88889  0.27690  1.0000
  C   C47       1.0  0.94013  0.84092  0.27898  1.0000
  C   C48       1.0  0.91299  0.81632  0.35405  1.0000
  C   C49       1.0  0.88933  0.76774  0.35536  1.0000
  C   C50       1.0  0.91060  0.74334  0.32673  1.0000
  C   C51       1.0  0.88754  0.69570  0.32773  1.0000
  C   C52       1.0  0.84185  0.67009  0.35603  1.0000
  H   H22       1.0  0.94366  0.76016  0.30604  1.0000
  H   H23       1.0  0.90457  0.67988  0.30577  1.0000
  H   H24       1.0  0.94188  0.82380  0.22344  1.0000
  N   N11       1.0  0.98973  0.91271  0.19942  1.0000
  O   O7        1.0  0.96472  0.90407  0.13097  1.0000
  O   O8        1.0  0.01997  0.90323  0.18132  1.0000
  C   C53       1.0  0.85947  0.47803  0.25817  1.0000
  C   C54       1.0  0.85234  0.51509  0.26537  1.0000
  H   H25       1.0  0.86499  0.46919  0.19497  1.0000
  H   H26       1.0  0.85168  0.53115  0.20702  1.0000
  C   C55       1.0  0.81296  0.33199  0.25673  1.0000
  C   C56       1.0  0.82337  0.37733  0.25763  1.0000
  H   H27       1.0  0.78921  0.31033  0.21135  1.0000
  H   H28       1.0  0.80632  0.38665  0.21341  1.0000
  C   C57       1.0  0.53649  0.39123  0.29600  1.0000
  C   C58       1.0  0.49951  0.34685  0.30035  1.0000
  H   H29       1.0  0.54205  0.40887  0.23660  1.0000
  H   H30       1.0  0.48014  0.33325  0.24329  1.0000
  C   C59       1.0  0.68227  0.49145  0.27549  1.0000
  C   C60       1.0  0.63712  0.45620  0.28045  1.0000
  H   H31       1.0  0.70157  0.49210  0.22150  1.0000
  H   H32       1.0  0.62549  0.43219  0.23029  1.0000
  C   C61       1.0  0.98574  0.96140  0.35403  1.0000
  N   N12       1.0  0.96349  0.98507  0.35968  1.0000
  N   N13       1.0  0.03168  0.98466  0.34803  1.0000
  C   C62       1.0  0.81948  0.55267  0.34911  1.0000
  N   N14       1.0  0.84138  0.59858  0.35191  1.0000
  C   C63       1.0  0.81824  0.62167  0.35477  1.0000
  N   N15       1.0  0.77197  0.59700  0.35450  1.0000
  C   C64       1.0  0.74938  0.55102  0.34997  1.0000
  N   N16       1.0  0.77379  0.52973  0.34771  1.0000
  C   C65       1.0  0.91014  0.84157  0.42744  1.0000
  C   C66       1.0  0.93376  0.88919  0.42630  1.0000
  H   H33       1.0  0.89144  0.82541  0.48382  1.0000
  H   H34       1.0  0.93131  0.90609  0.48159  1.0000
  C   C67       1.0  0.82054  0.69453  0.38434  1.0000
  C   C68       1.0  0.84385  0.74222  0.38479  1.0000
  H   H35       1.0  0.78762  0.67777  0.40589  1.0000
  H   H36       1.0  0.82674  0.75823  0.40500  1.0000
  C   C69       1.0  0.84087  0.52643  0.34963  1.0000
  C   C70       1.0  0.83819  0.50093  0.42787  1.0000
  C   C71       1.0  0.84615  0.46413  0.41967  1.0000
  C   C72       1.0  0.85523  0.45099  0.33458  1.0000
  C   C73       1.0  0.85238  0.40789  0.32449  1.0000
  C   C74       1.0  0.87244  0.39169  0.38735  1.0000
  C   C75       1.0  0.86272  0.34635  0.38547  1.0000
  C   C76       1.0  0.83169  0.31552  0.32172  1.0000
  H   H37       1.0  0.89286  0.41239  0.43799  1.0000
  H   H38       1.0  0.87519  0.33511  0.43618  1.0000
  H   H39       1.0  0.84105  0.44431  0.47563  1.0000
  N   N17       1.0  0.82522  0.51130  0.51193  1.0000
  O   O9        1.0  0.78863  0.47893  0.54053  1.0000
  O   O10       1.0  0.85515  0.52135  0.57145  1.0000
  C   C77       1.0  0.49257  0.31971  0.37776  1.0000
  C   C78       1.0  0.52232  0.33845  0.45294  1.0000
  C   C79       1.0  0.55890  0.38346  0.44806  1.0000
  C   C80       1.0  0.56764  0.40997  0.36867  1.0000
  C   C81       1.0  0.61014  0.45084  0.35768  1.0000
  C   C82       1.0  0.62953  0.48367  0.42758  1.0000
  C   C83       1.0  0.67460  0.51959  0.42196  1.0000
  C   C84       1.0  0.70183  0.52332  0.34656  1.0000
  H   H40       1.0  0.61153  0.48044  0.48547  1.0000
  H   H41       1.0  0.68841  0.54076  0.47655  1.0000
  H   H42       1.0  0.58164  0.39531  0.50054  1.0000
  N   N18       1.0  0.51606  0.31100  0.52999  1.0000
  O   O11       1.0  0.54940  0.30554  0.54284  1.0000
  O   O12       1.0  0.50953  0.32765  0.60055  1.0000
