data_image0
_chemical_formula_structural       C2H4CH4NC2H3NHNC2H3NHNCH3NHC29H17C3O3C29H17C3O3CNC2O2C2H3NHCNC2O2C2H3NHCNC2O2C2H3NH
_chemical_formula_sum              "C87 H66 N12 O12"
_cell_length_a       44.9077
_cell_length_b       44.9077
_cell_length_c       14.9892
_cell_angle_alpha    90
_cell_angle_beta     90
_cell_angle_gamma    120

_space_group_name_H-M_alt    "P 1"
_space_group_IT_number       1

loop_
  _space_group_symop_operation_xyz
  'x, y, z'

loop_
  _atom_site_type_symbol
  _atom_site_label
  _atom_site_symmetry_multiplicity
  _atom_site_fract_x
  _atom_site_fract_y
  _atom_site_fract_z
  _atom_site_occupancy
  C   C1        1.0  0.01229  0.49661  0.25973  1.0000
  C   C2        1.0  0.40857  0.85508  0.31881  1.0000
  H   H1        1.0  0.39753  0.87015  0.31300  1.0000
  H   H2        1.0  0.36234  0.80977  0.28988  1.0000
  H   H3        1.0  0.47329  0.60335  0.31242  1.0000
  H   H4        1.0  0.13078  0.52764  0.31231  1.0000
  C   C3        1.0  0.59212  0.14591  0.34555  1.0000
  H   H5        1.0  0.60316  0.13078  0.34294  1.0000
  H   H6        1.0  0.63984  0.19122  0.35957  1.0000
  H   H7        1.0  0.52840  0.39788  0.34347  1.0000
  H   H8        1.0  0.87021  0.47254  0.34340  1.0000
  N   N1        1.0  0.51936  0.49680  0.27687  1.0000
  C   C4        1.0  0.50432  0.51588  0.25979  1.0000
  C   C5        1.0  0.48459  0.51984  0.32697  1.0000
  H   H9        1.0  0.50674  0.52632  0.19783  1.0000
  H   H10       1.0  0.56095  0.44435  0.01017  1.0000
  H   H11       1.0  0.57288  0.48843  0.00496  1.0000
  N   N2        1.0  0.46870  0.53881  0.31301  1.0000
  H   H12       1.0  0.47623  0.55395  0.26117  1.0000
  N   N3        1.0  0.50404  0.02276  0.27687  1.0000
  C   C6        1.0  0.48492  0.98863  0.25993  1.0000
  C   C7        1.0  0.48108  0.96496  0.32703  1.0000
  H   H13       1.0  0.47426  0.98059  0.19817  1.0000
  H   H14       1.0  0.55531  0.11603  0.01152  1.0000
  H   H15       1.0  0.51143  0.08341  0.00528  1.0000
  N   N4        1.0  0.46204  0.93010  0.31319  1.0000
  H   H16       1.0  0.44683  0.92248  0.26150  1.0000
  N   N5        1.0  0.97817  0.48155  0.27681  1.0000
  C   C8        1.0  0.03598  0.51632  0.32692  1.0000
  H   H17       1.0  0.02031  0.49418  0.19776  1.0000
  H   H18       1.0  0.88412  0.43998  0.01013  1.0000
  H   H19       1.0  0.91627  0.42805  0.00494  1.0000
  N   N6        1.0  0.07083  0.53223  0.31294  1.0000
  H   H20       1.0  0.07845  0.52471  0.26108  1.0000
  C   C9        1.0  0.44355  0.86965  0.34338  1.0000
  C   C10       1.0  0.45702  0.84729  0.35361  1.0000
  C   C11       1.0  0.43630  0.81168  0.33970  1.0000
  C   C12       1.0  0.40116  0.79713  0.31708  1.0000
  C   C13       1.0  0.38771  0.81941  0.30575  1.0000
  C   C14       1.0  0.37984  0.76187  0.30585  1.0000
  C   C15       1.0  0.37849  0.73829  0.36358  1.0000
  C   C16       1.0  0.35636  0.70321  0.35463  1.0000
  C   C17       1.0  0.32032  0.68929  0.35529  1.0000
  C   C18       1.0  0.29772  0.65335  0.35477  1.0000
  C   C19       1.0  0.31163  0.63122  0.35534  1.0000
  C   C20       1.0  0.34757  0.64456  0.35474  1.0000
  C   C21       1.0  0.36970  0.68061  0.35522  1.0000
  C   C22       1.0  0.36053  0.62245  0.36369  1.0000
  C   C23       1.0  0.38270  0.62104  0.30583  1.0000
  C   C24       1.0  0.39664  0.59973  0.31704  1.0000
  C   C25       1.0  0.43235  0.61316  0.30543  1.0000
  C   C26       1.0  0.37609  0.56461  0.34002  1.0000
  C   C27       1.0  0.39101  0.54392  0.35397  1.0000
  C   C28       1.0  0.42681  0.55738  0.34339  1.0000
  C   C29       1.0  0.44719  0.59231  0.31839  1.0000
  C   C30       1.0  0.26264  0.64039  0.36373  1.0000
  C   C31       1.0  0.23907  0.61822  0.30588  1.0000
  C   C32       1.0  0.20382  0.60428  0.31709  1.0000
  C   C33       1.0  0.18925  0.62483  0.34008  1.0000
  C   C34       1.0  0.18153  0.56857  0.30542  1.0000
  C   C35       1.0  0.14585  0.55374  0.31838  1.0000
  C   C36       1.0  0.13129  0.57412  0.34334  1.0000
  C   C37       1.0  0.15364  0.60991  0.35398  1.0000
  H   H21       1.0  0.48225  0.85677  0.37053  1.0000
  H   H22       1.0  0.44711  0.79645  0.34712  1.0000
  H   H23       1.0  0.39579  0.69048  0.35868  1.0000
  H   H24       1.0  0.31044  0.70550  0.35874  1.0000
  H   H25       1.0  0.29542  0.60513  0.35882  1.0000
  H   H26       1.0  0.20449  0.65086  0.34777  1.0000
  H   H27       1.0  0.44806  0.63851  0.28923  1.0000
  H   H28       1.0  0.37528  0.51871  0.37117  1.0000
  H   H29       1.0  0.35006  0.55382  0.34768  1.0000
  H   H30       1.0  0.14416  0.62565  0.37119  1.0000
  H   H31       1.0  0.19117  0.55286  0.28920  1.0000
  H   H32       1.0  0.39078  0.63701  0.25390  1.0000
  H   H33       1.0  0.35275  0.60696  0.41656  1.0000
  H   H34       1.0  0.36379  0.75400  0.25408  1.0000
  H   H35       1.0  0.39405  0.74599  0.41631  1.0000
  H   H36       1.0  0.24696  0.61013  0.25396  1.0000
  H   H37       1.0  0.25494  0.64818  0.41659  1.0000
  C   C38       1.0  0.09543  0.55914  0.36093  1.0000
  C   C39       1.0  0.44181  0.53651  0.36104  1.0000
  C   C40       1.0  0.46446  0.90551  0.36091  1.0000
  O   O1        1.0  0.42672  0.51207  0.42490  1.0000
  O   O2        1.0  0.48896  0.91486  0.42463  1.0000
  O   O3        1.0  0.08608  0.57416  0.42498  1.0000
  C   C41       1.0  0.55607  0.13134  0.33675  1.0000
  C   C42       1.0  0.54261  0.15391  0.33717  1.0000
  C   C43       1.0  0.56428  0.18963  0.34664  1.0000
  C   C44       1.0  0.60027  0.20401  0.35444  1.0000
  C   C45       1.0  0.61387  0.18164  0.35460  1.0000
  C   C46       1.0  0.62224  0.23922  0.36265  1.0000
  C   C47       1.0  0.62204  0.26243  0.30628  1.0000
  C   C48       1.0  0.64453  0.29758  0.31251  1.0000
  C   C49       1.0  0.68056  0.31130  0.31184  1.0000
  C   C50       1.0  0.70339  0.34719  0.31247  1.0000
  C   C51       1.0  0.68967  0.36950  0.31188  1.0000
  C   C52       1.0  0.65377  0.35644  0.31251  1.0000
  C   C53       1.0  0.63147  0.32041  0.31190  1.0000
  C   C54       1.0  0.64111  0.37892  0.30629  1.0000
  C   C55       1.0  0.61775  0.37876  0.36277  1.0000
  C   C56       1.0  0.60452  0.40074  0.35459  1.0000
  C   C57       1.0  0.56855  0.38716  0.35498  1.0000
  C   C58       1.0  0.62613  0.43672  0.34658  1.0000
  C   C59       1.0  0.61208  0.45839  0.33712  1.0000
  C   C60       1.0  0.57605  0.44494  0.33691  1.0000
  C   C61       1.0  0.55457  0.40891  0.34595  1.0000
  C   C62       1.0  0.73853  0.35986  0.30623  1.0000
  C   C63       1.0  0.76174  0.38320  0.36271  1.0000
  C   C64       1.0  0.79695  0.39643  0.35451  1.0000
  C   C65       1.0  0.81131  0.37481  0.34651  1.0000
  C   C66       1.0  0.81933  0.43239  0.35485  1.0000
  C   C67       1.0  0.85507  0.44637  0.34583  1.0000
  C   C68       1.0  0.86962  0.42488  0.33683  1.0000
  C   C69       1.0  0.84703  0.38885  0.33705  1.0000
  H   H38       1.0  0.51671  0.14453  0.33184  1.0000
  H   H39       1.0  0.55351  0.20505  0.34752  1.0000
  H   H40       1.0  0.60539  0.31070  0.30929  1.0000
  H   H41       1.0  0.69027  0.29494  0.30922  1.0000
  H   H42       1.0  0.70603  0.39557  0.30925  1.0000
  H   H43       1.0  0.79587  0.34862  0.34724  1.0000
  H   H44       1.0  0.55215  0.36119  0.36010  1.0000
  H   H45       1.0  0.62862  0.48429  0.33161  1.0000
  H   H46       1.0  0.65231  0.44748  0.34730  1.0000
  H   H47       1.0  0.85638  0.37231  0.33152  1.0000
  H   H48       1.0  0.80978  0.44880  0.36005  1.0000
  H   H49       1.0  0.60833  0.36129  0.41126  1.0000
  H   H50       1.0  0.65029  0.39617  0.25725  1.0000
  H   H51       1.0  0.63975  0.24727  0.41107  1.0000
  H   H52       1.0  0.60476  0.25437  0.25730  1.0000
  H   H53       1.0  0.75369  0.39261  0.41124  1.0000
  H   H54       1.0  0.74660  0.35068  0.25715  1.0000
  C   C70       1.0  0.90573  0.43879  0.32545  1.0000
  C   C71       1.0  0.56214  0.46715  0.32555  1.0000
  C   C72       1.0  0.53387  0.09522  0.32542  1.0000
  O   O4        1.0  0.58119  0.49671  0.27941  1.0000
  O   O5        1.0  0.50429  0.08470  0.27936  1.0000
  O   O6        1.0  0.91624  0.41971  0.27942  1.0000
  C   C73       1.0  0.51760  0.48158  0.35682  1.0000
  N   N7        1.0  0.48320  0.50485  0.40691  1.0000
  C   C74       1.0  0.49844  0.48591  0.42609  1.0000
  C   C75       1.0  0.49569  0.47306  0.51175  1.0000
  O   O7        1.0  0.47408  0.47301  0.56178  1.0000
  O   O8        1.0  0.52559  0.48097  0.55122  1.0000
  C   C76       1.0  0.52447  0.45402  0.60603  1.0000
  C   C77       1.0  0.56133  0.46430  0.63446  1.0000
  H   H55       1.0  0.51353  0.42961  0.56986  1.0000
  H   H56       1.0  0.50906  0.45036  0.66586  1.0000
  H   H57       1.0  0.57703  0.46753  0.57568  1.0000
  N   N8        1.0  0.53232  0.46129  0.36508  1.0000
  H   H58       1.0  0.52095  0.44175  0.40520  1.0000
  C   C78       1.0  0.51948  0.03625  0.35658  1.0000
  N   N9        1.0  0.49629  0.97858  0.40674  1.0000
  C   C79       1.0  0.51532  0.01278  0.42575  1.0000
  C   C80       1.0  0.52848  0.02300  0.51125  1.0000
  O   O9        1.0  0.52929  0.00148  0.55986  1.0000
  O   O10       1.0  0.51998  0.04450  0.55084  1.0000
  C   C81       1.0  0.54656  0.07038  0.60638  1.0000
  C   C82       1.0  0.53564  0.09644  0.63525  1.0000
  H   H59       1.0  0.57104  0.08430  0.57066  1.0000
  H   H60       1.0  0.55030  0.05858  0.66602  1.0000
  H   H61       1.0  0.53234  0.10895  0.57669  1.0000
  N   N10       1.0  0.53978  0.07127  0.36477  1.0000
  H   H62       1.0  0.55933  0.07946  0.40488  1.0000
  C   C83       1.0  0.96471  0.48329  0.35677  1.0000
  N   N11       1.0  0.02238  0.51771  0.40686  1.0000
  C   C84       1.0  0.98820  0.50245  0.42604  1.0000
  C   C85       1.0  0.97809  0.50521  0.51169  1.0000
  O   O11       1.0  0.99965  0.52683  0.56172  1.0000
  O   O12       1.0  0.95610  0.47532  0.55117  1.0000
  C   C86       1.0  0.93026  0.47644  0.60597  1.0000
  C   C87       1.0  0.90369  0.43959  0.63443  1.0000
  H   H63       1.0  0.91679  0.48738  0.56979  1.0000
  H   H64       1.0  0.94202  0.49186  0.66580  1.0000
  H   H65       1.0  0.89121  0.42388  0.57565  1.0000
  N   N12       1.0  0.92970  0.46861  0.36497  1.0000
  H   H66       1.0  0.92153  0.47997  0.40514  1.0000
