data_image0
_chemical_formula_structural       C3HCH3NC3HCH3NC3HCH3NC3HCH3NC3HCH3C3HCH2NC3H3NC3HCH3NCHC3HCH3NCNCNCNC3H3CNCNCNC3H3CNCNC2H2CNCNC2H2CNCNCNC3H3CNCNCNC3H3C3HCH3NC3HCH3NCNC3HCH3NC4H3NC3H2C2H3C3HCH3NC2HNC3HCH3NC3HCH3N3HC3HCH3NC3HCH3NC3HCH3NC3HCH3NCNCNCNC3H3CNCHCNCNCNC3H3CNCHCNCNCNC3H3CNCNCNC3H3C3HCH3NCH3C2HCH4NHCH2NC3HCH3NC3HCH3NC3HCH3NC3HCH3NC3HCH3C3HCH3NC3HCH3NCNCNCNC3H3CNCNCNC3H3C3HNC4H3C3HCH3NCHC3H3NC2HNC2H3
_chemical_formula_sum              "C216 H180 N72"
_cell_length_a       60.8279
_cell_length_b       60.8278
_cell_length_c       14.5481
_cell_angle_alpha    90
_cell_angle_beta     90
_cell_angle_gamma    120

_space_group_name_H-M_alt    "P 1"
_space_group_IT_number       1

loop_
  _space_group_symop_operation_xyz
  'x, y, z'

loop_
  _atom_site_type_symbol
  _atom_site_label
  _atom_site_symmetry_multiplicity
  _atom_site_fract_x
  _atom_site_fract_y
  _atom_site_fract_z
  _atom_site_occupancy
  C   C1        1.0  0.27985  0.48392  0.36154  1.0000
  C   C2        1.0  0.26075  0.47046  0.29370  1.0000
  C   C3        1.0  0.23717  0.47003  0.29873  1.0000
  H   H1        1.0  0.22382  0.46083  0.24866  1.0000
  C   C4        1.0  0.26445  0.45749  0.21345  1.0000
  H   H2        1.0  0.28350  0.46020  0.20895  1.0000
  H   H3        1.0  0.26101  0.46481  0.14981  1.0000
  H   H4        1.0  0.25103  0.43714  0.21744  1.0000
  N   N1        1.0  0.30329  0.48650  0.35912  1.0000
  C   C5        1.0  0.23506  0.77647  0.36155  1.0000
  C   C6        1.0  0.24071  0.79558  0.29371  1.0000
  C   C7        1.0  0.26390  0.81912  0.29868  1.0000
  H   H5        1.0  0.26805  0.83247  0.24866  1.0000
  C   C8        1.0  0.22402  0.79192  0.21358  1.0000
  H   H6        1.0  0.20764  0.77289  0.20911  1.0000
  H   H7        1.0  0.23475  0.79534  0.14987  1.0000
  H   H8        1.0  0.21715  0.80539  0.21768  1.0000
  N   N2        1.0  0.21419  0.75306  0.35911  1.0000
  C   C9        1.0  0.48592  0.23337  0.36141  1.0000
  C   C10       1.0  0.47242  0.23898  0.29364  1.0000
  C   C11       1.0  0.47197  0.26212  0.29873  1.0000
  H   H9        1.0  0.46275  0.26625  0.24870  1.0000
  C   C12       1.0  0.45943  0.22229  0.21344  1.0000
  H   H10       1.0  0.46215  0.20595  0.20893  1.0000
  H   H11       1.0  0.46672  0.23304  0.14977  1.0000
  H   H12       1.0  0.43908  0.21535  0.21753  1.0000
  N   N3        1.0  0.48852  0.21254  0.35886  1.0000
  C   C13       1.0  0.15001  0.56488  0.37599  1.0000
  C   C14       1.0  0.16204  0.58240  0.30385  1.0000
  C   C15       1.0  0.16244  0.60590  0.30065  1.0000
  H   H13       1.0  0.16975  0.57742  0.25089  1.0000
  C   C16       1.0  0.17408  0.62289  0.21996  1.0000
  H   H14       1.0  0.18107  0.61482  0.16846  1.0000
  H   H15       1.0  0.19010  0.64093  0.24227  1.0000
  H   H16       1.0  0.16006  0.62645  0.18675  1.0000
  N   N4        1.0  0.14732  0.54164  0.37702  1.0000
  C   C17       1.0  0.49157  0.61062  0.37609  1.0000
  C   C18       1.0  0.47402  0.60515  0.30406  1.0000
  C   C19       1.0  0.45050  0.58207  0.30095  1.0000
  H   H17       1.0  0.47899  0.61785  0.25115  1.0000
  C   C20       1.0  0.43348  0.57674  0.22039  1.0000
  H   H18       1.0  0.44154  0.59181  0.16889  1.0000
  H   H19       1.0  0.41547  0.57477  0.24286  1.0000
  H   H20       1.0  0.42987  0.55916  0.18712  1.0000
  C   C21       1.0  0.44590  0.90661  0.37599  1.0000
  C   C22       1.0  0.45139  0.89456  0.30384  1.0000
  C   C23       1.0  0.47443  0.89405  0.30073  1.0000
  H   H21       1.0  0.43869  0.88687  0.25089  1.0000
  C   C24       1.0  0.47974  0.88235  0.22011  1.0000
  H   H22       1.0  0.46467  0.87538  0.16861  1.0000
  H   H23       1.0  0.48168  0.86630  0.24251  1.0000
  N   N5        1.0  0.42539  0.90938  0.37701  1.0000
  C   C25       1.0  0.05500  0.43384  0.36695  1.0000
  C   C26       1.0  0.04091  0.41791  0.29184  1.0000
  C   C27       1.0  0.05401  0.41656  0.20746  1.0000
  H   H24       1.0  0.06621  0.40875  0.22424  1.0000
  H   H25       1.0  0.06561  0.43554  0.17865  1.0000
  H   H26       1.0  0.04076  0.40458  0.15424  1.0000
  N   N6        1.0  0.08038  0.44952  0.36327  1.0000
  C   C28       1.0  0.40869  0.00145  0.36715  1.0000
  C   C29       1.0  0.40618  0.01554  0.29345  1.0000
  C   C30       1.0  0.41922  0.04252  0.29742  1.0000
  H   H27       1.0  0.41802  0.05260  0.24325  1.0000
  C   C31       1.0  0.39100  0.00246  0.21034  1.0000
  H   H28       1.0  0.37115  0.99025  0.22925  1.0000
  H   H29       1.0  0.39813  0.99088  0.17943  1.0000
  H   H30       1.0  0.39179  0.01571  0.15803  1.0000
  N   N7        1.0  0.39923  0.97611  0.36292  1.0000
  C   C32       1.0  0.04435  0.65078  0.29570  1.0000
  H   H31       1.0  0.05443  0.66171  0.24086  1.0000
  C   C33       1.0  0.43577  0.40807  0.36691  1.0000
  C   C34       1.0  0.41984  0.40622  0.29179  1.0000
  C   C35       1.0  0.40582  0.41918  0.29574  1.0000
  H   H32       1.0  0.39496  0.41840  0.24075  1.0000
  C   C36       1.0  0.41849  0.39178  0.20742  1.0000
  H   H33       1.0  0.41068  0.37176  0.22420  1.0000
  H   H34       1.0  0.43747  0.39916  0.17860  1.0000
  H   H35       1.0  0.40651  0.39304  0.15420  1.0000
  N   N8        1.0  0.45145  0.39837  0.36322  1.0000
  C   C37       1.0  0.16870  0.47709  0.35441  1.0000
  N   N9        1.0  0.14360  0.45884  0.35675  1.0000
  C   C38       1.0  0.12448  0.46448  0.36051  1.0000
  N   N10       1.0  0.13123  0.48948  0.36095  1.0000
  C   C39       1.0  0.15598  0.50839  0.35825  1.0000
  N   N11       1.0  0.17433  0.50177  0.35434  1.0000
  C   C40       1.0  0.16270  0.53378  0.35423  1.0000
  C   C41       1.0  0.18756  0.47046  0.34728  1.0000
  C   C42       1.0  0.09911  0.44520  0.36324  1.0000
  H   H36       1.0  0.09536  0.42732  0.36705  1.0000
  H   H37       1.0  0.18249  0.45309  0.32530  1.0000
  H   H38       1.0  0.18013  0.54631  0.33329  1.0000
  C   C43       1.0  0.33928  0.88760  0.35415  1.0000
  N   N12       1.0  0.34592  0.91263  0.35655  1.0000
  C   C44       1.0  0.37060  0.93189  0.36026  1.0000
  N   N13       1.0  0.38904  0.92538  0.36068  1.0000
  C   C45       1.0  0.38341  0.90068  0.35793  1.0000
  N   N14       1.0  0.35848  0.88218  0.35403  1.0000
  C   C46       1.0  0.40216  0.89406  0.35383  1.0000
  C   C47       1.0  0.31384  0.86865  0.34703  1.0000
  C   C48       1.0  0.37631  0.95715  0.36332  1.0000
  H   H39       1.0  0.36203  0.96063  0.36808  1.0000
  H   H40       1.0  0.30148  0.87364  0.32498  1.0000
  H   H41       1.0  0.39731  0.87666  0.33263  1.0000
  C   C49       1.0  0.47900  0.33761  0.35439  1.0000
  N   N15       1.0  0.46076  0.34447  0.35672  1.0000
  C   C50       1.0  0.46641  0.36923  0.36047  1.0000
  N   N16       1.0  0.49141  0.38749  0.36093  1.0000
  C   C51       1.0  0.47237  0.31212  0.34726  1.0000
  C   C52       1.0  0.44713  0.37532  0.36319  1.0000
  H   H42       1.0  0.42925  0.36120  0.36701  1.0000
  H   H43       1.0  0.45500  0.29983  0.32524  1.0000
  C   C53       1.0  0.47908  0.16968  0.36154  1.0000
  N   N17       1.0  0.46083  0.14463  0.35488  1.0000
  C   C54       1.0  0.46640  0.12547  0.35527  1.0000
  N   N18       1.0  0.49129  0.13206  0.36188  1.0000
  C   C55       1.0  0.47233  0.18852  0.36377  1.0000
  C   C56       1.0  0.44739  0.10018  0.34596  1.0000
  H   H44       1.0  0.43100  0.09647  0.31777  1.0000
  H   H45       1.0  0.45405  0.18312  0.37078  1.0000
  C   C57       1.0  0.33681  0.47721  0.36163  1.0000
  N   N19       1.0  0.34378  0.45907  0.35517  1.0000
  C   C58       1.0  0.36858  0.46483  0.35574  1.0000
  N   N20       1.0  0.38672  0.48975  0.36231  1.0000
  C   C59       1.0  0.38082  0.50856  0.36869  1.0000
  N   N21       1.0  0.35579  0.50187  0.36854  1.0000
  C   C60       1.0  0.39959  0.53386  0.37579  1.0000
  C   C61       1.0  0.31118  0.47035  0.36359  1.0000
  C   C62       1.0  0.37517  0.44603  0.34666  1.0000
  H   H46       1.0  0.36258  0.42951  0.31911  1.0000
  H   H47       1.0  0.29834  0.45205  0.37012  1.0000
  H   H48       1.0  0.39451  0.54681  0.38778  1.0000
  C   C63       1.0  0.17138  0.71961  0.36164  1.0000
  N   N22       1.0  0.14628  0.71268  0.35513  1.0000
  C   C64       1.0  0.12722  0.68789  0.35559  1.0000
  N   N23       1.0  0.13398  0.66973  0.36211  1.0000
  C   C65       1.0  0.15868  0.67560  0.36854  1.0000
  N   N24       1.0  0.17703  0.70061  0.36849  1.0000
  C   C66       1.0  0.16519  0.65681  0.37562  1.0000
  C   C67       1.0  0.19017  0.74523  0.36371  1.0000
  C   C68       1.0  0.10185  0.68132  0.34648  1.0000
  H   H49       1.0  0.09793  0.69393  0.31893  1.0000
  H   H50       1.0  0.18473  0.75808  0.37037  1.0000
  H   H51       1.0  0.18321  0.66187  0.38774  1.0000
  C   C69       1.0  0.23205  0.48333  0.36722  1.0000
  C   C70       1.0  0.25138  0.49715  0.43193  1.0000
  C   C71       1.0  0.27492  0.49753  0.43066  1.0000
  H   H52       1.0  0.24821  0.50732  0.48102  1.0000
  C   C72       1.0  0.29432  0.51245  0.50189  1.0000
  H   H53       1.0  0.28792  0.52172  0.55066  1.0000
  H   H54       1.0  0.31156  0.52716  0.46899  1.0000
  H   H55       1.0  0.29890  0.49991  0.54078  1.0000
  N   N25       1.0  0.21102  0.48550  0.36932  1.0000
  C   C73       1.0  0.28232  0.82420  0.36715  1.0000
  C   C74       1.0  0.27678  0.80486  0.43184  1.0000
  C   C75       1.0  0.25360  0.78135  0.43060  1.0000
  H   H56       1.0  0.29013  0.80801  0.48089  1.0000
  C   C76       1.0  0.24909  0.76193  0.50178  1.0000
  H   H57       1.0  0.26477  0.76830  0.55051  1.0000
  H   H58       1.0  0.24652  0.74468  0.46884  1.0000
  H   H59       1.0  0.23199  0.75738  0.54073  1.0000
  N   N26       1.0  0.30551  0.84522  0.36928  1.0000
  C   C77       1.0  0.48526  0.28053  0.36724  1.0000
  N   N27       1.0  0.48741  0.30372  0.36935  1.0000
  C   C78       1.0  0.15088  0.61237  0.37299  1.0000
  C   C79       1.0  0.13846  0.59475  0.44576  1.0000
  C   C80       1.0  0.13816  0.57131  0.44569  1.0000
  H   H60       1.0  0.12890  0.55848  0.49733  1.0000
  C   C81       1.0  0.12526  0.59944  0.52302  1.0000
  H   H61       1.0  0.12649  0.61793  0.51957  1.0000
  H   H62       1.0  0.13363  0.59848  0.58825  1.0000
  H   H63       1.0  0.10519  0.58493  0.52291  1.0000
  N   N28       1.0  0.14852  0.63309  0.36788  1.0000
  C   C82       1.0  0.44404  0.56403  0.37326  1.0000
  C   C83       1.0  0.46170  0.56920  0.44584  1.0000
  C   C84       1.0  0.48516  0.59232  0.44572  1.0000
  C   C85       1.0  0.45703  0.55129  0.52306  1.0000
  H   H64       1.0  0.43853  0.53406  0.51971  1.0000
  H   H65       1.0  0.45804  0.56062  0.58833  1.0000
  H   H66       1.0  0.47151  0.54570  0.52273  1.0000
  N   N29       1.0  0.42332  0.54094  0.36816  1.0000
  C   C86       1.0  0.49247  0.90555  0.37310  1.0000
  C   C87       1.0  0.48731  0.91802  0.44579  1.0000
  C   C88       1.0  0.46420  0.91841  0.44569  1.0000
  H   H67       1.0  0.46068  0.92770  0.49732  1.0000
  H   H68       1.0  0.49585  0.92282  0.58831  1.0000
  C   C89       1.0  0.04146  0.43586  0.44338  1.0000
  C   C90       1.0  0.05525  0.45272  0.52242  1.0000
  H   H69       1.0  0.04248  0.45217  0.57632  1.0000
  H   H70       1.0  0.06649  0.47231  0.49882  1.0000
  H   H71       1.0  0.06793  0.44688  0.55290  1.0000
  C   C91       1.0  0.43521  0.05611  0.37181  1.0000
  C   C92       1.0  0.43774  0.04191  0.44337  1.0000
  C   C93       1.0  0.42476  0.01498  0.44250  1.0000
  H   H72       1.0  0.44969  0.05151  0.49681  1.0000
  C   C94       1.0  0.42838  0.00120  0.52031  1.0000
  H   H73       1.0  0.44093  0.01395  0.57356  1.0000
  H   H74       1.0  0.43660  0.98998  0.49506  1.0000
  H   H75       1.0  0.41007  0.98848  0.55214  1.0000
  N   N30       1.0  0.45010  0.08152  0.37388  1.0000
  C   C95       1.0  0.05795  0.64895  0.37124  1.0000
  C   C96       1.0  0.04377  0.63263  0.44378  1.0000
  H   H76       1.0  0.05339  0.63067  0.49802  1.0000
  N   N31       1.0  0.08338  0.65972  0.37359  1.0000
  C   C97       1.0  0.40754  0.43449  0.37148  1.0000
  C   C98       1.0  0.42381  0.43658  0.44412  1.0000
  C   C99       1.0  0.43779  0.42363  0.44332  1.0000
  H   H77       1.0  0.42571  0.44810  0.49850  1.0000
  C   C100      1.0  0.45466  0.42671  0.52235  1.0000
  H   H78       1.0  0.45412  0.43893  0.57625  1.0000
  H   H79       1.0  0.47425  0.43507  0.49872  1.0000
  H   H80       1.0  0.44883  0.40820  0.55283  1.0000
  N   N32       1.0  0.39677  0.44917  0.37381  1.0000
  C   C101      1.0  0.57253  0.82136  0.36134  1.0000
  C   C102      1.0  0.58601  0.81574  0.29354  1.0000
  C   C103      1.0  0.58645  0.79259  0.29858  1.0000
  H   H81       1.0  0.59567  0.78846  0.24856  1.0000
  C   C104      1.0  0.59903  0.83244  0.21340  1.0000
  H   H82       1.0  0.59632  0.84878  0.20889  1.0000
  H   H83       1.0  0.59174  0.82169  0.14970  1.0000
  H   H84       1.0  0.61938  0.83936  0.21752  1.0000
  N   N33       1.0  0.56995  0.84221  0.35890  1.0000
  N   N34       1.0  0.75505  0.56810  0.35891  1.0000
  N   N35       1.0  0.51482  0.63115  0.37705  1.0000
  H   H85       1.0  0.49734  0.89632  0.18688  1.0000
  C   C105      1.0  0.56681  0.44408  0.37600  1.0000
  C   C106      1.0  0.58434  0.44956  0.30388  1.0000
  C   C107      1.0  0.60784  0.47267  0.30068  1.0000
  H   H86       1.0  0.57937  0.43688  0.25094  1.0000
  C   C108      1.0  0.62484  0.47802  0.22000  1.0000
  H   H87       1.0  0.61677  0.46295  0.16852  1.0000
  H   H88       1.0  0.64287  0.48003  0.24234  1.0000
  H   H89       1.0  0.62839  0.49559  0.18676  1.0000
  N   N36       1.0  0.54358  0.42353  0.37702  1.0000
  C   C109      1.0  0.61243  0.14819  0.37612  1.0000
  C   C110      1.0  0.60694  0.16024  0.30409  1.0000
  C   C111      1.0  0.58382  0.16062  0.30091  1.0000
  H   H90       1.0  0.61964  0.16801  0.25123  1.0000
  C   C112      1.0  0.57849  0.17233  0.22039  1.0000
  H   H91       1.0  0.59359  0.17939  0.16898  1.0000
  H   H92       1.0  0.57647  0.18833  0.24293  1.0000
  H   H93       1.0  0.56094  0.15835  0.18699  1.0000
  N   N37       1.0  0.63298  0.14549  0.37709  1.0000
  C   C113      1.0  0.62270  0.64668  0.36676  1.0000
  C   C114      1.0  0.63874  0.64864  0.29184  1.0000
  C   C115      1.0  0.65275  0.63568  0.29578  1.0000
  H   H94       1.0  0.66368  0.63653  0.24092  1.0000
  C   C116      1.0  0.64018  0.66318  0.20765  1.0000
  H   H95       1.0  0.64798  0.68318  0.22474  1.0000
  H   H96       1.0  0.62124  0.65584  0.17854  1.0000
  H   H97       1.0  0.65223  0.66199  0.15454  1.0000
  N   N38       1.0  0.60701  0.65636  0.36302  1.0000
  C   C117      1.0  0.64854  0.05313  0.36673  1.0000
  C   C118      1.0  0.65048  0.03905  0.29181  1.0000
  C   C119      1.0  0.63752  0.01208  0.29576  1.0000
  H   H98       1.0  0.63836  0.00200  0.24088  1.0000
  C   C120      1.0  0.66502  0.05214  0.20760  1.0000
  H   H99       1.0  0.68502  0.06434  0.22467  1.0000
  H   H100      1.0  0.65768  0.06374  0.17851  1.0000
  H   H101      1.0  0.66382  0.03890  0.15449  1.0000
  N   N39       1.0  0.65822  0.07851  0.36300  1.0000
  C   C121      1.0  0.57939  0.71708  0.35424  1.0000
  N   N40       1.0  0.59764  0.71023  0.35658  1.0000
  C   C122      1.0  0.59201  0.68548  0.36034  1.0000
  N   N41       1.0  0.56701  0.66721  0.36084  1.0000
  C   C123      1.0  0.54809  0.67305  0.35816  1.0000
  N   N42       1.0  0.55471  0.69802  0.35422  1.0000
  C   C124      1.0  0.52270  0.65439  0.35422  1.0000
  C   C125      1.0  0.58602  0.74256  0.34712  1.0000
  C   C126      1.0  0.61131  0.67941  0.36312  1.0000
  H   H102      1.0  0.62917  0.69354  0.36709  1.0000
  H   H103      1.0  0.60339  0.75487  0.32520  1.0000
  H   H104      1.0  0.51017  0.65929  0.33330  1.0000
  C   C127      1.0  0.51032  0.38164  0.35824  1.0000
  N   N43       1.0  0.50369  0.35666  0.35433  1.0000
  C   C128      1.0  0.53571  0.40029  0.35424  1.0000
  H   H105      1.0  0.54824  0.39539  0.33329  1.0000
  C   C129      1.0  0.71892  0.16684  0.35417  1.0000
  N   N44       1.0  0.71208  0.14174  0.35651  1.0000
  C   C130      1.0  0.68733  0.12262  0.36030  1.0000
  N   N45       1.0  0.66906  0.12936  0.36083  1.0000
  C   C131      1.0  0.67489  0.15411  0.35816  1.0000
  N   N46       1.0  0.69987  0.17246  0.35418  1.0000
  C   C132      1.0  0.65622  0.16083  0.35420  1.0000
  C   C133      1.0  0.74441  0.18569  0.34703  1.0000
  C   C134      1.0  0.68127  0.09726  0.36306  1.0000
  H   H106      1.0  0.69539  0.09352  0.36700  1.0000
  H   H107      1.0  0.75671  0.18061  0.32505  1.0000
  H   H108      1.0  0.66112  0.17826  0.33318  1.0000
  C   C135      1.0  0.51022  0.15673  0.36846  1.0000
  N   N47       1.0  0.50368  0.17518  0.36848  1.0000
  C   C136      1.0  0.53551  0.16317  0.37569  1.0000
  H   H109      1.0  0.54847  0.18119  0.38792  1.0000
  C   C137      1.0  0.72156  0.57744  0.36159  1.0000
  N   N48       1.0  0.71463  0.59560  0.35512  1.0000
  C   C138      1.0  0.68984  0.58988  0.35563  1.0000
  N   N49       1.0  0.67168  0.56497  0.36215  1.0000
  C   C139      1.0  0.67754  0.54613  0.36854  1.0000
  N   N50       1.0  0.70256  0.55280  0.36844  1.0000
  C   C140      1.0  0.65875  0.52084  0.37562  1.0000
  C   C141      1.0  0.74719  0.58427  0.36361  1.0000
  C   C142      1.0  0.68328  0.60870  0.34658  1.0000
  H   H110      1.0  0.69590  0.62523  0.31911  1.0000
  H   H111      1.0  0.76003  0.60256  0.37035  1.0000
  H   H112      1.0  0.66380  0.50788  0.38775  1.0000
  C   C143      1.0  0.57925  0.88503  0.36154  1.0000
  N   N51       1.0  0.59741  0.91012  0.35510  1.0000
  C   C144      1.0  0.59169  0.92919  0.35559  1.0000
  N   N52       1.0  0.56676  0.92243  0.36209  1.0000
  C   C145      1.0  0.54793  0.89773  0.36845  1.0000
  N   N53       1.0  0.55460  0.87938  0.36836  1.0000
  C   C146      1.0  0.52263  0.89123  0.37550  1.0000
  C   C147      1.0  0.58610  0.86624  0.36357  1.0000
  C   C148      1.0  0.61052  0.95456  0.34655  1.0000
  H   H113      1.0  0.62704  0.95847  0.31909  1.0000
  H   H114      1.0  0.60440  0.87170  0.37029  1.0000
  H   H115      1.0  0.50967  0.87320  0.38746  1.0000
  C   C149      1.0  0.57313  0.77416  0.36703  1.0000
  C   C150      1.0  0.55929  0.77966  0.43166  1.0000
  C   C151      1.0  0.55889  0.80281  0.43039  1.0000
  H   H116      1.0  0.54910  0.76630  0.48069  1.0000
  C   C152      1.0  0.54394  0.80727  0.50153  1.0000
  H   H117      1.0  0.53466  0.79159  0.55025  1.0000
  H   H118      1.0  0.52924  0.80980  0.46855  1.0000
  H   H119      1.0  0.55646  0.82438  0.54050  1.0000
  N   N54       1.0  0.57096  0.75097  0.36913  1.0000
  C   C153      1.0  0.76393  0.54199  0.50131  1.0000
  H   H120      1.0  0.77030  0.53267  0.54995  1.0000
  H   H121      1.0  0.74669  0.52732  0.46823  1.0000
  H   H122      1.0  0.75934  0.55450  0.54037  1.0000
  C   C154      1.0  0.49908  0.27502  0.43195  1.0000
  C   C155      1.0  0.49949  0.25189  0.43062  1.0000
  H   H123      1.0  0.50923  0.28836  0.48108  1.0000
  C   C156      1.0  0.51440  0.24739  0.50187  1.0000
  H   H124      1.0  0.52364  0.26305  0.55072  1.0000
  H   H125      1.0  0.52913  0.24489  0.46901  1.0000
  H   H126      1.0  0.50186  0.23025  0.54067  1.0000
  H   H127      1.0  0.76818  0.24635  0.48063  1.0000
  N   N55       1.0  0.75284  0.20915  0.36908  1.0000
  H   H128      1.0  0.49800  0.59586  0.49725  1.0000
  C   C157      1.0  0.50520  0.93117  0.52311  1.0000
  H   H129      1.0  0.52242  0.92987  0.51971  1.0000
  H   H130      1.0  0.51084  0.95126  0.52298  1.0000
  N   N56       1.0  0.51555  0.90789  0.36797  1.0000
  C   C158      1.0  0.61430  0.49071  0.37298  1.0000
  C   C159      1.0  0.59668  0.48551  0.44571  1.0000
  C   C160      1.0  0.57324  0.46237  0.44567  1.0000
  H   H131      1.0  0.56040  0.45880  0.49728  1.0000
  C   C161      1.0  0.60135  0.50341  0.52295  1.0000
  H   H132      1.0  0.61984  0.52067  0.51949  1.0000
  H   H133      1.0  0.60040  0.49409  0.58820  1.0000
  H   H134      1.0  0.58684  0.50897  0.52280  1.0000
  N   N57       1.0  0.63502  0.51378  0.36787  1.0000
  C   C162      1.0  0.56575  0.14899  0.37311  1.0000
  C   C163      1.0  0.57097  0.13656  0.44578  1.0000
  C   C164      1.0  0.59413  0.13629  0.44572  1.0000
  H   H135      1.0  0.59769  0.12701  0.49730  1.0000
  C   C165      1.0  0.55309  0.12334  0.52306  1.0000
  H   H136      1.0  0.53584  0.12457  0.51970  1.0000
  H   H137      1.0  0.56242  0.13169  0.58829  1.0000
  H   H138      1.0  0.54752  0.10327  0.52284  1.0000
  N   N58       1.0  0.54262  0.14655  0.36789  1.0000
  C   C166      1.0  0.65095  0.62028  0.37135  1.0000
  C   C167      1.0  0.63459  0.61810  0.44381  1.0000
  C   C168      1.0  0.62060  0.63104  0.44299  1.0000
  H   H139      1.0  0.63261  0.60650  0.49802  1.0000
  C   C169      1.0  0.60363  0.62785  0.52181  1.0000
  H   H140      1.0  0.60412  0.61558  0.57559  1.0000
  H   H141      1.0  0.58406  0.61951  0.49790  1.0000
  H   H142      1.0  0.60941  0.64633  0.55254  1.0000
  N   N59       1.0  0.66169  0.60559  0.37366  1.0000
  C   C170      1.0  0.62212  0.99848  0.37134  1.0000
  C   C171      1.0  0.61995  0.01266  0.44381  1.0000
  C   C172      1.0  0.63290  0.03960  0.44299  1.0000
  H   H143      1.0  0.60836  0.00305  0.49803  1.0000
  C   C173      1.0  0.62972  0.05337  0.52181  1.0000
  H   H144      1.0  0.61745  0.04062  0.57561  1.0000
  H   H145      1.0  0.62138  0.06461  0.49792  1.0000
  H   H146      1.0  0.64820  0.06607  0.55253  1.0000
  N   N60       1.0  0.60741  0.97305  0.37364  1.0000
  C   C174      1.0  0.77847  0.57065  0.36132  1.0000
  C   C175      1.0  0.79760  0.58418  0.29364  1.0000
  C   C176      1.0  0.82117  0.58458  0.29862  1.0000
  H   H147      1.0  0.83455  0.59385  0.24873  1.0000
  C   C177      1.0  0.79395  0.59725  0.21359  1.0000
  H   H148      1.0  0.77490  0.59455  0.20905  1.0000
  H   H149      1.0  0.79742  0.58999  0.14983  1.0000
  H   H150      1.0  0.80737  0.61759  0.21788  1.0000
  C   C178      1.0  0.82324  0.27797  0.36133  1.0000
  C   C179      1.0  0.81762  0.25886  0.29354  1.0000
  C   C180      1.0  0.79447  0.23528  0.29856  1.0000
  H   H151      1.0  0.79034  0.22193  0.24854  1.0000
  C   C181      1.0  0.83432  0.26255  0.21341  1.0000
  H   H152      1.0  0.85067  0.28160  0.20890  1.0000
  H   H153      1.0  0.82358  0.25909  0.14970  1.0000
  H   H154      1.0  0.84125  0.24913  0.21755  1.0000
  N   N61       1.0  0.84410  0.30140  0.35893  1.0000
  C   C182      1.0  0.90823  0.48966  0.37613  1.0000
  C   C183      1.0  0.89615  0.47211  0.30410  1.0000
  C   C184      1.0  0.89573  0.44859  0.30096  1.0000
  H   H155      1.0  0.88844  0.47708  0.25115  1.0000
  C   C185      1.0  0.88404  0.43158  0.22037  1.0000
  H   H156      1.0  0.87704  0.43964  0.16887  1.0000
  H   H157      1.0  0.86801  0.41356  0.24281  1.0000
  H   H158      1.0  0.89802  0.42798  0.18711  1.0000
  N   N62       1.0  0.91095  0.51291  0.37709  1.0000
  C   C186      1.0  0.88960  0.57747  0.35423  1.0000
  N   N63       1.0  0.91470  0.59573  0.35655  1.0000
  C   C187      1.0  0.93381  0.59009  0.36033  1.0000
  N   N64       1.0  0.92707  0.56508  0.36085  1.0000
  C   C188      1.0  0.90232  0.54617  0.35818  1.0000
  N   N65       1.0  0.88397  0.55280  0.35424  1.0000
  C   C189      1.0  0.89559  0.52078  0.35425  1.0000
  C   C190      1.0  0.87074  0.58411  0.34708  1.0000
  C   C191      1.0  0.95918  0.60938  0.36308  1.0000
  H   H159      1.0  0.96292  0.62725  0.36700  1.0000
  H   H160      1.0  0.87581  0.60148  0.32511  1.0000
  H   H161      1.0  0.87816  0.50825  0.33332  1.0000
  C   C192      1.0  0.88691  0.33491  0.36158  1.0000
  N   N66       1.0  0.91201  0.34188  0.35514  1.0000
  C   C193      1.0  0.93106  0.36667  0.35572  1.0000
  N   N67       1.0  0.92427  0.38482  0.36229  1.0000
  C   C194      1.0  0.89956  0.37892  0.36867  1.0000
  N   N68       1.0  0.88123  0.35389  0.36849  1.0000
  C   C195      1.0  0.89303  0.39768  0.37577  1.0000
  C   C196      1.0  0.86813  0.30928  0.36354  1.0000
  C   C197      1.0  0.95644  0.37327  0.34664  1.0000
  H   H162      1.0  0.96037  0.36068  0.31907  1.0000
  H   H163      1.0  0.87359  0.29644  0.37019  1.0000
  H   H164      1.0  0.87500  0.39260  0.38779  1.0000
  C   C198      1.0  0.82624  0.57119  0.36690  1.0000
  C   C199      1.0  0.80689  0.55734  0.43151  1.0000
  C   C200      1.0  0.78336  0.55697  0.43025  1.0000
  H   H165      1.0  0.81004  0.54713  0.48047  1.0000
  N   N69       1.0  0.84728  0.56905  0.36905  1.0000
  C   C201      1.0  0.77603  0.23016  0.36698  1.0000
  C   C202      1.0  0.78153  0.24951  0.43162  1.0000
  C   C203      1.0  0.80468  0.27305  0.43036  1.0000
  C   C204      1.0  0.80914  0.29247  0.50151  1.0000
  H   H166      1.0  0.79346  0.28607  0.55021  1.0000
  H   H167      1.0  0.81168  0.30970  0.46852  1.0000
  H   H168      1.0  0.82625  0.29706  0.54048  1.0000
  C   C205      1.0  0.90729  0.44212  0.37327  1.0000
  C   C206      1.0  0.91977  0.45977  0.44591  1.0000
  C   C207      1.0  0.92010  0.48323  0.44580  1.0000
  H   H169      1.0  0.92940  0.49607  0.49735  1.0000
  C   C208      1.0  0.93299  0.45510  0.52315  1.0000
  H   H170      1.0  0.93172  0.43659  0.51979  1.0000
  H   H171      1.0  0.92466  0.45610  0.58841  1.0000
  H   H172      1.0  0.95306  0.46958  0.52290  1.0000
  N   N70       1.0  0.90968  0.42142  0.36815  1.0000
  C   C209      1.0  0.01394  0.40390  0.29576  1.0000
  H   H173      1.0  0.00386  0.39305  0.24077  1.0000
  C   C210      1.0  0.00330  0.62076  0.36672  1.0000
  C   C211      1.0  0.01738  0.63678  0.29179  1.0000
  C   C212      1.0  0.00429  0.63824  0.20760  1.0000
  H   H174      1.0  0.99210  0.64605  0.22470  1.0000
  H   H175      1.0  0.99267  0.61930  0.17851  1.0000
  H   H176      1.0  0.01753  0.65028  0.15448  1.0000
  N   N71       1.0  0.97792  0.60507  0.36302  1.0000
  C   C213      1.0  0.00034  0.40562  0.37151  1.0000
  C   C214      1.0  0.01453  0.42188  0.44417  1.0000
  H   H177      1.0  0.00491  0.42379  0.49855  1.0000
  N   N72       1.0  0.97491  0.39486  0.37384  1.0000
  C   C215      1.0  0.01684  0.61865  0.44298  1.0000
  C   C216      1.0  0.00306  0.60171  0.52184  1.0000
  H   H178      1.0  0.01582  0.60220  0.57563  1.0000
  H   H179      1.0  0.99182  0.58214  0.49799  1.0000
  H   H180      1.0  0.99037  0.60751  0.55255  1.0000
