data_image0
_chemical_formula_structural       CHC2N2CH2C4H2C2NC6NC20H13N4C3NC3NC5NC5NC20H18N4C3NC3NC5NC5NC20H18N4C6H4CHC6H4CHC6H4CHC6H4CHC6H4CHC6H4CHC8H8C8H8C8H8C4H2C2H2CHC4H2C2H2CHC4H2C2H2CHC4H2C2H2CHC4H2C2H2CHC4H2C2H2CH
_chemical_formula_sum              "C216 H138 N24"
_cell_length_a       58.5946
_cell_length_b       58.5946
_cell_length_c       14.9707
_cell_angle_alpha    90.0846
_cell_angle_beta     89.9154
_cell_angle_gamma    120

_space_group_name_H-M_alt    "P 1"
_space_group_IT_number       1

loop_
  _space_group_symop_operation_xyz
  'x, y, z'

loop_
  _atom_site_type_symbol
  _atom_site_label
  _atom_site_symmetry_multiplicity
  _atom_site_fract_x
  _atom_site_fract_y
  _atom_site_fract_z
  _atom_site_occupancy
  C   C1        1.0  0.00451  0.58938  0.31622  1.0000
  H   H1        1.0  0.00241  0.62540  0.31859  1.0000
  C   C2        1.0  0.00272  0.49009  0.31517  1.0000
  C   C3        1.0  0.01354  0.61643  0.31735  1.0000
  N   N1        1.0  0.02651  0.58726  0.31476  1.0000
  N   N2        1.0  0.02518  0.51384  0.31475  1.0000
  C   C4        1.0  0.01094  0.47143  0.31652  1.0000
  H   H2        1.0  0.02621  0.57073  0.31360  1.0000
  H   H3        1.0  0.02548  0.53037  0.31348  1.0000
  C   C5        1.0  0.04075  0.62967  0.31638  1.0000
  C   C6        1.0  0.04897  0.61102  0.31511  1.0000
  C   C7        1.0  0.04717  0.51172  0.31630  1.0000
  C   C8        1.0  0.03815  0.48467  0.31754  1.0000
  H   H4        1.0  0.04927  0.47570  0.31892  1.0000
  H   H5        1.0  0.05239  0.64973  0.31693  1.0000
  C   C9        1.0  0.07567  0.61696  0.31442  1.0000
  C   C10       1.0  0.08392  0.59793  0.31437  1.0000
  N   N3        1.0  0.06867  0.57139  0.31504  1.0000
  C   C11       1.0  0.08322  0.55935  0.31565  1.0000
  C   C12       1.0  0.10955  0.57950  0.31517  1.0000
  C   C13       1.0  0.10998  0.60325  0.31443  1.0000
  C   C14       1.0  0.07412  0.53188  0.31680  1.0000
  C   C15       1.0  0.97602  0.48414  0.31446  1.0000
  C   C16       1.0  0.96776  0.50317  0.31432  1.0000
  N   N4        1.0  0.98301  0.52970  0.31498  1.0000
  C   C17       1.0  0.96847  0.54175  0.31558  1.0000
  C   C18       1.0  0.94214  0.52160  0.31511  1.0000
  C   C19       1.0  0.94171  0.49784  0.31439  1.0000
  C   C20       1.0  0.97756  0.56922  0.31674  1.0000
  C   C21       1.0  0.95806  0.57694  0.31993  1.0000
  C   C22       1.0  0.91585  0.58779  0.32567  1.0000
  C   C23       1.0  0.92725  0.58697  0.24343  1.0000
  C   C24       1.0  0.94817  0.58167  0.24038  1.0000
  C   C25       1.0  0.95592  0.45711  0.31463  1.0000
  C   C26       1.0  0.91365  0.40407  0.31558  1.0000
  C   C27       1.0  0.92329  0.41793  0.23421  1.0000
  C   C28       1.0  0.94424  0.44414  0.23369  1.0000
  C   C29       1.0  0.09362  0.52415  0.32000  1.0000
  C   C30       1.0  0.10344  0.51923  0.24048  1.0000
  C   C31       1.0  0.12428  0.51381  0.24351  1.0000
  C   C32       1.0  0.13562  0.51301  0.32574  1.0000
  C   C33       1.0  0.09578  0.64398  0.31453  1.0000
  C   C34       1.0  0.10752  0.65689  0.23356  1.0000
  C   C35       1.0  0.13818  0.69696  0.31540  1.0000
  C   C36       1.0  0.12853  0.68307  0.23405  1.0000
  H   H6        1.0  0.13715  0.69160  0.17461  1.0000
  H   H7        1.0  0.10126  0.64712  0.17395  1.0000
  H   H8        1.0  0.12675  0.62130  0.31437  1.0000
  H   H9        1.0  0.12595  0.57758  0.31538  1.0000
  H   H10       1.0  0.09599  0.52028  0.17978  1.0000
  H   H11       1.0  0.13146  0.51092  0.18479  1.0000
  H   H12       1.0  0.99930  0.45138  0.31725  1.0000
  H   H13       1.0  0.92573  0.52351  0.31538  1.0000
  H   H14       1.0  0.92494  0.47979  0.31439  1.0000
  H   H15       1.0  0.95052  0.45386  0.17405  1.0000
  H   H16       1.0  0.91474  0.40932  0.17476  1.0000
  H   H17       1.0  0.95563  0.58058  0.17968  1.0000
  H   H18       1.0  0.92000  0.58971  0.18469  1.0000
  N   N5        1.0  0.89305  0.37977  0.32121  1.0000
  N   N6        1.0  0.15645  0.50962  0.32272  1.0000
  N   N7        1.0  0.15891  0.72119  0.32105  1.0000
  N   N8        1.0  0.89492  0.59099  0.32267  1.0000
  C   C37       1.0  0.44602  0.48489  0.31538  1.0000
  C   C38       1.0  0.45927  0.47092  0.31634  1.0000
  C   C39       1.0  0.48631  0.48894  0.31516  1.0000
  N   N9        1.0  0.48843  0.51306  0.31367  1.0000
  C   C40       1.0  0.46467  0.51176  0.31407  1.0000
  C   C41       1.0  0.45872  0.53251  0.31336  1.0000
  C   C42       1.0  0.47775  0.55980  0.31331  1.0000
  N   N10       1.0  0.50429  0.57109  0.31403  1.0000
  C   C43       1.0  0.51633  0.59768  0.31463  1.0000
  C   C44       1.0  0.49617  0.60385  0.31411  1.0000
  C   C45       1.0  0.47242  0.58053  0.31338  1.0000
  C   C46       1.0  0.54380  0.61606  0.31582  1.0000
  C   C47       1.0  0.56396  0.60928  0.31531  1.0000
  N   N11       1.0  0.56184  0.58515  0.31372  1.0000
  C   C48       1.0  0.58560  0.58646  0.31413  1.0000
  C   C49       1.0  0.60425  0.61333  0.31556  1.0000
  C   C50       1.0  0.59100  0.62730  0.31659  1.0000
  C   C51       1.0  0.59155  0.56571  0.31334  1.0000
  C   C52       1.0  0.57252  0.53842  0.31318  1.0000
  N   N12       1.0  0.54599  0.52713  0.31387  1.0000
  C   C53       1.0  0.53395  0.50054  0.31445  1.0000
  C   C54       1.0  0.55410  0.49437  0.31393  1.0000
  C   C55       1.0  0.57786  0.51769  0.31320  1.0000
  C   C56       1.0  0.50647  0.48216  0.31561  1.0000
  C   C57       1.0  0.49876  0.45494  0.31884  1.0000
  C   C58       1.0  0.48791  0.40189  0.32463  1.0000
  C   C59       1.0  0.48871  0.41403  0.24238  1.0000
  C   C60       1.0  0.49400  0.44024  0.23931  1.0000
  C   C61       1.0  0.61858  0.57263  0.31353  1.0000
  C   C62       1.0  0.67163  0.58345  0.31455  1.0000
  C   C63       1.0  0.65778  0.57915  0.23317  1.0000
  C   C64       1.0  0.63156  0.57388  0.23261  1.0000
  C   C65       1.0  0.55152  0.64329  0.31902  1.0000
  C   C66       1.0  0.55646  0.65797  0.23949  1.0000
  C   C67       1.0  0.56188  0.68423  0.24252  1.0000
  C   C68       1.0  0.56264  0.69642  0.32473  1.0000
  C   C69       1.0  0.43170  0.52559  0.31350  1.0000
  C   C70       1.0  0.41878  0.52437  0.23255  1.0000
  C   C71       1.0  0.37872  0.51504  0.31445  1.0000
  C   C72       1.0  0.39262  0.51923  0.23308  1.0000
  H   H19       1.0  0.38407  0.51926  0.17364  1.0000
  H   H20       1.0  0.42855  0.52784  0.17292  1.0000
  H   H21       1.0  0.42596  0.47647  0.31597  1.0000
  H   H22       1.0  0.45029  0.45082  0.31761  1.0000
  H   H23       1.0  0.50496  0.52929  0.31243  1.0000
  H   H24       1.0  0.54531  0.56893  0.31238  1.0000
  H   H25       1.0  0.45437  0.57924  0.31324  1.0000
  H   H26       1.0  0.49809  0.62217  0.31431  1.0000
  H   H27       1.0  0.55542  0.64943  0.17881  1.0000
  H   H28       1.0  0.56478  0.69426  0.18380  1.0000
  H   H29       1.0  0.59998  0.64740  0.31799  1.0000
  H   H30       1.0  0.62430  0.62175  0.31624  1.0000
  H   H31       1.0  0.55219  0.47605  0.31413  1.0000
  H   H32       1.0  0.59591  0.51898  0.31314  1.0000
  H   H33       1.0  0.62184  0.57038  0.17296  1.0000
  H   H34       1.0  0.66639  0.57917  0.17373  1.0000
  H   H35       1.0  0.49509  0.44876  0.17860  1.0000
  H   H36       1.0  0.48594  0.40399  0.18366  1.0000
  N   N13       1.0  0.69592  0.58713  0.32025  1.0000
  N   N14       1.0  0.56604  0.72064  0.32173  1.0000
  N   N15       1.0  0.35450  0.51154  0.32013  1.0000
  N   N16       1.0  0.48469  0.37775  0.32165  1.0000
  C   C73       1.0  0.59080  0.03495  0.31459  1.0000
  C   C74       1.0  0.60476  0.06216  0.31568  1.0000
  C   C75       1.0  0.58674  0.07119  0.31447  1.0000
  N   N17       1.0  0.56262  0.04919  0.31286  1.0000
  C   C76       1.0  0.56392  0.02673  0.31321  1.0000
  C   C77       1.0  0.54318  0.00003  0.31242  1.0000
  C   C78       1.0  0.51588  0.99177  0.31239  1.0000
  N   N18       1.0  0.50460  0.00701  0.31316  1.0000
  C   C79       1.0  0.47800  0.99246  0.31386  1.0000
  C   C80       1.0  0.47183  0.96614  0.31335  1.0000
  C   C81       1.0  0.49516  0.96571  0.31250  1.0000
  C   C82       1.0  0.45962  0.00156  0.31513  1.0000
  C   C83       1.0  0.46641  0.02850  0.31458  1.0000
  N   N19       1.0  0.49053  0.05050  0.31292  1.0000
  C   C84       1.0  0.48923  0.07296  0.31332  1.0000
  C   C85       1.0  0.46235  0.06474  0.31477  1.0000
  C   C86       1.0  0.44839  0.03753  0.31587  1.0000
  C   C87       1.0  0.50997  0.09966  0.31252  1.0000
  C   C88       1.0  0.53727  0.10792  0.31245  1.0000
  N   N20       1.0  0.54855  0.09267  0.31316  1.0000
  C   C89       1.0  0.57514  0.10722  0.31381  1.0000
  C   C90       1.0  0.58131  0.13355  0.31329  1.0000
  C   C91       1.0  0.55799  0.13398  0.31250  1.0000
  C   C92       1.0  0.59352  0.09813  0.31503  1.0000
  C   C93       1.0  0.62074  0.11764  0.31847  1.0000
  C   C94       1.0  0.67377  0.15985  0.32474  1.0000
  C   C95       1.0  0.66170  0.14850  0.24238  1.0000
  C   C96       1.0  0.63549  0.12756  0.23907  1.0000
  C   C97       1.0  0.50305  0.11976  0.31269  1.0000
  C   C98       1.0  0.49225  0.16201  0.31365  1.0000
  C   C99       1.0  0.49653  0.15237  0.23227  1.0000
  C   C100      1.0  0.50180  0.13143  0.23175  1.0000
  C   C101      1.0  0.43240  0.98206  0.31857  1.0000
  C   C102      1.0  0.41766  0.97219  0.23919  1.0000
  C   C103      1.0  0.39140  0.95136  0.24249  1.0000
  C   C104      1.0  0.37927  0.94004  0.32484  1.0000
  C   C105      1.0  0.55009  0.97992  0.31254  1.0000
  C   C106      1.0  0.55130  0.96816  0.23159  1.0000
  C   C107      1.0  0.56064  0.93750  0.31346  1.0000
  C   C108      1.0  0.55645  0.94714  0.23211  1.0000
  H   H37       1.0  0.55642  0.93852  0.17266  1.0000
  H   H38       1.0  0.54784  0.97442  0.17197  1.0000
  H   H39       1.0  0.59922  0.02331  0.31517  1.0000
  H   H40       1.0  0.62486  0.07329  0.31702  1.0000
  H   H41       1.0  0.54639  0.04948  0.31158  1.0000
  H   H42       1.0  0.50676  0.05020  0.31158  1.0000
  H   H43       1.0  0.49644  0.94895  0.31240  1.0000
  H   H44       1.0  0.45351  0.94973  0.31362  1.0000
  H   H45       1.0  0.42614  0.97963  0.17842  1.0000
  H   H46       1.0  0.38132  0.94414  0.18387  1.0000
  H   H47       1.0  0.42829  0.02640  0.31731  1.0000
  H   H48       1.0  0.45394  0.07637  0.31546  1.0000
  H   H49       1.0  0.59963  0.14996  0.31351  1.0000
  H   H50       1.0  0.55670  0.15074  0.31239  1.0000
  H   H51       1.0  0.50531  0.12516  0.17211  1.0000
  H   H52       1.0  0.49653  0.16093  0.17283  1.0000
  H   H53       1.0  0.62703  0.12012  0.17829  1.0000
  H   H54       1.0  0.67179  0.15575  0.18375  1.0000
  N   N21       1.0  0.48856  0.18262  0.31932  1.0000
  N   N22       1.0  0.35506  0.91921  0.32208  1.0000
  N   N23       1.0  0.56415  0.91678  0.31914  1.0000
  N   N24       1.0  0.69793  0.18078  0.32201  1.0000
  C   C109      1.0  0.20407  0.50978  0.28018  1.0000
  C   C110      1.0  0.22737  0.50902  0.26466  1.0000
  C   C111      1.0  0.26235  0.50015  0.31622  1.0000
  C   C112      1.0  0.26708  0.49097  0.23467  1.0000
  C   C113      1.0  0.29111  0.49171  0.21867  1.0000
  C   C114      1.0  0.31143  0.50171  0.28341  1.0000
  H   H55       1.0  0.25294  0.48347  0.18599  1.0000
  H   H56       1.0  0.29366  0.48501  0.15833  1.0000
  H   H57       1.0  0.19728  0.51681  0.23045  1.0000
  H   H58       1.0  0.23676  0.51576  0.20467  1.0000
  C   C115      1.0  0.33539  0.50311  0.26384  1.0000
  H   H59       1.0  0.33788  0.49751  0.20359  1.0000
  C   C116      1.0  0.56590  0.76808  0.27918  1.0000
  C   C117      1.0  0.56667  0.79214  0.26366  1.0000
  C   C118      1.0  0.57554  0.83602  0.31523  1.0000
  C   C119      1.0  0.58472  0.84987  0.23369  1.0000
  C   C120      1.0  0.58399  0.87315  0.21768  1.0000
  C   C121      1.0  0.57397  0.88352  0.28242  1.0000
  H   H60       1.0  0.59223  0.84321  0.18501  1.0000
  H   H61       1.0  0.59069  0.88235  0.15735  1.0000
  H   H62       1.0  0.55887  0.75423  0.22944  1.0000
  H   H63       1.0  0.55993  0.79474  0.20366  1.0000
  C   C122      1.0  0.57257  0.90606  0.26285  1.0000
  H   H64       1.0  0.57817  0.91411  0.20259  1.0000
  C   C123      1.0  0.30760  0.87157  0.28001  1.0000
  C   C124      1.0  0.28352  0.84827  0.26470  1.0000
  C   C125      1.0  0.23966  0.81333  0.31663  1.0000
  C   C126      1.0  0.22576  0.80858  0.23519  1.0000
  C   C127      1.0  0.20246  0.78456  0.21937  1.0000
  C   C128      1.0  0.19213  0.76426  0.28419  1.0000
  H   H65       1.0  0.23241  0.82271  0.18646  1.0000
  H   H66       1.0  0.19322  0.78200  0.15910  1.0000
  H   H67       1.0  0.32141  0.87833  0.23016  1.0000
  H   H68       1.0  0.28087  0.83885  0.20473  1.0000
  C   C129      1.0  0.16956  0.74031  0.26479  1.0000
  H   H69       1.0  0.16144  0.73783  0.20467  1.0000
  C   C130      1.0  0.84711  0.59038  0.28014  1.0000
  C   C131      1.0  0.82368  0.59089  0.26465  1.0000
  C   C132      1.0  0.78842  0.59938  0.31625  1.0000
  C   C133      1.0  0.78361  0.60844  0.23472  1.0000
  C   C134      1.0  0.75948  0.60746  0.21876  1.0000
  C   C135      1.0  0.73913  0.59733  0.28352  1.0000
  H   H70       1.0  0.79777  0.61603  0.18604  1.0000
  H   H71       1.0  0.75689  0.61409  0.15845  1.0000
  H   H72       1.0  0.85401  0.58342  0.23040  1.0000
  H   H73       1.0  0.81433  0.58405  0.20467  1.0000
  C   C136      1.0  0.71509  0.59572  0.26401  1.0000
  H   H74       1.0  0.71259  0.60133  0.20388  1.0000
  C   C137      1.0  0.48531  0.33052  0.27914  1.0000
  C   C138      1.0  0.48479  0.30656  0.26366  1.0000
  C   C139      1.0  0.47629  0.26284  0.31528  1.0000
  C   C140      1.0  0.46724  0.24892  0.23376  1.0000
  C   C141      1.0  0.46822  0.22576  0.21780  1.0000
  C   C142      1.0  0.47836  0.21559  0.28256  1.0000
  H   H75       1.0  0.45964  0.25545  0.18507  1.0000
  H   H76       1.0  0.46160  0.21650  0.15749  1.0000
  H   H77       1.0  0.49227  0.34434  0.22941  1.0000
  H   H78       1.0  0.49163  0.30401  0.20368  1.0000
  C   C143      1.0  0.47997  0.19315  0.26305  1.0000
  H   H79       1.0  0.47439  0.18501  0.20289  1.0000
  C   C144      1.0  0.74519  0.22861  0.27997  1.0000
  C   C145      1.0  0.76916  0.25204  0.26470  1.0000
  C   C146      1.0  0.81285  0.28725  0.31668  1.0000
  C   C147      1.0  0.82682  0.29209  0.23527  1.0000
  C   C148      1.0  0.85001  0.31622  0.21949  1.0000
  C   C149      1.0  0.86014  0.33655  0.28433  1.0000
  H   H80       1.0  0.82033  0.27795  0.18653  1.0000
  H   H81       1.0  0.85931  0.31883  0.15924  1.0000
  H   H82       1.0  0.73140  0.22174  0.23012  1.0000
  H   H83       1.0  0.77176  0.26141  0.20476  1.0000
  C   C150      1.0  0.88259  0.36060  0.26497  1.0000
  H   H84       1.0  0.89079  0.36311  0.20491  1.0000
  C   C151      1.0  0.94684  0.57787  0.40246  1.0000
  C   C152      1.0  0.92594  0.58319  0.40526  1.0000
  C   C153      1.0  0.94632  0.44339  0.39600  1.0000
  C   C154      1.0  0.92534  0.41718  0.39628  1.0000
  C   C155      1.0  0.12563  0.51784  0.40530  1.0000
  C   C156      1.0  0.10482  0.52329  0.40251  1.0000
  C   C157      1.0  0.10538  0.65775  0.39587  1.0000
  C   C158      1.0  0.12643  0.68392  0.39612  1.0000
  H   H85       1.0  0.13332  0.69333  0.45602  1.0000
  H   H86       1.0  0.09748  0.64864  0.45546  1.0000
  H   H87       1.0  0.09841  0.52736  0.46083  1.0000
  H   H88       1.0  0.13391  0.51826  0.46576  1.0000
  H   H89       1.0  0.95419  0.45254  0.45556  1.0000
  H   H90       1.0  0.91847  0.40778  0.45619  1.0000
  H   H91       1.0  0.91761  0.58274  0.46572  1.0000
  H   H92       1.0  0.95326  0.57388  0.46079  1.0000
  C   C159      1.0  0.49784  0.44287  0.40138  1.0000
  C   C160      1.0  0.49255  0.41666  0.40420  1.0000
  C   C161      1.0  0.63229  0.57682  0.39492  1.0000
  C   C162      1.0  0.65850  0.58205  0.39523  1.0000
  C   C163      1.0  0.55781  0.68166  0.40430  1.0000
  C   C164      1.0  0.55237  0.65541  0.40152  1.0000
  C   C165      1.0  0.41794  0.52149  0.39486  1.0000
  C   C166      1.0  0.39177  0.51637  0.39514  1.0000
  H   H93       1.0  0.38236  0.51389  0.45505  1.0000
  H   H94       1.0  0.42705  0.52273  0.45443  1.0000
  H   H95       1.0  0.54826  0.64496  0.45983  1.0000
  H   H96       1.0  0.55735  0.68956  0.46473  1.0000
  H   H97       1.0  0.62313  0.57556  0.45447  1.0000
  H   H98       1.0  0.66789  0.58461  0.45515  1.0000
  H   H99       1.0  0.49296  0.40881  0.46467  1.0000
  H   H100      1.0  0.50185  0.45334  0.45969  1.0000
  C   C167      1.0  0.63275  0.12882  0.40112  1.0000
  C   C168      1.0  0.65896  0.14972  0.40419  1.0000
  C   C169      1.0  0.49887  0.12936  0.39406  1.0000
  C   C170      1.0  0.49362  0.15033  0.39434  1.0000
  C   C171      1.0  0.39409  0.95009  0.40426  1.0000
  C   C172      1.0  0.42035  0.97089  0.40120  1.0000
  C   C173      1.0  0.55421  0.97033  0.39389  1.0000
  C   C174      1.0  0.55932  0.94928  0.39416  1.0000
  H   H101      1.0  0.56180  0.94239  0.45407  1.0000
  H   H102      1.0  0.55296  0.97824  0.45346  1.0000
  H   H103      1.0  0.43084  0.97732  0.45941  1.0000
  H   H104      1.0  0.38626  0.94181  0.46478  1.0000
  H   H105      1.0  0.50010  0.12149  0.45363  1.0000
  H   H106      1.0  0.49106  0.15720  0.45425  1.0000
  H   H107      1.0  0.66675  0.15802  0.46473  1.0000
  H   H108      1.0  0.62224  0.12237  0.45934  1.0000
  C   C175      1.0  0.19063  0.50162  0.36299  1.0000
  C   C176      1.0  0.23826  0.50017  0.33130  1.0000
  C   C177      1.0  0.22475  0.49186  0.41380  1.0000
  C   C178      1.0  0.20140  0.49253  0.42927  1.0000
  H   H109      1.0  0.23171  0.48500  0.46353  1.0000
  H   H110      1.0  0.19242  0.48645  0.49025  1.0000
  C   C179      1.0  0.30660  0.51067  0.36541  1.0000
  C   C180      1.0  0.28251  0.50983  0.38152  1.0000
  H   H111      1.0  0.32074  0.51830  0.41408  1.0000
  H   H112      1.0  0.28018  0.51717  0.44076  1.0000
  C   C181      1.0  0.16806  0.50306  0.38175  1.0000
  H   H113      1.0  0.16080  0.49912  0.44346  1.0000
  C   C182      1.0  0.57405  0.76286  0.36199  1.0000
  C   C183      1.0  0.57551  0.81192  0.33030  1.0000
  C   C184      1.0  0.58382  0.80678  0.41281  1.0000
  C   C185      1.0  0.58314  0.78276  0.42828  1.0000
  H   H114      1.0  0.59067  0.82063  0.46255  1.0000
  H   H115      1.0  0.58921  0.77991  0.48927  1.0000
  C   C186      1.0  0.56501  0.86979  0.36441  1.0000
  C   C187      1.0  0.56585  0.84655  0.38052  1.0000
  H   H116      1.0  0.55737  0.87632  0.41307  1.0000
  H   H117      1.0  0.55850  0.83692  0.43975  1.0000
  C   C188      1.0  0.57260  0.73885  0.38076  1.0000
  H   H118      1.0  0.57652  0.73558  0.44248  1.0000
  C   C189      1.0  0.31288  0.88504  0.36276  1.0000
  C   C190      1.0  0.26379  0.83742  0.33151  1.0000
  C   C191      1.0  0.26899  0.85096  0.41396  1.0000
  C   C192      1.0  0.29302  0.87431  0.42922  1.0000
  H   H119      1.0  0.25517  0.84403  0.46381  1.0000
  H   H120      1.0  0.29592  0.88332  0.49017  1.0000
  C   C193      1.0  0.20591  0.76911  0.36608  1.0000
  C   C194      1.0  0.22917  0.79319  0.38201  1.0000
  H   H121      1.0  0.19939  0.75499  0.41480  1.0000
  H   H122      1.0  0.23883  0.79554  0.44117  1.0000
  C   C195      1.0  0.33690  0.90761  0.38130  1.0000
  H   H123      1.0  0.34023  0.91488  0.44300  1.0000
  C   C196      1.0  0.86050  0.59869  0.36291  1.0000
  C   C197      1.0  0.81263  0.59962  0.33129  1.0000
  C   C198      1.0  0.82609  0.60808  0.41377  1.0000
  C   C199      1.0  0.84956  0.60766  0.42920  1.0000
  H   H124      1.0  0.81901  0.61487  0.46350  1.0000
  H   H125      1.0  0.85850  0.61384  0.49017  1.0000
  C   C200      1.0  0.74403  0.58850  0.36548  1.0000
  C   C201      1.0  0.76822  0.58957  0.38155  1.0000
  H   H126      1.0  0.72988  0.58078  0.41417  1.0000
  H   H127      1.0  0.77061  0.58232  0.44078  1.0000
  C   C202      1.0  0.88319  0.59748  0.38166  1.0000
  H   H128      1.0  0.89042  0.60152  0.44336  1.0000
  C   C203      1.0  0.47700  0.33566  0.36193  1.0000
  C   C204      1.0  0.47606  0.28684  0.33032  1.0000
  C   C205      1.0  0.46760  0.29190  0.41279  1.0000
  C   C206      1.0  0.46802  0.31581  0.42822  1.0000
  H   H129      1.0  0.46082  0.27807  0.46254  1.0000
  H   H130      1.0  0.46185  0.31862  0.48919  1.0000
  C   C207      1.0  0.48719  0.22939  0.36452  1.0000
  C   C208      1.0  0.48611  0.25251  0.38059  1.0000
  H   H131      1.0  0.49490  0.22299  0.41321  1.0000
  H   H132      1.0  0.49336  0.26221  0.43981  1.0000
  C   C209      1.0  0.47822  0.35958  0.38067  1.0000
  H   H133      1.0  0.47421  0.36284  0.44238  1.0000
  C   C210      1.0  0.73998  0.21518  0.36269  1.0000
  C   C211      1.0  0.78884  0.26305  0.33152  1.0000
  C   C212      1.0  0.78371  0.24955  0.41393  1.0000
  C   C213      1.0  0.75979  0.22607  0.42915  1.0000
  H   H134      1.0  0.79750  0.25660  0.46379  1.0000
  H   H135      1.0  0.75693  0.21711  0.49008  1.0000
  C   C214      1.0  0.84628  0.33162  0.36619  1.0000
  C   C215      1.0  0.82315  0.30742  0.38208  1.0000
  H   H136      1.0  0.85266  0.34575  0.41493  1.0000
  H   H137      1.0  0.81341  0.30501  0.44123  1.0000
  C   C216      1.0  0.71605  0.19250  0.38121  1.0000
  H   H138      1.0  0.71273  0.18526  0.44290  1.0000
