data_image0
_chemical_formula_structural       C5H6C6H6C5H2C2H2NC4H2C2H2NC4H2C2H2NC12H6C6H3C9H3C12H6C6H3C9H3C6H4NC6H4NC6H4N
_chemical_formula_sum              "C102 H60 N6"
_cell_length_a       52.7252
_cell_length_b       52.7311
_cell_length_c       14.8189
_cell_angle_alpha    90
_cell_angle_beta     90
_cell_angle_gamma    119.995

_space_group_name_H-M_alt    "P 1"
_space_group_IT_number       1

loop_
  _space_group_symop_operation_xyz
  'x, y, z'

loop_
  _atom_site_type_symbol
  _atom_site_label
  _atom_site_symmetry_multiplicity
  _atom_site_fract_x
  _atom_site_fract_y
  _atom_site_fract_z
  _atom_site_occupancy
  C   C1        1.0  0.39363  0.59098  0.31634  1.0000
  C   C2        1.0  0.42409  0.80576  0.31497  1.0000
  C   C3        1.0  0.43745  0.83635  0.32628  1.0000
  C   C4        1.0  0.20953  0.62139  0.31483  1.0000
  C   C5        1.0  0.17894  0.60417  0.32614  1.0000
  H   H1        1.0  0.40274  0.55658  0.30546  1.0000
  H   H2        1.0  0.43553  0.79737  0.28312  1.0000
  H   H3        1.0  0.45833  0.84930  0.30283  1.0000
  H   H4        1.0  0.21792  0.64121  0.28292  1.0000
  H   H5        1.0  0.16599  0.61210  0.30267  1.0000
  H   H6        1.0  0.37356  0.57935  0.28593  1.0000
  C   C6        1.0  0.41088  0.57764  0.32746  1.0000
  C   C7        1.0  0.62602  0.42265  0.35315  1.0000
  C   C8        1.0  0.59256  0.20643  0.35136  1.0000
  C   C9        1.0  0.58048  0.17584  0.34543  1.0000
  C   C10       1.0  0.80883  0.38915  0.35127  1.0000
  C   C11       1.0  0.83943  0.40767  0.34529  1.0000
  H   H7        1.0  0.61683  0.45703  0.34537  1.0000
  H   H8        1.0  0.57874  0.21483  0.35271  1.0000
  H   H9        1.0  0.55820  0.16290  0.34199  1.0000
  H   H10       1.0  0.80044  0.36694  0.35261  1.0000
  H   H11       1.0  0.85237  0.39833  0.34191  1.0000
  H   H12       1.0  0.64821  0.43648  0.35638  1.0000
  C   C12       1.0  0.60750  0.43473  0.34698  1.0000
  C   C13       1.0  0.47073  0.54631  0.34050  1.0000
  C   C14       1.0  0.50217  0.51495  0.34392  1.0000
  C   C15       1.0  0.49469  0.52315  0.26134  1.0000
  C   C16       1.0  0.47908  0.53838  0.25967  1.0000
  H   H13       1.0  0.50095  0.51850  0.20113  1.0000
  H   H14       1.0  0.47421  0.54404  0.19871  1.0000
  C   C17       1.0  0.52645  0.46062  0.28571  1.0000
  C   C18       1.0  0.51124  0.47622  0.28389  1.0000
  H   H15       1.0  0.52111  0.44440  0.23922  1.0000
  H   H16       1.0  0.49484  0.47021  0.23749  1.0000
  N   N1        1.0  0.45586  0.56061  0.33454  1.0000
  C   C19       1.0  0.46897  0.92750  0.34092  1.0000
  C   C20       1.0  0.50031  0.99030  0.34435  1.0000
  C   C21       1.0  0.49206  0.97462  0.26177  1.0000
  C   C22       1.0  0.47682  0.94378  0.26010  1.0000
  H   H17       1.0  0.49666  0.98554  0.20158  1.0000
  H   H18       1.0  0.47111  0.93325  0.19914  1.0000
  C   C23       1.0  0.55459  0.06891  0.28617  1.0000
  C   C24       1.0  0.53901  0.03810  0.28432  1.0000
  H   H19       1.0  0.57079  0.07981  0.23966  1.0000
  H   H20       1.0  0.54501  0.02774  0.23783  1.0000
  N   N2        1.0  0.45465  0.89834  0.33494  1.0000
  C   C25       1.0  0.08778  0.54455  0.34093  1.0000
  C   C26       1.0  0.02498  0.51307  0.34432  1.0000
  C   C27       1.0  0.04066  0.52048  0.26176  1.0000
  C   C28       1.0  0.07150  0.53610  0.26011  1.0000
  H   H21       1.0  0.02975  0.51414  0.20156  1.0000
  H   H22       1.0  0.08204  0.54090  0.19916  1.0000
  C   C29       1.0  0.94635  0.48869  0.28608  1.0000
  C   C30       1.0  0.97717  0.50393  0.28422  1.0000
  H   H23       1.0  0.93545  0.49399  0.23956  1.0000
  H   H24       1.0  0.98753  0.52030  0.23775  1.0000
  N   N3        1.0  0.11695  0.55939  0.33497  1.0000
  C   C31       1.0  0.39563  0.78705  0.34872  1.0000
  C   C32       1.0  0.40367  0.61969  0.34829  1.0000
  C   C33       1.0  0.22825  0.61167  0.34875  1.0000
  C   C34       1.0  0.43847  0.59262  0.37100  1.0000
  C   C35       1.0  0.44836  0.62145  0.40220  1.0000
  C   C36       1.0  0.43127  0.63489  0.39084  1.0000
  C   C37       1.0  0.42274  0.84892  0.37167  1.0000
  C   C38       1.0  0.39414  0.82992  0.40463  1.0000
  C   C39       1.0  0.38069  0.79940  0.39320  1.0000
  C   C40       1.0  0.16638  0.57693  0.37173  1.0000
  C   C41       1.0  0.18538  0.56736  0.40483  1.0000
  C   C42       1.0  0.21591  0.58441  0.39335  1.0000
  H   H25       1.0  0.46809  0.63294  0.43454  1.0000
  H   H26       1.0  0.43907  0.65568  0.41529  1.0000
  H   H27       1.0  0.36009  0.78638  0.41890  1.0000
  H   H28       1.0  0.38284  0.83812  0.43831  1.0000
  H   H29       1.0  0.17718  0.54787  0.43863  1.0000
  H   H30       1.0  0.22893  0.57685  0.41918  1.0000
  C   C43       1.0  0.31149  0.65676  0.33635  1.0000
  C   C44       1.0  0.32653  0.68770  0.33648  1.0000
  C   C45       1.0  0.35748  0.70382  0.33636  1.0000
  C   C46       1.0  0.37339  0.68878  0.33645  1.0000
  C   C47       1.0  0.35856  0.65783  0.33633  1.0000
  C   C48       1.0  0.32761  0.64193  0.33646  1.0000
  H   H31       1.0  0.39588  0.70042  0.33707  1.0000
  H   H32       1.0  0.31488  0.69855  0.33715  1.0000
  H   H33       1.0  0.31677  0.61944  0.33707  1.0000
  C   C49       1.0  0.25670  0.62780  0.34148  1.0000
  C   C50       1.0  0.28285  0.64189  0.33796  1.0000
  C   C51       1.0  0.38752  0.63200  0.34125  1.0000
  C   C52       1.0  0.37343  0.64406  0.33785  1.0000
  C   C53       1.0  0.37125  0.73246  0.33796  1.0000
  C   C54       1.0  0.38331  0.75860  0.34147  1.0000
  C   C55       1.0  0.13651  0.56027  0.38895  1.0000
  C   C56       1.0  0.43593  0.87879  0.38884  1.0000
  C   C57       1.0  0.45518  0.57946  0.38818  1.0000
  H   H34       1.0  0.46786  0.58571  0.44280  1.0000
  H   H35       1.0  0.42986  0.88521  0.44384  1.0000
  H   H36       1.0  0.13009  0.54779  0.44401  1.0000
  C   C58       1.0  0.62323  0.22515  0.35386  1.0000
  C   C59       1.0  0.61412  0.39198  0.35328  1.0000
  C   C60       1.0  0.79010  0.40109  0.35379  1.0000
  C   C61       1.0  0.57670  0.41650  0.34068  1.0000
  C   C62       1.0  0.56509  0.38578  0.34142  1.0000
  C   C63       1.0  0.58348  0.37363  0.34777  1.0000
  C   C64       1.0  0.59871  0.16322  0.34166  1.0000
  C   C65       1.0  0.62943  0.18228  0.34470  1.0000
  C   C66       1.0  0.64157  0.21281  0.35091  1.0000
  C   C67       1.0  0.85204  0.43851  0.34159  1.0000
  C   C68       1.0  0.83297  0.45016  0.34465  1.0000
  C   C69       1.0  0.80244  0.43177  0.35085  1.0000
  H   H37       1.0  0.54298  0.37179  0.33661  1.0000
  H   H38       1.0  0.57419  0.35129  0.34728  1.0000
  H   H39       1.0  0.66392  0.22582  0.35206  1.0000
  H   H40       1.0  0.64341  0.17411  0.34166  1.0000
  H   H41       1.0  0.84114  0.47231  0.34169  1.0000
  H   H42       1.0  0.78942  0.44109  0.35206  1.0000
  C   C70       1.0  0.70685  0.35528  0.35874  1.0000
  C   C71       1.0  0.69163  0.32433  0.35871  1.0000
  C   C72       1.0  0.66067  0.30840  0.35874  1.0000
  C   C73       1.0  0.64494  0.32362  0.35865  1.0000
  C   C74       1.0  0.65996  0.35457  0.35868  1.0000
  C   C75       1.0  0.69091  0.37030  0.35865  1.0000
  H   H43       1.0  0.62245  0.31210  0.35839  1.0000
  H   H44       1.0  0.70315  0.31336  0.35849  1.0000
  H   H45       1.0  0.70188  0.39279  0.35837  1.0000
  C   C76       1.0  0.76165  0.38425  0.35675  1.0000
  C   C77       1.0  0.73549  0.36999  0.35813  1.0000
  C   C78       1.0  0.63097  0.38038  0.35648  1.0000
  C   C79       1.0  0.64524  0.36849  0.35799  1.0000
  C   C80       1.0  0.64675  0.27976  0.35815  1.0000
  C   C81       1.0  0.63485  0.25360  0.35679  1.0000
  C   C82       1.0  0.88200  0.45745  0.33104  1.0000
  C   C83       1.0  0.58768  0.13326  0.33107  1.0000
  C   C84       1.0  0.55778  0.42755  0.33008  1.0000
  H   H46       1.0  0.53808  0.41442  0.30397  1.0000
  H   H47       1.0  0.60089  0.12670  0.30550  1.0000
  H   H48       1.0  0.88857  0.47722  0.30551  1.0000
  C   C85       1.0  0.47775  0.53790  0.42322  1.0000
  C   C86       1.0  0.49325  0.52256  0.42479  1.0000
  C   C87       1.0  0.51784  0.49920  0.34573  1.0000
  C   C88       1.0  0.54048  0.50599  0.40917  1.0000
  C   C89       1.0  0.55578  0.49044  0.41088  1.0000
  C   C90       1.0  0.54878  0.46730  0.34997  1.0000
  H   H49       1.0  0.54649  0.52280  0.45400  1.0000
  H   H50       1.0  0.57206  0.49606  0.45752  1.0000
  H   H51       1.0  0.47127  0.54251  0.48306  1.0000
  H   H52       1.0  0.49740  0.51645  0.48605  1.0000
  N   N4        1.0  0.56417  0.45349  0.35488  1.0000
  C   C91       1.0  0.47746  0.94294  0.42363  1.0000
  C   C92       1.0  0.49276  0.97376  0.42522  1.0000
  C   C93       1.0  0.51604  0.02171  0.34617  1.0000
  C   C94       1.0  0.50924  0.03754  0.40968  1.0000
  C   C95       1.0  0.52477  0.06839  0.41139  1.0000
  C   C96       1.0  0.54790  0.08454  0.35049  1.0000
  H   H53       1.0  0.49244  0.02673  0.45450  1.0000
  H   H54       1.0  0.51913  0.07902  0.45807  1.0000
  H   H55       1.0  0.47289  0.93186  0.48348  1.0000
  H   H56       1.0  0.49893  0.98403  0.48646  1.0000
  N   N5        1.0  0.56168  0.11373  0.35540  1.0000
  C   C97       1.0  0.07234  0.53760  0.42364  1.0000
  C   C98       1.0  0.04151  0.52208  0.42520  1.0000
  C   C99       1.0  0.99357  0.49738  0.34612  1.0000
  C   C100      1.0  0.97774  0.47476  0.40966  1.0000
  C   C101      1.0  0.94689  0.45942  0.41135  1.0000
  C   C102      1.0  0.93073  0.46639  0.35042  1.0000
  H   H57       1.0  0.98856  0.46878  0.45451  1.0000
  H   H58       1.0  0.93626  0.44316  0.45805  1.0000
  H   H59       1.0  0.08341  0.54413  0.48348  1.0000
  H   H60       1.0  0.03123  0.51798  0.48643  1.0000
  N   N6        1.0  0.90153  0.45097  0.35532  1.0000
