data_image0
_chemical_formula_structural       C18H9C3O3C18H9C3O3CNCHNHCNCHNHCNCHNHC6H6C6H6C2NCH3NHC2NCH3NHC2NCH3NH
_chemical_formula_sum              "C69 H48 O6 N12"
_cell_length_a       36.9479
_cell_length_b       36.948
_cell_length_c       15.042
_cell_angle_alpha    90
_cell_angle_beta     90
_cell_angle_gamma    120

_space_group_name_H-M_alt    "P 1"
_space_group_IT_number       1

loop_
  _space_group_symop_operation_xyz
  'x, y, z'

loop_
  _atom_site_type_symbol
  _atom_site_label
  _atom_site_symmetry_multiplicity
  _atom_site_fract_x
  _atom_site_fract_y
  _atom_site_fract_z
  _atom_site_occupancy
  C   C1        1.0  0.28689  0.63839  0.31394  1.0000
  C   C2        1.0  0.30495  0.68238  0.31360  1.0000
  C   C3        1.0  0.34871  0.70963  0.31399  1.0000
  C   C4        1.0  0.37464  0.69157  0.31374  1.0000
  C   C5        1.0  0.35813  0.64781  0.31409  1.0000
  C   C6        1.0  0.31414  0.62188  0.31372  1.0000
  C   C7        1.0  0.36613  0.75399  0.31823  1.0000
  C   C8        1.0  0.34872  0.77438  0.26923  1.0000
  C   C9        1.0  0.36536  0.81786  0.27529  1.0000
  C   C10       1.0  0.40073  0.84242  0.32876  1.0000
  C   C11       1.0  0.24254  0.61145  0.31814  1.0000
  C   C12       1.0  0.15410  0.55759  0.32865  1.0000
  C   C13       1.0  0.17868  0.54677  0.27527  1.0000
  C   C14       1.0  0.22216  0.57362  0.26923  1.0000
  C   C15       1.0  0.38507  0.63040  0.31850  1.0000
  C   C16       1.0  0.43888  0.59578  0.32931  1.0000
  C   C17       1.0  0.44972  0.63115  0.27580  1.0000
  C   C18       1.0  0.42290  0.64779  0.26961  1.0000
  H   H1        1.0  0.16501  0.51990  0.23833  1.0000
  H   H2        1.0  0.23872  0.56538  0.22752  1.0000
  H   H3        1.0  0.43113  0.67254  0.22775  1.0000
  H   H4        1.0  0.47658  0.64429  0.23881  1.0000
  H   H5        1.0  0.35219  0.83155  0.23829  1.0000
  H   H6        1.0  0.32395  0.75784  0.22746  1.0000
  H   H7        1.0  0.28572  0.69488  0.31463  1.0000
  H   H8        1.0  0.30164  0.59015  0.31484  1.0000
  H   H9        1.0  0.40637  0.71080  0.31487  1.0000
  C   C19       1.0  0.41835  0.88626  0.33399  1.0000
  C   C20       1.0  0.11027  0.53136  0.33389  1.0000
  C   C21       1.0  0.46508  0.57815  0.33472  1.0000
  O   O1        1.0  0.50664  0.60459  0.34480  1.0000
  O   O2        1.0  0.09518  0.48983  0.34443  1.0000
  O   O3        1.0  0.39191  0.90137  0.34442  1.0000
  C   C22       1.0  0.70855  0.36019  0.32755  1.0000
  C   C23       1.0  0.69232  0.31647  0.32736  1.0000
  C   C24       1.0  0.64884  0.28798  0.32752  1.0000
  C   C25       1.0  0.62136  0.30421  0.32729  1.0000
  C   C26       1.0  0.63635  0.34769  0.32747  1.0000
  C   C27       1.0  0.68006  0.37517  0.32731  1.0000
  C   C28       1.0  0.63310  0.24402  0.32978  1.0000
  C   C29       1.0  0.64948  0.22505  0.27330  1.0000
  C   C30       1.0  0.63357  0.18162  0.27528  1.0000
  C   C31       1.0  0.60038  0.15578  0.33294  1.0000
  C   C32       1.0  0.75250  0.38840  0.32985  1.0000
  C   C33       1.0  0.84075  0.44392  0.33306  1.0000
  C   C34       1.0  0.81492  0.45127  0.27536  1.0000
  C   C35       1.0  0.77149  0.42375  0.27335  1.0000
  C   C36       1.0  0.60813  0.36343  0.32970  1.0000
  C   C37       1.0  0.55261  0.39616  0.33286  1.0000
  C   C38       1.0  0.54529  0.36300  0.27512  1.0000
  C   C39       1.0  0.57280  0.34708  0.27317  1.0000
  H   H10       1.0  0.82766  0.47596  0.23207  1.0000
  H   H11       1.0  0.75397  0.42929  0.22854  1.0000
  H   H12       1.0  0.56725  0.32399  0.22842  1.0000
  H   H13       1.0  0.52056  0.35099  0.23192  1.0000
  H   H14       1.0  0.64555  0.16890  0.23202  1.0000
  H   H15       1.0  0.67256  0.24258  0.22853  1.0000
  H   H16       1.0  0.71259  0.30515  0.32802  1.0000
  H   H17       1.0  0.69138  0.40676  0.32795  1.0000
  H   H18       1.0  0.58977  0.28395  0.32789  1.0000
  C   C40       1.0  0.58351  0.11184  0.33234  1.0000
  C   C41       1.0  0.88469  0.47097  0.33244  1.0000
  C   C42       1.0  0.52553  0.41302  0.33231  1.0000
  O   O4        1.0  0.48393  0.38557  0.32842  1.0000
  O   O5        1.0  0.89886  0.51257  0.32858  1.0000
  O   O6        1.0  0.61095  0.09769  0.32851  1.0000
  C   C43       1.0  0.48444  0.46310  0.27542  1.0000
  N   N1        1.0  0.46332  0.48424  0.27123  1.0000
  C   C44       1.0  0.47249  0.51701  0.32559  1.0000
  H   H19       1.0  0.47731  0.43995  0.22998  1.0000
  N   N2        1.0  0.44972  0.53661  0.32044  1.0000
  H   H20       1.0  0.42097  0.51987  0.29954  1.0000
  C   C45       1.0  0.53344  0.02070  0.27523  1.0000
  N   N3        1.0  0.51230  0.97844  0.27093  1.0000
  C   C46       1.0  0.47950  0.95481  0.32521  1.0000
  H   H21       1.0  0.55661  0.03675  0.22986  1.0000
  N   N4        1.0  0.45989  0.91245  0.31993  1.0000
  H   H22       1.0  0.47665  0.90045  0.29907  1.0000
  C   C47       1.0  0.97579  0.51195  0.27511  1.0000
  N   N5        1.0  0.01805  0.53307  0.27076  1.0000
  C   C48       1.0  0.04170  0.52393  0.32502  1.0000
  H   H23       1.0  0.95973  0.51910  0.22982  1.0000
  N   N6        1.0  0.08406  0.54667  0.31963  1.0000
  H   H24       1.0  0.09605  0.57544  0.29878  1.0000
  C   C49       1.0  0.41839  0.82247  0.37766  1.0000
  C   C50       1.0  0.40103  0.77892  0.37324  1.0000
  C   C51       1.0  0.21759  0.62144  0.37305  1.0000
  C   C52       1.0  0.17404  0.59524  0.37743  1.0000
  C   C53       1.0  0.37507  0.59552  0.37359  1.0000
  C   C54       1.0  0.40124  0.57813  0.37811  1.0000
  H   H25       1.0  0.15715  0.60344  0.41835  1.0000
  H   H26       1.0  0.23092  0.64769  0.41188  1.0000
  H   H27       1.0  0.34880  0.58262  0.41237  1.0000
  H   H28       1.0  0.39302  0.55307  0.41910  1.0000
  H   H29       1.0  0.41392  0.76557  0.41211  1.0000
  H   H30       1.0  0.44347  0.83934  0.41860  1.0000
  C   C55       1.0  0.58445  0.17472  0.39051  1.0000
  C   C56       1.0  0.60066  0.21815  0.38914  1.0000
  C   C57       1.0  0.77836  0.38183  0.38926  1.0000
  C   C58       1.0  0.82180  0.40906  0.39066  1.0000
  C   C59       1.0  0.61469  0.39587  0.38909  1.0000
  C   C60       1.0  0.58747  0.41208  0.39047  1.0000
  H   H31       1.0  0.83933  0.40343  0.43524  1.0000
  H   H32       1.0  0.76576  0.35729  0.43289  1.0000
  H   H33       1.0  0.63923  0.40781  0.43276  1.0000
  H   H34       1.0  0.59308  0.43522  0.43508  1.0000
  H   H35       1.0  0.58869  0.23075  0.43276  1.0000
  H   H36       1.0  0.56128  0.15718  0.43508  1.0000
  C   C61       1.0  0.52562  0.50819  0.39575  1.0000
  C   C62       1.0  0.51660  0.47401  0.33867  1.0000
  N   N7        1.0  0.50323  0.52803  0.38689  1.0000
  C   C63       1.0  0.55683  0.52350  0.46839  1.0000
  H   H37       1.0  0.57169  0.50464  0.47734  1.0000
  H   H38       1.0  0.54158  0.52295  0.53094  1.0000
  H   H39       1.0  0.58107  0.55559  0.45446  1.0000
  N   N8        1.0  0.54017  0.45487  0.33911  1.0000
  H   H40       1.0  0.57035  0.47344  0.34129  1.0000
  C   C64       1.0  0.48829  0.01673  0.39548  1.0000
  C   C65       1.0  0.52251  0.04193  0.33852  1.0000
  N   N9        1.0  0.46845  0.97450  0.38653  1.0000
  C   C66       1.0  0.47297  0.03260  0.46819  1.0000
  H   H41       1.0  0.49183  0.06630  0.47724  1.0000
  H   H42       1.0  0.47350  0.01784  0.53070  1.0000
  H   H43       1.0  0.44088  0.02475  0.45427  1.0000
  N   N10       1.0  0.54166  0.08464  0.33906  1.0000
  H   H44       1.0  0.52309  0.09624  0.34127  1.0000
  C   C67       1.0  0.97981  0.47084  0.39544  1.0000
  C   C68       1.0  0.95459  0.47985  0.33852  1.0000
  N   N11       1.0  0.02203  0.49321  0.38640  1.0000
  C   C69       1.0  0.96397  0.43969  0.46822  1.0000
  H   H45       1.0  0.93026  0.42485  0.47733  1.0000
  H   H46       1.0  0.97875  0.45499  0.53068  1.0000
  H   H47       1.0  0.97180  0.41543  0.45432  1.0000
  N   N12       1.0  0.91188  0.45630  0.33916  1.0000
  H   H48       1.0  0.90026  0.42613  0.34140  1.0000
