data_image0
_chemical_formula_structural       C2H2C2NO2CHC4H2NCHC3H4NC3NC2NCNCHCNOCHC6H4NCNO2CH2C6H6N2C6H6N2C6H6N2C6H6N2C6H6N2CHC3HNO2CHC3HNO2CHC2NO2CHC3HNO2CHC2HOC3HNO2CHC3HNO2CHC3HNO2CHC12H5CNC2NHN2C12H5CNC2NHN2C12H5CNC2NHN2C12H5CNC2NHN2C12H5CNC2NHN2C2NO2CHC3HNO2CHC3HNO2CHC2HC3HNO2CHC3NO2CHC3HNO2CHC3HNO2CHC3HNO2CH
_chemical_formula_sum              "C198 H108 N54 O36"
_cell_length_a       77.0007
_cell_length_b       77.0008
_cell_length_c       14.9013
_cell_angle_alpha    90
_cell_angle_beta     90
_cell_angle_gamma    120

_space_group_name_H-M_alt    "P 1"
_space_group_IT_number       1

loop_
  _space_group_symop_operation_xyz
  'x, y, z'

loop_
  _atom_site_type_symbol
  _atom_site_label
  _atom_site_symmetry_multiplicity
  _atom_site_fract_x
  _atom_site_fract_y
  _atom_site_fract_z
  _atom_site_occupancy
  C   C1        1.0  0.09096  0.56032  0.34039  1.0000
  C   C2        1.0  0.11211  0.57108  0.33941  1.0000
  H   H1        1.0  0.08344  0.56803  0.33266  1.0000
  H   H2        1.0  0.11913  0.58625  0.32945  1.0000
  C   C3        1.0  0.02595  0.51678  0.33521  1.0000
  C   C4        1.0  0.01210  0.51092  0.26295  1.0000
  N   N1        1.0  0.01913  0.51840  0.17550  1.0000
  O   O1        1.0  0.01559  0.50449  0.12133  1.0000
  O   O2        1.0  0.01133  0.52820  0.14585  1.0000
  C   C5        1.0  0.04622  0.53073  0.32329  1.0000
  H   H3        1.0  0.04984  0.54273  0.28573  1.0000
  C   C6        1.0  0.12346  0.56132  0.35059  1.0000
  C   C7        1.0  0.11256  0.54026  0.36394  1.0000
  C   C8        1.0  0.09142  0.52951  0.36589  1.0000
  C   C9        1.0  0.08026  0.53929  0.35291  1.0000
  H   H4        1.0  0.08417  0.51433  0.37599  1.0000
  H   H5        1.0  0.11990  0.53241  0.37312  1.0000
  N   N2        1.0  0.06025  0.52817  0.35632  1.0000
  C   C10       1.0  0.01855  0.50891  0.42152  1.0000
  H   H6        1.0  0.02825  0.51321  0.47477  1.0000
  C   C11       1.0  0.18806  0.62481  0.34094  1.0000
  C   C12       1.0  0.18005  0.63757  0.35692  1.0000
  C   C13       1.0  0.19255  0.65865  0.35967  1.0000
  H   H7        1.0  0.16503  0.63162  0.36839  1.0000
  H   H8        1.0  0.18634  0.66743  0.37267  1.0000
  H   H9        1.0  0.19126  0.52302  0.39795  1.0000
  H   H10       1.0  0.16867  0.53607  0.39772  1.0000
  N   N3        1.0  0.15557  0.59274  0.34650  1.0000
  C   C14       1.0  0.18809  0.56313  0.32905  1.0000
  C   C15       1.0  0.18231  0.54413  0.36689  1.0000
  C   C16       1.0  0.17596  0.57226  0.33543  1.0000
  N   N4        1.0  0.18532  0.59251  0.33557  1.0000
  C   C17       1.0  0.17598  0.60339  0.34101  1.0000
  C   C18       1.0  0.14496  0.57219  0.34721  1.0000
  N   N5        1.0  0.15560  0.56234  0.34213  1.0000
  C   C19       1.0  0.21340  0.66765  0.34459  1.0000
  N   N6        1.0  0.22544  0.68748  0.35137  1.0000
  C   C20       1.0  0.25603  0.52878  0.26398  1.0000
  H   H11       1.0  0.24655  0.52650  0.21134  1.0000
  C   C21       1.0  0.25363  0.71907  0.31672  1.0000
  N   N7        1.0  0.25728  0.72660  0.15526  1.0000
  O   O3        1.0  0.25138  0.73733  0.11776  1.0000
  C   C22       1.0  0.24022  0.69890  0.29952  1.0000
  H   H12       1.0  0.24317  0.69275  0.24715  1.0000
  C   C23       1.0  0.22149  0.65502  0.32968  1.0000
  C   C24       1.0  0.20909  0.63413  0.32725  1.0000
  C   C25       1.0  0.20733  0.57377  0.28869  1.0000
  C   C26       1.0  0.22047  0.56611  0.28855  1.0000
  C   C27       1.0  0.21497  0.54759  0.32940  1.0000
  C   C28       1.0  0.19563  0.53651  0.36778  1.0000
  H   H13       1.0  0.21591  0.62584  0.31611  1.0000
  H   H14       1.0  0.23662  0.66093  0.32178  1.0000
  H   H15       1.0  0.21220  0.58746  0.25945  1.0000
  H   H16       1.0  0.23437  0.57451  0.26021  1.0000
  N   N8        1.0  0.22900  0.54239  0.32964  1.0000
  C   C29       1.0  0.24983  0.52956  0.35247  1.0000
  N   N9        1.0  0.25935  0.53478  0.51586  1.0000
  O   O4        1.0  0.25599  0.54896  0.52894  1.0000
  O   O5        1.0  0.24487  0.51878  0.54506  1.0000
  C   C30       1.0  0.23157  0.52869  0.36551  1.0000
  H   H17       1.0  0.22154  0.51877  0.40767  1.0000
  H   H18       1.0  0.25386  0.71566  0.45771  1.0000
  C   C31       1.0  0.38345  0.56487  0.34100  1.0000
  C   C32       1.0  0.44795  0.53227  0.34040  1.0000
  C   C33       1.0  0.43718  0.54266  0.33943  1.0000
  C   C34       1.0  0.37069  0.54409  0.35692  1.0000
  C   C35       1.0  0.34961  0.53551  0.35965  1.0000
  C   C36       1.0  0.34060  0.54736  0.34461  1.0000
  H   H19       1.0  0.44024  0.51704  0.33270  1.0000
  H   H20       1.0  0.42202  0.53451  0.32946  1.0000
  H   H21       1.0  0.37665  0.53503  0.36835  1.0000
  H   H22       1.0  0.34083  0.52052  0.37262  1.0000
  H   H23       1.0  0.48523  0.66986  0.39788  1.0000
  H   H24       1.0  0.47219  0.63423  0.39767  1.0000
  N   N10       1.0  0.41552  0.56446  0.34652  1.0000
  N   N11       1.0  0.32077  0.53956  0.35135  1.0000
  C   C37       1.0  0.44341  0.82021  0.34111  1.0000
  C   C38       1.0  0.47601  0.91731  0.34041  1.0000
  C   C39       1.0  0.46563  0.89616  0.33945  1.0000
  C   C40       1.0  0.46419  0.82824  0.35684  1.0000
  C   C41       1.0  0.47277  0.81574  0.35957  1.0000
  C   C42       1.0  0.46092  0.79489  0.34470  1.0000
  H   H25       1.0  0.49124  0.92483  0.33272  1.0000
  H   H26       1.0  0.47377  0.88914  0.32951  1.0000
  H   H27       1.0  0.47326  0.84326  0.36815  1.0000
  H   H28       1.0  0.48777  0.82196  0.37238  1.0000
  H   H29       1.0  0.33842  0.81698  0.39805  1.0000
  H   H30       1.0  0.37404  0.83958  0.39778  1.0000
  N   N12       1.0  0.44381  0.85270  0.34657  1.0000
  N   N13       1.0  0.46873  0.78286  0.35139  1.0000
  C   C43       1.0  0.82181  0.38200  0.34755  1.0000
  C   C44       1.0  0.91887  0.44631  0.36398  1.0000
  C   C45       1.0  0.89772  0.43567  0.36373  1.0000
  C   C46       1.0  0.83003  0.36923  0.35688  1.0000
  C   C47       1.0  0.81760  0.34814  0.35925  1.0000
  C   C48       1.0  0.79658  0.33914  0.35057  1.0000
  H   H31       1.0  0.92626  0.43853  0.37377  1.0000
  H   H32       1.0  0.89058  0.42053  0.37450  1.0000
  H   H33       1.0  0.84520  0.37518  0.36255  1.0000
  H   H34       1.0  0.82400  0.33934  0.36645  1.0000
  H   H35       1.0  0.81854  0.48366  0.39442  1.0000
  H   H36       1.0  0.84125  0.47078  0.39447  1.0000
  N   N14       1.0  0.85434  0.41407  0.34933  1.0000
  N   N15       1.0  0.78464  0.31927  0.35541  1.0000
  C   C49       1.0  0.62626  0.44142  0.34749  1.0000
  C   C50       1.0  0.56196  0.47419  0.36398  1.0000
  C   C51       1.0  0.57260  0.46368  0.36376  1.0000
  C   C52       1.0  0.63903  0.46241  0.35701  1.0000
  C   C53       1.0  0.66012  0.47106  0.35941  1.0000
  C   C54       1.0  0.66911  0.45904  0.35053  1.0000
  H   H37       1.0  0.56974  0.48936  0.37389  1.0000
  H   H38       1.0  0.58773  0.47167  0.37460  1.0000
  H   H39       1.0  0.63308  0.47163  0.36285  1.0000
  H   H40       1.0  0.66892  0.48625  0.36676  1.0000
  H   H41       1.0  0.52457  0.33651  0.39437  1.0000
  H   H42       1.0  0.53748  0.37210  0.39455  1.0000
  N   N16       1.0  0.59419  0.44188  0.34931  1.0000
  N   N17       1.0  0.68898  0.46696  0.35540  1.0000
  C   C55       1.0  0.56682  0.18646  0.34747  1.0000
  C   C56       1.0  0.53407  0.08940  0.36387  1.0000
  C   C57       1.0  0.54458  0.11055  0.36368  1.0000
  C   C58       1.0  0.54583  0.17824  0.35693  1.0000
  C   C59       1.0  0.53717  0.19068  0.35929  1.0000
  C   C60       1.0  0.54919  0.21169  0.35041  1.0000
  H   H43       1.0  0.51890  0.08201  0.37374  1.0000
  H   H44       1.0  0.53659  0.11769  0.37451  1.0000
  H   H45       1.0  0.53662  0.16307  0.36275  1.0000
  H   H46       1.0  0.52198  0.18428  0.36661  1.0000
  H   H47       1.0  0.67176  0.18970  0.39427  1.0000
  H   H48       1.0  0.63616  0.16700  0.39434  1.0000
  N   N18       1.0  0.56637  0.15393  0.34930  1.0000
  N   N19       1.0  0.54127  0.22364  0.35532  1.0000
  C   C61       1.0  0.99146  0.49739  0.27873  1.0000
  H   H49       1.0  0.98175  0.49308  0.22550  1.0000
  C   C62       1.0  0.49150  0.51082  0.33527  1.0000
  C   C63       1.0  0.49735  0.50281  0.26302  1.0000
  C   C64       1.0  0.51088  0.49570  0.27879  1.0000
  H   H50       1.0  0.51518  0.49030  0.22558  1.0000
  N   N20       1.0  0.48986  0.50236  0.17558  1.0000
  O   O6        1.0  0.50376  0.51271  0.12137  1.0000
  O   O7        1.0  0.48006  0.48475  0.14597  1.0000
  C   C65       1.0  0.47754  0.51713  0.32335  1.0000
  H   H51       1.0  0.46553  0.50873  0.28584  1.0000
  C   C66       1.0  0.49747  0.98232  0.33523  1.0000
  C   C67       1.0  0.50547  0.99616  0.26296  1.0000
  C   C68       1.0  0.51257  0.01681  0.27871  1.0000
  H   H52       1.0  0.51797  0.02651  0.22548  1.0000
  N   N21       1.0  0.50592  0.98913  0.17554  1.0000
  O   O8        1.0  0.49556  0.99267  0.12133  1.0000
  O   O9        1.0  0.52353  0.99694  0.14592  1.0000
  C   C69       1.0  0.49116  0.96204  0.32335  1.0000
  H   H53       1.0  0.49956  0.95843  0.28587  1.0000
  C   C70       1.0  0.28919  0.53617  0.31675  1.0000
  C   C71       1.0  0.27552  0.53223  0.24512  1.0000
  N   N22       1.0  0.28166  0.53230  0.15528  1.0000
  O   O10       1.0  0.27093  0.51566  0.11776  1.0000
  O   O11       1.0  0.28113  0.54573  0.10933  1.0000
  C   C72       1.0  0.30936  0.54292  0.29948  1.0000
  H   H54       1.0  0.31550  0.55203  0.24715  1.0000
  C   C73       1.0  0.47211  0.75466  0.31676  1.0000
  C   C74       1.0  0.47603  0.74493  0.24511  1.0000
  C   C75       1.0  0.47948  0.72888  0.26395  1.0000
  H   H55       1.0  0.48175  0.72168  0.21130  1.0000
  N   N23       1.0  0.47596  0.75100  0.15528  1.0000
  O   O12       1.0  0.49259  0.75690  0.11773  1.0000
  O   O13       1.0  0.46253  0.73705  0.10935  1.0000
  C   C76       1.0  0.46535  0.76808  0.29951  1.0000
  H   H56       1.0  0.45622  0.76509  0.24729  1.0000
  C   C77       1.0  0.26335  0.73273  0.24509  1.0000
  C   C78       1.0  0.27940  0.75222  0.26397  1.0000
  H   H57       1.0  0.28659  0.76171  0.21134  1.0000
  O   O14       1.0  0.27123  0.72712  0.10930  1.0000
  C   C79       1.0  0.72029  0.46995  0.31901  1.0000
  C   C80       1.0  0.73362  0.47370  0.24617  1.0000
  C   C81       1.0  0.75321  0.47724  0.26336  1.0000
  H   H58       1.0  0.76247  0.47942  0.20993  1.0000
  N   N24       1.0  0.72705  0.47336  0.15690  1.0000
  O   O15       1.0  0.73759  0.48991  0.11830  1.0000
  O   O16       1.0  0.72742  0.45985  0.11107  1.0000
  C   C82       1.0  0.70004  0.46307  0.30363  1.0000
  H   H59       1.0  0.69356  0.45343  0.25331  1.0000
  C   C83       1.0  0.53828  0.25196  0.31900  1.0000
  C   C84       1.0  0.53452  0.26153  0.24618  1.0000
  C   C85       1.0  0.53097  0.27758  0.26337  1.0000
  H   H60       1.0  0.52880  0.28466  0.20992  1.0000
  N   N25       1.0  0.53486  0.25531  0.15691  1.0000
  O   O17       1.0  0.51831  0.24929  0.11831  1.0000
  O   O18       1.0  0.54838  0.26920  0.11108  1.0000
  C   C86       1.0  0.54517  0.23860  0.30363  1.0000
  H   H61       1.0  0.55483  0.24178  0.25332  1.0000
  C   C87       1.0  0.75632  0.28796  0.31908  1.0000
  C   C88       1.0  0.74673  0.27463  0.24623  1.0000
  C   C89       1.0  0.73069  0.25504  0.26339  1.0000
  H   H62       1.0  0.72359  0.24580  0.20994  1.0000
  N   N26       1.0  0.75294  0.28122  0.15697  1.0000
  O   O19       1.0  0.75895  0.27070  0.11823  1.0000
  O   O20       1.0  0.73904  0.28086  0.11125  1.0000
  C   C90       1.0  0.76967  0.30822  0.30377  1.0000
  H   H63       1.0  0.76647  0.31469  0.25355  1.0000
  C   C91       1.0  0.44694  0.56376  0.35060  1.0000
  C   C92       1.0  0.44512  0.62659  0.32907  1.0000
  C   C93       1.0  0.46800  0.57393  0.36395  1.0000
  C   C94       1.0  0.47875  0.56354  0.36591  1.0000
  C   C95       1.0  0.46897  0.54260  0.35296  1.0000
  C   C96       1.0  0.35324  0.56809  0.32974  1.0000
  C   C97       1.0  0.37413  0.57658  0.32731  1.0000
  C   C98       1.0  0.43448  0.63518  0.28870  1.0000
  C   C99       1.0  0.44214  0.65598  0.28853  1.0000
  C   C100      1.0  0.46066  0.66901  0.32936  1.0000
  C   C101      1.0  0.47174  0.66074  0.36771  1.0000
  C   C102      1.0  0.46412  0.63980  0.36685  1.0000
  H   H64       1.0  0.49393  0.57148  0.37601  1.0000
  H   H65       1.0  0.38241  0.59169  0.31621  1.0000
  H   H66       1.0  0.34731  0.57730  0.32185  1.0000
  H   H67       1.0  0.42078  0.62636  0.25949  1.0000
  H   H68       1.0  0.43374  0.66149  0.26023  1.0000
  C   C103      1.0  0.43600  0.60533  0.33545  1.0000
  N   N27       1.0  0.41575  0.59444  0.33560  1.0000
  C   C104      1.0  0.40486  0.57421  0.34104  1.0000
  C   C105      1.0  0.43607  0.57439  0.34721  1.0000
  N   N28       1.0  0.44592  0.59489  0.34214  1.0000
  H   H69       1.0  0.47585  0.58913  0.37311  1.0000
  N   N29       1.0  0.46586  0.68823  0.32960  1.0000
  N   N30       1.0  0.48010  0.53372  0.35636  1.0000
  C   C106      1.0  0.44452  0.88481  0.35060  1.0000
  C   C107      1.0  0.38169  0.82017  0.32901  1.0000
  C   C108      1.0  0.43435  0.89571  0.36391  1.0000
  C   C109      1.0  0.44475  0.91685  0.36588  1.0000
  C   C110      1.0  0.46568  0.92801  0.35296  1.0000
  C   C111      1.0  0.44018  0.78678  0.33007  1.0000
  C   C112      1.0  0.43169  0.79917  0.32762  1.0000
  C   C113      1.0  0.37310  0.80094  0.28863  1.0000
  C   C114      1.0  0.35230  0.78779  0.28850  1.0000
  C   C115      1.0  0.33928  0.79328  0.32943  1.0000
  C   C116      1.0  0.34753  0.81262  0.36779  1.0000
  C   C117      1.0  0.36847  0.82596  0.36683  1.0000
  H   H70       1.0  0.43680  0.92409  0.37596  1.0000
  H   H71       1.0  0.41657  0.79234  0.31665  1.0000
  H   H72       1.0  0.43097  0.77165  0.32225  1.0000
  H   H73       1.0  0.38192  0.79607  0.25939  1.0000
  H   H74       1.0  0.34680  0.77389  0.26021  1.0000
  C   C118      1.0  0.40295  0.83231  0.33543  1.0000
  N   N31       1.0  0.41384  0.82295  0.33563  1.0000
  C   C119      1.0  0.43407  0.83229  0.34111  1.0000
  C   C120      1.0  0.43389  0.86331  0.34723  1.0000
  N   N32       1.0  0.41339  0.85266  0.34212  1.0000
  H   H75       1.0  0.41915  0.88837  0.37306  1.0000
  N   N33       1.0  0.32005  0.77924  0.32974  1.0000
  N   N34       1.0  0.47456  0.94802  0.35633  1.0000
  C   C121      1.0  0.88652  0.44546  0.34862  1.0000
  C   C122      1.0  0.82190  0.44364  0.32610  1.0000
  C   C123      1.0  0.89760  0.46647  0.33351  1.0000
  C   C124      1.0  0.91875  0.47709  0.33296  1.0000
  C   C125      1.0  0.92975  0.46725  0.34888  1.0000
  C   C126      1.0  0.78826  0.35177  0.34341  1.0000
  C   C127      1.0  0.80060  0.37267  0.34130  1.0000
  C   C128      1.0  0.80268  0.43290  0.28580  1.0000
  C   C129      1.0  0.78946  0.44048  0.28543  1.0000
  C   C130      1.0  0.79488  0.45900  0.32611  1.0000
  C   C131      1.0  0.81425  0.47020  0.36415  1.0000
  C   C132      1.0  0.82765  0.46268  0.36339  1.0000
  H   H76       1.0  0.92610  0.49220  0.32086  1.0000
  H   H77       1.0  0.79361  0.38095  0.33553  1.0000
  H   H78       1.0  0.77305  0.34581  0.34017  1.0000
  H   H79       1.0  0.79785  0.41916  0.25709  1.0000
  H   H80       1.0  0.77553  0.43198  0.25748  1.0000
  C   C133      1.0  0.83401  0.43452  0.33380  1.0000
  N   N35       1.0  0.82459  0.41429  0.33730  1.0000
  C   C134      1.0  0.83391  0.40341  0.34515  1.0000
  C   C135      1.0  0.86501  0.43461  0.34652  1.0000
  N   N36       1.0  0.85438  0.44444  0.33925  1.0000
  H   H81       1.0  0.89040  0.47435  0.32121  1.0000
  N   N37       1.0  0.78073  0.46404  0.32704  1.0000
  N   N38       1.0  0.94976  0.47826  0.34533  1.0000
  C   C136      1.0  0.56280  0.44269  0.34860  1.0000
  C   C137      1.0  0.56460  0.37988  0.32607  1.0000
  C   C138      1.0  0.54180  0.43277  0.33345  1.0000
  C   C139      1.0  0.53118  0.44329  0.33290  1.0000
  C   C140      1.0  0.54102  0.46413  0.34883  1.0000
  C   C141      1.0  0.65648  0.43810  0.34314  1.0000
  C   C142      1.0  0.63558  0.42954  0.34102  1.0000
  C   C143      1.0  0.57533  0.37139  0.28567  1.0000
  C   C144      1.0  0.56774  0.35060  0.28524  1.0000
  C   C145      1.0  0.54922  0.33750  0.32597  1.0000
  C   C146      1.0  0.53804  0.34567  0.36416  1.0000
  C   C147      1.0  0.54556  0.36659  0.36337  1.0000
  H   H82       1.0  0.51607  0.43554  0.32080  1.0000
  H   H83       1.0  0.62730  0.41428  0.33509  1.0000
  H   H84       1.0  0.66243  0.42884  0.33976  1.0000
  H   H85       1.0  0.58907  0.38030  0.25694  1.0000
  H   H86       1.0  0.57623  0.34516  0.25721  1.0000
  C   C148      1.0  0.57373  0.40111  0.33381  1.0000
  N   N39       1.0  0.59396  0.41192  0.33727  1.0000
  C   C149      1.0  0.60484  0.43212  0.34511  1.0000
  C   C150      1.0  0.57365  0.43202  0.34652  1.0000
  N   N40       1.0  0.56381  0.41156  0.33925  1.0000
  H   H87       1.0  0.53392  0.41769  0.32113  1.0000
  N   N41       1.0  0.54416  0.31830  0.32678  1.0000
  N   N42       1.0  0.53001  0.47314  0.34538  1.0000
  C   C151      1.0  0.56557  0.12174  0.34859  1.0000
  C   C152      1.0  0.62838  0.18637  0.32621  1.0000
  C   C153      1.0  0.57549  0.11066  0.33343  1.0000
  C   C154      1.0  0.56497  0.08952  0.33287  1.0000
  C   C155      1.0  0.54413  0.07852  0.34875  1.0000
  C   C156      1.0  0.57014  0.22001  0.34312  1.0000
  C   C157      1.0  0.57870  0.20767  0.34103  1.0000
  C   C158      1.0  0.63686  0.20560  0.28599  1.0000
  C   C159      1.0  0.65765  0.21882  0.28561  1.0000
  C   C160      1.0  0.67076  0.21338  0.32619  1.0000
  C   C161      1.0  0.66259  0.19402  0.36419  1.0000
  C   C162      1.0  0.64167  0.18062  0.36347  1.0000
  H   H88       1.0  0.57273  0.08216  0.32079  1.0000
  H   H89       1.0  0.59396  0.21465  0.33519  1.0000
  H   H90       1.0  0.57940  0.23522  0.33979  1.0000
  H   H91       1.0  0.62795  0.21044  0.25732  1.0000
  H   H92       1.0  0.66308  0.23275  0.25770  1.0000
  C   C163      1.0  0.60715  0.17426  0.33389  1.0000
  N   N43       1.0  0.59633  0.18368  0.33734  1.0000
  C   C164      1.0  0.57613  0.17436  0.34513  1.0000
  C   C165      1.0  0.57623  0.14326  0.34653  1.0000
  N   N44       1.0  0.59670  0.15390  0.33931  1.0000
  H   H93       1.0  0.59058  0.11787  0.32119  1.0000
  N   N45       1.0  0.68995  0.22753  0.32709  1.0000
  N   N46       1.0  0.53512  0.05850  0.34525  1.0000
  C   C166      1.0  0.98406  0.48952  0.36506  1.0000
  C   C167      1.0  0.99791  0.49537  0.43729  1.0000
  N   N47       1.0  0.99087  0.48788  0.52471  1.0000
  O   O21       1.0  0.99442  0.50177  0.57892  1.0000
  O   O22       1.0  0.99868  0.47807  0.55427  1.0000
  C   C168      1.0  0.96380  0.47555  0.37704  1.0000
  H   H94       1.0  0.96022  0.46344  0.41374  1.0000
  C   C169      1.0  0.51875  0.49618  0.36512  1.0000
  C   C170      1.0  0.51291  0.50418  0.43735  1.0000
  C   C171      1.0  0.49937  0.51128  0.42158  1.0000
  H   H95       1.0  0.49507  0.51669  0.47482  1.0000
  N   N48       1.0  0.52041  0.50464  0.52476  1.0000
  O   O23       1.0  0.50651  0.49430  0.57899  1.0000
  O   O24       1.0  0.53021  0.52226  0.55430  1.0000
  C   C172      1.0  0.53272  0.48988  0.37712  1.0000
  H   H96       1.0  0.54485  0.49843  0.41366  1.0000
  C   C173      1.0  0.51209  0.02421  0.36502  1.0000
  C   C174      1.0  0.50410  0.01037  0.43728  1.0000
  C   C175      1.0  0.49700  0.98973  0.42153  1.0000
  H   H97       1.0  0.49160  0.98003  0.47479  1.0000
  N   N49       1.0  0.50364  0.01741  0.52467  1.0000
  O   O25       1.0  0.51399  0.01387  0.57891  1.0000
  O   O26       1.0  0.48602  0.00959  0.55423  1.0000
  C   C176      1.0  0.51838  0.04447  0.37698  1.0000
  H   H98       1.0  0.50985  0.04805  0.41365  1.0000
  C   C177      1.0  0.26335  0.53310  0.42448  1.0000
  C   C178      1.0  0.28270  0.53628  0.40557  1.0000
  H   H99       1.0  0.29260  0.53980  0.45772  1.0000
  C   C179      1.0  0.47868  0.72189  0.35242  1.0000
  C   C180      1.0  0.47516  0.73188  0.42446  1.0000
  C   C181      1.0  0.47201  0.74808  0.40559  1.0000
  H   H100      1.0  0.46847  0.75443  0.45773  1.0000
  N   N50       1.0  0.47348  0.72619  0.51583  1.0000
  O   O27       1.0  0.45929  0.70866  0.52889  1.0000
  O   O28       1.0  0.48947  0.72769  0.54503  1.0000
  C   C182      1.0  0.47956  0.70452  0.36546  1.0000
  H   H101      1.0  0.48948  0.70439  0.40762  1.0000
  C   C183      1.0  0.28638  0.75842  0.35245  1.0000
  C   C184      1.0  0.27640  0.74490  0.42446  1.0000
  C   C185      1.0  0.26022  0.72555  0.40556  1.0000
  N   N51       1.0  0.28209  0.74890  0.51584  1.0000
  O   O29       1.0  0.29962  0.75225  0.52889  1.0000
  O   O30       1.0  0.28059  0.76339  0.54505  1.0000
  C   C186      1.0  0.30377  0.77667  0.36552  1.0000
  H   H102      1.0  0.30385  0.78673  0.40741  1.0000
  C   C187      1.0  0.75982  0.47674  0.35134  1.0000
  C   C188      1.0  0.74662  0.47336  0.42451  1.0000
  C   C189      1.0  0.72717  0.47009  0.40728  1.0000
  H   H103      1.0  0.71750  0.46671  0.46028  1.0000
  N   N52       1.0  0.75104  0.47197  0.51559  1.0000
  O   O31       1.0  0.75452  0.45787  0.52863  1.0000
  O   O32       1.0  0.76562  0.48807  0.54336  1.0000
  C   C190      1.0  0.77818  0.47775  0.36295  1.0000
  H   H104      1.0  0.78834  0.48781  0.40425  1.0000
  C   C191      1.0  0.53149  0.28470  0.35133  1.0000
  C   C192      1.0  0.53488  0.27488  0.42450  1.0000
  C   C193      1.0  0.53816  0.25871  0.40725  1.0000
  H   H105      1.0  0.54156  0.25245  0.46024  1.0000
  N   N53       1.0  0.53632  0.28073  0.51555  1.0000
  O   O33       1.0  0.55043  0.29831  0.52846  1.0000
  O   O34       1.0  0.52023  0.27920  0.54349  1.0000
  C   C194      1.0  0.53048  0.30205  0.36292  1.0000
  H   H106      1.0  0.52052  0.30220  0.40472  1.0000
  C   C195      1.0  0.72357  0.24843  0.35135  1.0000
  C   C196      1.0  0.73341  0.26161  0.42455  1.0000
  C   C197      1.0  0.74960  0.28106  0.40735  1.0000
  H   H107      1.0  0.75585  0.29073  0.46034  1.0000
  N   N54       1.0  0.72757  0.25720  0.51561  1.0000
  O   O35       1.0  0.71000  0.25376  0.52859  1.0000
  O   O36       1.0  0.72907  0.24261  0.54343  1.0000
  C   C198      1.0  0.70622  0.23007  0.36297  1.0000
  H   H108      1.0  0.70612  0.21991  0.40426  1.0000
