data_image0
_chemical_formula_structural       CHCHC3HCH3C3HCH3C2HCHCNCNCNC18H12CNCNCNC18H12C3HCH3C3HCH3C2HCH3
_chemical_formula_sum              "C66 H48 N6"
_cell_length_a       29.4997
_cell_length_b       29.4998
_cell_length_c       14.9563
_cell_angle_alpha    90
_cell_angle_beta     90
_cell_angle_gamma    120

_space_group_name_H-M_alt    "P 1"
_space_group_IT_number       1

loop_
  _space_group_symop_operation_xyz
  'x, y, z'

loop_
  _atom_site_type_symbol
  _atom_site_label
  _atom_site_symmetry_multiplicity
  _atom_site_fract_x
  _atom_site_fract_y
  _atom_site_fract_z
  _atom_site_occupancy
  C   C1        1.0  0.02842  0.52687  0.25627  1.0000
  H   H1        1.0  0.03662  0.52046  0.11655  1.0000
  C   C2        1.0  0.03122  0.50325  0.41215  1.0000
  H   H2        1.0  0.04184  0.58044  0.15117  1.0000
  C   C3        1.0  0.47472  0.52968  0.33299  1.0000
  C   C4        1.0  0.47679  0.50228  0.25628  1.0000
  C   C5        1.0  0.50423  0.47447  0.26203  1.0000
  H   H3        1.0  0.50630  0.45516  0.20648  1.0000
  C   C6        1.0  0.45304  0.50209  0.16829  1.0000
  H   H4        1.0  0.43476  0.52631  0.16709  1.0000
  H   H5        1.0  0.42322  0.46213  0.15118  1.0000
  H   H6        1.0  0.48320  0.51689  0.11655  1.0000
  C   C7        1.0  0.47397  0.94577  0.33299  1.0000
  C   C8        1.0  0.50138  0.97524  0.25628  1.0000
  C   C9        1.0  0.52919  0.03050  0.26203  1.0000
  H   H7        1.0  0.54849  0.05186  0.20648  1.0000
  C   C10       1.0  0.50156  0.95167  0.16829  1.0000
  H   H8        1.0  0.47735  0.90918  0.16709  1.0000
  H   H9        1.0  0.54153  0.96182  0.15118  1.0000
  H   H10       1.0  0.48677  0.96704  0.11655  1.0000
  C   C11       1.0  0.05789  0.52894  0.33300  1.0000
  C   C12       1.0  0.97316  0.49943  0.26202  1.0000
  H   H11       1.0  0.95180  0.49736  0.20647  1.0000
  C   C13       1.0  0.05199  0.55063  0.16830  1.0000
  H   H12       1.0  0.09449  0.56891  0.16709  1.0000
  C   C14       1.0  0.36250  0.72220  0.33918  1.0000
  N   N1        1.0  0.38792  0.69438  0.33911  1.0000
  C   C15       1.0  0.36263  0.64115  0.33918  1.0000
  N   N2        1.0  0.30939  0.61574  0.33911  1.0000
  C   C16       1.0  0.28145  0.64103  0.33919  1.0000
  N   N3        1.0  0.30927  0.69426  0.33912  1.0000
  C   C17       1.0  0.39065  0.61326  0.33845  1.0000
  C   C18       1.0  0.44616  0.64001  0.33946  1.0000
  C   C19       1.0  0.47384  0.61261  0.33801  1.0000
  C   C20       1.0  0.44685  0.55741  0.33474  1.0000
  C   C21       1.0  0.39160  0.53025  0.33460  1.0000
  C   C22       1.0  0.36404  0.55777  0.33632  1.0000
  C   C23       1.0  0.39039  0.77811  0.33845  1.0000
  C   C24       1.0  0.44588  0.80700  0.33633  1.0000
  C   C25       1.0  0.47341  0.86208  0.33460  1.0000
  C   C26       1.0  0.44625  0.89016  0.33474  1.0000
  C   C27       1.0  0.39105  0.86196  0.33801  1.0000
  C   C28       1.0  0.36365  0.80688  0.33946  1.0000
  C   C29       1.0  0.22555  0.61301  0.33846  1.0000
  C   C30       1.0  0.19666  0.63962  0.33633  1.0000
  C   C31       1.0  0.14158  0.61206  0.33461  1.0000
  C   C32       1.0  0.11349  0.55681  0.33474  1.0000
  C   C33       1.0  0.14169  0.52981  0.33803  1.0000
  C   C34       1.0  0.19678  0.55750  0.33948  1.0000
  H   H13       1.0  0.51347  0.88156  0.33303  1.0000
  H   H14       1.0  0.46719  0.78829  0.33569  1.0000
  H   H15       1.0  0.37035  0.88133  0.33834  1.0000
  H   H16       1.0  0.32364  0.78807  0.34114  1.0000
  H   H17       1.0  0.21537  0.67963  0.33571  1.0000
  H   H18       1.0  0.12210  0.63265  0.33305  1.0000
  H   H19       1.0  0.21558  0.53630  0.34114  1.0000
  H   H20       1.0  0.12232  0.48974  0.33834  1.0000
  H   H21       1.0  0.32403  0.53647  0.33569  1.0000
  H   H22       1.0  0.37101  0.49018  0.33303  1.0000
  H   H23       1.0  0.51392  0.63331  0.33834  1.0000
  H   H24       1.0  0.46736  0.68002  0.34114  1.0000
  C   C35       1.0  0.64183  0.28072  0.33476  1.0000
  N   N4        1.0  0.61647  0.30859  0.33484  1.0000
  C   C36       1.0  0.64182  0.36183  0.33477  1.0000
  N   N5        1.0  0.69505  0.38719  0.33484  1.0000
  C   C37       1.0  0.72293  0.36184  0.33477  1.0000
  N   N6        1.0  0.69506  0.30861  0.33484  1.0000
  C   C38       1.0  0.61385  0.38977  0.33555  1.0000
  C   C39       1.0  0.55835  0.36308  0.33442  1.0000
  C   C40       1.0  0.53071  0.39052  0.33596  1.0000
  C   C41       1.0  0.55776  0.44572  0.33944  1.0000
  C   C42       1.0  0.61300  0.47283  0.33968  1.0000
  C   C43       1.0  0.64051  0.44526  0.33788  1.0000
  C   C44       1.0  0.61389  0.22482  0.33555  1.0000
  C   C45       1.0  0.55840  0.19598  0.33788  1.0000
  C   C46       1.0  0.53082  0.14090  0.33968  1.0000
  C   C47       1.0  0.55793  0.11277  0.33944  1.0000
  C   C48       1.0  0.61313  0.14092  0.33596  1.0000
  C   C49       1.0  0.64058  0.19600  0.33442  1.0000
  C   C50       1.0  0.77884  0.38980  0.33555  1.0000
  C   C51       1.0  0.80767  0.36314  0.33787  1.0000
  C   C52       1.0  0.86276  0.39065  0.33967  1.0000
  C   C53       1.0  0.89089  0.44589  0.33942  1.0000
  C   C54       1.0  0.86274  0.47294  0.33591  1.0000
  C   C55       1.0  0.80766  0.44531  0.33442  1.0000
  H   H25       1.0  0.49076  0.12146  0.34137  1.0000
  H   H26       1.0  0.53713  0.21473  0.33860  1.0000
  H   H27       1.0  0.63379  0.12151  0.33553  1.0000
  H   H28       1.0  0.68058  0.21477  0.33260  1.0000
  H   H29       1.0  0.78892  0.32313  0.33860  1.0000
  H   H30       1.0  0.88219  0.37003  0.34137  1.0000
  H   H31       1.0  0.78889  0.46655  0.33260  1.0000
  H   H32       1.0  0.88215  0.51302  0.33553  1.0000
  H   H33       1.0  0.68053  0.46653  0.33860  1.0000
  H   H34       1.0  0.63363  0.51289  0.34137  1.0000
  H   H35       1.0  0.49064  0.36986  0.33553  1.0000
  H   H36       1.0  0.53711  0.32307  0.33260  1.0000
  C   C56       1.0  0.52992  0.47349  0.34118  1.0000
  C   C57       1.0  0.52787  0.50091  0.41790  1.0000
  C   C58       1.0  0.50041  0.52870  0.41215  1.0000
  H   H37       1.0  0.49836  0.54803  0.46768  1.0000
  C   C59       1.0  0.55163  0.50110  0.50587  1.0000
  H   H38       1.0  0.56991  0.47688  0.50708  1.0000
  H   H39       1.0  0.52147  0.48630  0.55762  1.0000
  H   H40       1.0  0.58144  0.54106  0.52298  1.0000
  C   C60       1.0  0.53017  0.05716  0.34118  1.0000
  C   C61       1.0  0.50275  0.02769  0.41790  1.0000
  C   C62       1.0  0.47495  0.97243  0.41215  1.0000
  H   H41       1.0  0.45563  0.95106  0.46768  1.0000
  C   C63       1.0  0.50256  0.05126  0.50587  1.0000
  H   H42       1.0  0.52677  0.09376  0.50708  1.0000
  H   H43       1.0  0.51735  0.03589  0.55762  1.0000
  H   H44       1.0  0.46259  0.04111  0.52299  1.0000
  C   C64       1.0  0.94650  0.47374  0.34117  1.0000
  C   C65       1.0  0.97597  0.47579  0.41789  1.0000
  H   H45       1.0  0.05259  0.50529  0.46768  1.0000
  C   C66       1.0  0.95239  0.45202  0.50586  1.0000
  H   H46       1.0  0.90989  0.43374  0.50707  1.0000
  H   H47       1.0  0.96776  0.48219  0.55761  1.0000
  H   H48       1.0  0.96254  0.42221  0.52297  1.0000
