data_image0
_chemical_formula_structural       C5H3CH3CHC4H3CH3CHC3H2CHC3H3CHC2H3CNCNCN5CNCN4C3H2CHC3H2CHC4H3CH3CHCHC2HCHC6H3CH3CHC3H2C3H2CHC4H3CH3CHC4H3CH3CHCNCNCN4CNCN4CN4CNCN4C3H2CHC4H3CH2CHC4H2CH4C3H2CHC3H2CHC5H3CH3CHCHC3H2CHC3H2C3H2CHC2H2CNCNCN5CN2CN2CNCN4C3H2CH3C5H3CH3C4H3CH3CHCH2C2H2CHC7H3CH3CHC4H3CH3CHC3H2CHCHC2H3CHCH3C3H3CHC3H4CHCNCNCN4CNCNCN5CNCN5CNCN4C3H2CHC3H2CHC4H3CH3CH2C2HCHC3HCHC
_chemical_formula_sum              "C216 H180 N72"
_cell_length_a       60.3628
_cell_length_b       60.3628
_cell_length_c       14.6956
_cell_angle_alpha    90
_cell_angle_beta     90
_cell_angle_gamma    120

_space_group_name_H-M_alt    "P 1"
_space_group_IT_number       1

loop_
  _space_group_symop_operation_xyz
  'x, y, z'

loop_
  _atom_site_type_symbol
  _atom_site_label
  _atom_site_symmetry_multiplicity
  _atom_site_fract_x
  _atom_site_fract_y
  _atom_site_fract_z
  _atom_site_occupancy
  C   C1        1.0  0.11919  0.68385  0.35483  1.0000
  C   C2        1.0  0.26484  0.46117  0.34889  1.0000
  C   C3        1.0  0.25168  0.45896  0.26536  1.0000
  C   C4        1.0  0.22774  0.45890  0.26589  1.0000
  C   C5        1.0  0.26240  0.45598  0.17714  1.0000
  H   H1        1.0  0.28071  0.45667  0.18345  1.0000
  H   H2        1.0  0.26547  0.47132  0.13053  1.0000
  H   H3        1.0  0.24911  0.43763  0.14615  1.0000
  C   C6        1.0  0.21374  0.45576  0.17825  1.0000
  H   H4        1.0  0.19601  0.45620  0.18537  1.0000
  H   H5        1.0  0.20880  0.43746  0.14707  1.0000
  H   H6        1.0  0.22576  0.47115  0.13144  1.0000
  C   C7        1.0  0.28568  0.45697  0.35632  1.0000
  H   H7        1.0  0.28190  0.43907  0.36415  1.0000
  C   C8        1.0  0.21705  0.77835  0.34888  1.0000
  C   C9        1.0  0.22800  0.79153  0.26536  1.0000
  C   C10       1.0  0.25188  0.81546  0.26589  1.0000
  C   C11       1.0  0.21430  0.78081  0.17714  1.0000
  H   H8        1.0  0.19667  0.76250  0.18345  1.0000
  H   H9        1.0  0.22656  0.77773  0.13052  1.0000
  H   H10       1.0  0.20924  0.79409  0.14617  1.0000
  C   C12       1.0  0.26273  0.82946  0.17825  1.0000
  H   H11       1.0  0.28091  0.84719  0.18537  1.0000
  H   H12       1.0  0.24939  0.83441  0.14710  1.0000
  H   H13       1.0  0.26610  0.81744  0.13143  1.0000
  C   C13       1.0  0.19202  0.75752  0.35631  1.0000
  H   H14       1.0  0.17789  0.76130  0.36413  1.0000
  C   C14       1.0  0.16373  0.56936  0.36166  1.0000
  C   C15       1.0  0.17168  0.58541  0.28451  1.0000
  C   C16       1.0  0.17172  0.60864  0.28475  1.0000
  H   H15       1.0  0.17838  0.62000  0.22811  1.0000
  H   H16       1.0  0.17832  0.58074  0.22774  1.0000
  C   C17       1.0  0.16710  0.54821  0.35789  1.0000
  H   H17       1.0  0.18483  0.55111  0.35863  1.0000
  C   C18       1.0  0.04877  0.41745  0.35168  1.0000
  C   C19       1.0  0.03487  0.40436  0.27173  1.0000
  C   C20       1.0  0.04904  0.40599  0.18596  1.0000
  H   H18       1.0  0.06976  0.41618  0.19362  1.0000
  H   H19       1.0  0.04447  0.41580  0.13328  1.0000
  H   H20       1.0  0.04365  0.38683  0.16226  1.0000
  C   C21       1.0  0.07379  0.43822  0.34874  1.0000
  H   H21       1.0  0.07493  0.45510  0.34001  1.0000
  C   C22       1.0  0.03529  0.65309  0.27215  1.0000
  C   C23       1.0  0.04971  0.66559  0.18676  1.0000
  H   H22       1.0  0.07042  0.67595  0.19493  1.0000
  H   H23       1.0  0.04456  0.67952  0.16280  1.0000
  H   H24       1.0  0.04513  0.65122  0.13402  1.0000
  C   C24       1.0  0.11902  0.45758  0.35439  1.0000
  N   N1        1.0  0.14021  0.45476  0.35355  1.0000
  C   C25       1.0  0.16458  0.47549  0.35221  1.0000
  N   N2        1.0  0.16726  0.49926  0.35161  1.0000
  C   C26       1.0  0.14672  0.50282  0.35260  1.0000
  N   N3        1.0  0.12311  0.48190  0.35427  1.0000
  N   N4        1.0  0.09485  0.43755  0.35618  1.0000
  N   N5        1.0  0.14787  0.52536  0.35458  1.0000
  N   N6        1.0  0.18646  0.47483  0.34948  1.0000
  N   N7        1.0  0.14039  0.70785  0.35385  1.0000
  C   C27       1.0  0.16475  0.71149  0.35283  1.0000
  N   N8        1.0  0.16744  0.69040  0.35264  1.0000
  C   C28       1.0  0.14688  0.66629  0.35364  1.0000
  N   N9        1.0  0.12328  0.66361  0.35495  1.0000
  N   N10       1.0  0.09503  0.67973  0.35611  1.0000
  N   N11       1.0  0.14802  0.64490  0.35551  1.0000
  N   N12       1.0  0.18663  0.73404  0.35038  1.0000
  C   C29       1.0  0.21698  0.46107  0.34995  1.0000
  C   C30       1.0  0.23079  0.46398  0.43096  1.0000
  C   C31       1.0  0.25412  0.46401  0.43045  1.0000
  H   H25       1.0  0.26265  0.46492  0.49161  1.0000
  H   H26       1.0  0.22332  0.46485  0.49249  1.0000
  C   C32       1.0  0.19198  0.45689  0.35849  1.0000
  H   H27       1.0  0.17798  0.43912  0.36998  1.0000
  C   C33       1.0  0.26481  0.82621  0.34995  1.0000
  C   C34       1.0  0.25392  0.81240  0.43096  1.0000
  C   C35       1.0  0.23061  0.78907  0.43044  1.0000
  H   H28       1.0  0.22300  0.78054  0.49160  1.0000
  H   H29       1.0  0.26226  0.81987  0.49249  1.0000
  C   C36       1.0  0.28563  0.85122  0.35849  1.0000
  H   H30       1.0  0.28186  0.86521  0.36997  1.0000
  C   C37       1.0  0.16380  0.61669  0.36212  1.0000
  C   C38       1.0  0.15515  0.60060  0.44086  1.0000
  C   C39       1.0  0.15512  0.57674  0.44063  1.0000
  C   C40       1.0  0.14695  0.60876  0.52475  1.0000
  H   H31       1.0  0.14787  0.62718  0.51915  1.0000
  H   H32       1.0  0.15915  0.61033  0.58194  1.0000
  H   H33       1.0  0.12717  0.59473  0.54117  1.0000
  C   C41       1.0  0.14690  0.56029  0.52432  1.0000
  H   H34       1.0  0.14779  0.54280  0.51841  1.0000
  H   H35       1.0  0.12713  0.55457  0.54083  1.0000
  H   H36       1.0  0.15912  0.57086  0.58158  1.0000
  C   C42       1.0  0.16722  0.64123  0.35875  1.0000
  H   H37       1.0  0.18496  0.65604  0.35950  1.0000
  C   C43       1.0  0.03480  0.41545  0.43142  1.0000
  H   H38       1.0  0.04400  0.42586  0.48811  1.0000
  C   C44       1.0  0.04892  0.65373  0.35268  1.0000
  C   C45       1.0  0.03468  0.64173  0.43192  1.0000
  H   H39       1.0  0.04369  0.64050  0.48912  1.0000
  C   C46       1.0  0.07393  0.65794  0.35094  1.0000
  H   H40       1.0  0.07505  0.64212  0.34483  1.0000
  C   C47       1.0  0.45725  0.11978  0.35482  1.0000
  C   C48       1.0  0.35936  0.45784  0.35483  1.0000
  C   C49       1.0  0.46058  0.21763  0.34888  1.0000
  C   C50       1.0  0.45837  0.22858  0.26534  1.0000
  C   C51       1.0  0.45831  0.25246  0.26586  1.0000
  C   C52       1.0  0.45539  0.21487  0.17713  1.0000
  H   H41       1.0  0.45608  0.19725  0.18347  1.0000
  H   H42       1.0  0.47073  0.22714  0.13053  1.0000
  H   H43       1.0  0.43704  0.20981  0.14614  1.0000
  C   C53       1.0  0.45517  0.26331  0.17820  1.0000
  H   H44       1.0  0.45562  0.28149  0.18531  1.0000
  H   H45       1.0  0.43688  0.24996  0.14703  1.0000
  H   H46       1.0  0.47057  0.26668  0.13140  1.0000
  C   C54       1.0  0.45638  0.19260  0.35633  1.0000
  H   H47       1.0  0.43848  0.17848  0.36420  1.0000
  C   C55       1.0  0.47381  0.61687  0.36162  1.0000
  C   C56       1.0  0.45775  0.60878  0.28450  1.0000
  C   C57       1.0  0.43452  0.58559  0.28474  1.0000
  H   H48       1.0  0.42317  0.58087  0.22807  1.0000
  H   H49       1.0  0.46243  0.62007  0.22768  1.0000
  C   C58       1.0  0.42636  0.87947  0.36178  1.0000
  C   C59       1.0  0.43445  0.87152  0.28463  1.0000
  C   C60       1.0  0.45764  0.87147  0.28485  1.0000
  H   H50       1.0  0.46234  0.86482  0.22823  1.0000
  H   H51       1.0  0.42314  0.86487  0.22787  1.0000
  C   C61       1.0  0.40183  0.87610  0.35802  1.0000
  H   H52       1.0  0.38700  0.85837  0.35882  1.0000
  C   C62       1.0  0.38940  0.99442  0.35170  1.0000
  C   C63       1.0  0.39020  0.00831  0.27173  1.0000
  C   C64       1.0  0.40407  0.03589  0.27220  1.0000
  C   C65       1.0  0.37767  0.99414  0.18597  1.0000
  H   H53       1.0  0.36713  0.97342  0.19363  1.0000
  H   H54       1.0  0.39205  0.99871  0.13329  1.0000
  H   H55       1.0  0.36389  0.99953  0.16226  1.0000
  C   C66       1.0  0.40598  0.05031  0.18680  1.0000
  H   H56       1.0  0.41634  0.07101  0.19495  1.0000
  H   H57       1.0  0.38690  0.04517  0.16290  1.0000
  H   H58       1.0  0.41574  0.04570  0.13404  1.0000
  C   C67       1.0  0.38515  0.96941  0.34878  1.0000
  H   H59       1.0  0.40089  0.96827  0.34009  1.0000
  C   C68       1.0  0.41686  0.38999  0.35170  1.0000
  C   C69       1.0  0.40377  0.39078  0.27173  1.0000
  C   C70       1.0  0.39007  0.40466  0.27220  1.0000
  C   C71       1.0  0.40541  0.37825  0.18597  1.0000
  H   H60       1.0  0.41559  0.36771  0.19363  1.0000
  H   H61       1.0  0.41522  0.39263  0.13328  1.0000
  H   H62       1.0  0.38624  0.36448  0.16226  1.0000
  C   C72       1.0  0.37756  0.40656  0.18681  1.0000
  H   H63       1.0  0.36722  0.41693  0.19497  1.0000
  H   H64       1.0  0.36362  0.38749  0.16292  1.0000
  H   H65       1.0  0.39192  0.41633  0.13404  1.0000
  C   C73       1.0  0.43763  0.38573  0.34875  1.0000
  H   H66       1.0  0.45451  0.40147  0.34004  1.0000
  C   C74       1.0  0.35927  0.92417  0.35444  1.0000
  N   N13       1.0  0.33526  0.90298  0.35358  1.0000
  C   C75       1.0  0.33163  0.87862  0.35225  1.0000
  N   N14       1.0  0.35272  0.87593  0.35170  1.0000
  C   C76       1.0  0.37683  0.89648  0.35276  1.0000
  N   N15       1.0  0.37951  0.92009  0.35437  1.0000
  N   N16       1.0  0.36341  0.94834  0.35620  1.0000
  N   N17       1.0  0.39821  0.89533  0.35470  1.0000
  N   N18       1.0  0.30909  0.85673  0.34952  1.0000
  C   C77       1.0  0.45699  0.35985  0.35439  1.0000
  N   N19       1.0  0.45417  0.33585  0.35354  1.0000
  C   C78       1.0  0.47490  0.33221  0.35217  1.0000
  N   N20       1.0  0.48130  0.38009  0.35431  1.0000
  N   N21       1.0  0.43696  0.36399  0.35618  1.0000
  N   N22       1.0  0.47424  0.30967  0.34952  1.0000
  N   N23       1.0  0.45443  0.14097  0.35384  1.0000
  C   C79       1.0  0.47516  0.16534  0.35278  1.0000
  N   N24       1.0  0.48157  0.12387  0.35492  1.0000
  N   N25       1.0  0.43721  0.09562  0.35613  1.0000
  N   N26       1.0  0.47448  0.18721  0.35033  1.0000
  N   N27       1.0  0.33536  0.45502  0.35385  1.0000
  C   C80       1.0  0.33171  0.47574  0.35282  1.0000
  N   N28       1.0  0.35280  0.49952  0.35262  1.0000
  C   C81       1.0  0.37691  0.50309  0.35362  1.0000
  N   N29       1.0  0.37960  0.48216  0.35494  1.0000
  N   N30       1.0  0.36349  0.43780  0.35613  1.0000
  N   N31       1.0  0.39830  0.52562  0.35549  1.0000
  N   N32       1.0  0.30916  0.47508  0.35036  1.0000
  C   C82       1.0  0.46048  0.26539  0.34991  1.0000
  C   C83       1.0  0.46339  0.25450  0.43093  1.0000
  C   C84       1.0  0.46342  0.23120  0.43043  1.0000
  H   H67       1.0  0.46433  0.22358  0.49160  1.0000
  H   H68       1.0  0.46426  0.26284  0.49245  1.0000
  C   C85       1.0  0.45630  0.28621  0.35842  1.0000
  H   H69       1.0  0.43852  0.28243  0.36969  1.0000
  C   C86       1.0  0.42647  0.56963  0.36211  1.0000
  C   C87       1.0  0.44257  0.57705  0.44082  1.0000
  C   C88       1.0  0.46643  0.60087  0.44059  1.0000
  C   C89       1.0  0.43442  0.56068  0.52470  1.0000
  H   H70       1.0  0.41599  0.54320  0.51913  1.0000
  H   H71       1.0  0.43287  0.57133  0.58193  1.0000
  H   H72       1.0  0.44844  0.55493  0.54105  1.0000
  C   C90       1.0  0.48289  0.60909  0.52424  1.0000
  H   H73       1.0  0.48861  0.59505  0.54072  1.0000
  H   H74       1.0  0.47233  0.61075  0.58153  1.0000
  C   C91       1.0  0.40194  0.54848  0.35871  1.0000
  H   H75       1.0  0.38712  0.55139  0.35947  1.0000
  C   C92       1.0  0.47361  0.87940  0.36222  1.0000
  C   C93       1.0  0.46618  0.88806  0.44095  1.0000
  C   C94       1.0  0.44235  0.88809  0.44074  1.0000
  C   C95       1.0  0.48255  0.89627  0.52483  1.0000
  H   H76       1.0  0.47191  0.88406  0.58203  1.0000
  H   H77       1.0  0.48830  0.91604  0.54123  1.0000
  C   C96       1.0  0.43413  0.89632  0.52442  1.0000
  H   H78       1.0  0.41574  0.89542  0.51852  1.0000
  H   H79       1.0  0.44817  0.91608  0.54091  1.0000
  H   H80       1.0  0.43249  0.88410  0.58169  1.0000
  H   H81       1.0  0.49181  0.85824  0.35954  1.0000
  C   C97       1.0  0.41709  0.04951  0.35268  1.0000
  C   C98       1.0  0.41484  0.03527  0.43196  1.0000
  C   C99       1.0  0.40136  0.00840  0.43143  1.0000
  H   H82       1.0  0.40257  0.99919  0.48814  1.0000
  H   H83       1.0  0.42521  0.04427  0.48897  1.0000
  C   C100      1.0  0.43790  0.07452  0.35089  1.0000
  H   H84       1.0  0.45484  0.07563  0.34468  1.0000
  C   C101      1.0  0.38947  0.41767  0.35268  1.0000
  C   C102      1.0  0.40146  0.41543  0.43196  1.0000
  C   C103      1.0  0.41485  0.40195  0.43143  1.0000
  H   H85       1.0  0.42527  0.40316  0.48812  1.0000
  H   H86       1.0  0.40283  0.42580  0.48897  1.0000
  C   C104      1.0  0.38527  0.43849  0.35089  1.0000
  H   H87       1.0  0.40110  0.45543  0.34470  1.0000
  C   C105      1.0  0.58538  0.92402  0.35485  1.0000
  C   C106      1.0  0.58211  0.82621  0.34893  1.0000
  C   C107      1.0  0.58432  0.81525  0.26540  1.0000
  C   C108      1.0  0.58436  0.79136  0.26595  1.0000
  C   C109      1.0  0.58732  0.82896  0.17716  1.0000
  H   H88       1.0  0.58665  0.84659  0.18345  1.0000
  H   H89       1.0  0.57199  0.81670  0.13054  1.0000
  H   H90       1.0  0.60567  0.83401  0.14622  1.0000
  C   C110      1.0  0.58752  0.78051  0.17832  1.0000
  H   H91       1.0  0.58706  0.76233  0.18546  1.0000
  H   H92       1.0  0.60583  0.79385  0.14723  1.0000
  H   H93       1.0  0.57214  0.77715  0.13145  1.0000
  C   C111      1.0  0.58627  0.85123  0.35625  1.0000
  H   H94       1.0  0.60418  0.86538  0.36356  1.0000
  C   C112      1.0  0.49496  0.64139  0.35784  1.0000
  H   H95       1.0  0.49207  0.65623  0.35865  1.0000
  C   C113      1.0  0.56877  0.42694  0.36173  1.0000
  C   C114      1.0  0.58482  0.43504  0.28459  1.0000
  C   C115      1.0  0.60805  0.45823  0.28483  1.0000
  H   H96       1.0  0.61941  0.46293  0.22820  1.0000
  H   H97       1.0  0.58016  0.42374  0.22782  1.0000
  C   C116      1.0  0.54762  0.40242  0.35796  1.0000
  H   H98       1.0  0.55052  0.38758  0.35871  1.0000
  C   C117      1.0  0.61628  0.16436  0.36164  1.0000
  C   C118      1.0  0.60819  0.17233  0.28452  1.0000
  C   C119      1.0  0.58500  0.17237  0.28474  1.0000
  H   H99       1.0  0.58028  0.17899  0.22807  1.0000
  H   H100      1.0  0.61948  0.17893  0.22770  1.0000
  C   C120      1.0  0.62562  0.65368  0.35153  1.0000
  C   C121      1.0  0.63875  0.65294  0.27156  1.0000
  C   C122      1.0  0.63713  0.66546  0.18575  1.0000
  H   H101      1.0  0.62693  0.67598  0.19331  1.0000
  H   H102      1.0  0.62734  0.65108  0.13305  1.0000
  C   C123      1.0  0.60492  0.65802  0.34830  1.0000
  H   H103      1.0  0.58804  0.64232  0.33911  1.0000
  C   C124      1.0  0.63851  0.00791  0.27213  1.0000
  C   C125      1.0  0.63660  0.99349  0.18676  1.0000
  H   H104      1.0  0.62626  0.97279  0.19496  1.0000
  H   H105      1.0  0.62681  0.99806  0.13401  1.0000
  C   C126      1.0  0.58559  0.68393  0.35435  1.0000
  N   N33       1.0  0.58842  0.70794  0.35355  1.0000
  C   C127      1.0  0.56770  0.71158  0.35217  1.0000
  N   N34       1.0  0.54392  0.69050  0.35155  1.0000
  C   C128      1.0  0.54035  0.66639  0.35254  1.0000
  N   N35       1.0  0.56127  0.66370  0.35423  1.0000
  N   N36       1.0  0.60561  0.67976  0.35623  1.0000
  N   N37       1.0  0.51781  0.64501  0.35450  1.0000
  N   N38       1.0  0.56836  0.73413  0.34944  1.0000
  N   N39       1.0  0.49867  0.35330  0.35164  1.0000
  C   C129      1.0  0.50223  0.37741  0.35267  1.0000
  N   N40       1.0  0.52477  0.39879  0.35465  1.0000
  N   N41       1.0  0.49893  0.16803  0.35259  1.0000
  C   C130      1.0  0.50250  0.14748  0.35357  1.0000
  N   N42       1.0  0.52503  0.14862  0.35547  1.0000
  N   N43       1.0  0.58820  0.90283  0.35393  1.0000
  C   C131      1.0  0.56747  0.87846  0.35293  1.0000
  N   N44       1.0  0.54370  0.87577  0.35274  1.0000
  C   C132      1.0  0.54013  0.89632  0.35366  1.0000
  N   N45       1.0  0.56106  0.91993  0.35495  1.0000
  N   N46       1.0  0.60542  0.94818  0.35613  1.0000
  N   N47       1.0  0.51760  0.89519  0.35557  1.0000
  N   N48       1.0  0.56815  0.85658  0.35059  1.0000
  C   C133      1.0  0.58214  0.77841  0.35001  1.0000
  C   C134      1.0  0.57921  0.78931  0.43098  1.0000
  C   C135      1.0  0.57919  0.81261  0.43046  1.0000
  H   H106      1.0  0.57821  0.82020  0.49159  1.0000
  H   H107      1.0  0.57824  0.78091  0.49250  1.0000
  C   C136      1.0  0.58631  0.75758  0.35857  1.0000
  H   H108      1.0  0.60407  0.76134  0.37025  1.0000
  H   H109      1.0  0.50039  0.62748  0.51832  1.0000
  H   H110      1.0  0.50004  0.89534  0.51921  1.0000
  C   C137      1.0  0.49474  0.87598  0.35883  1.0000
  C   C138      1.0  0.61609  0.47419  0.36220  1.0000
  C   C139      1.0  0.60001  0.46676  0.44093  1.0000
  C   C140      1.0  0.57615  0.44293  0.44071  1.0000
  C   C141      1.0  0.60816  0.48312  0.52482  1.0000
  H   H111      1.0  0.62658  0.50062  0.51921  1.0000
  H   H112      1.0  0.60973  0.47248  0.58201  1.0000
  H   H113      1.0  0.59413  0.48886  0.54124  1.0000
  C   C142      1.0  0.55970  0.43470  0.52439  1.0000
  H   H114      1.0  0.54220  0.41631  0.51848  1.0000
  H   H115      1.0  0.55397  0.44874  0.54089  1.0000
  H   H116      1.0  0.57027  0.43306  0.58166  1.0000
  C   C143      1.0  0.56904  0.16446  0.36211  1.0000
  C   C144      1.0  0.57646  0.15578  0.44082  1.0000
  C   C145      1.0  0.60028  0.15574  0.44061  1.0000
  C   C146      1.0  0.56009  0.14757  0.52470  1.0000
  H   H117      1.0  0.54261  0.14851  0.51912  1.0000
  H   H118      1.0  0.57073  0.15976  0.58193  1.0000
  H   H119      1.0  0.55433  0.12779  0.54106  1.0000
  C   C147      1.0  0.60850  0.14750  0.52427  1.0000
  H   H120      1.0  0.62689  0.14839  0.51836  1.0000
  H   H121      1.0  0.59445  0.12774  0.54075  1.0000
  H   H122      1.0  0.61015  0.15972  0.58155  1.0000
  C   C148      1.0  0.54789  0.16784  0.35869  1.0000
  H   H123      1.0  0.55080  0.18557  0.35940  1.0000
  C   C149      1.0  0.62772  0.64183  0.43135  1.0000
  H   H124      1.0  0.61737  0.64072  0.48813  1.0000
  H   H125      1.0  0.63990  0.61813  0.48913  1.0000
  C   C150      1.0  0.62553  0.99429  0.35268  1.0000
  C   C151      1.0  0.62778  0.00854  0.43193  1.0000
  H   H126      1.0  0.64013  0.04465  0.48820  1.0000
  H   H127      1.0  0.61753  0.99952  0.48914  1.0000
  C   C152      1.0  0.60473  0.96928  0.35095  1.0000
  H   H128      1.0  0.58779  0.96816  0.34485  1.0000
  C   C153      1.0  0.64064  0.49532  0.35883  1.0000
  C   C154      1.0  0.68325  0.58596  0.35486  1.0000
  C   C155      1.0  0.92341  0.35995  0.35483  1.0000
  C   C156      1.0  0.77777  0.58266  0.34891  1.0000
  C   C157      1.0  0.79095  0.58488  0.26540  1.0000
  C   C158      1.0  0.81489  0.58493  0.26595  1.0000
  C   C159      1.0  0.78025  0.58788  0.17716  1.0000
  H   H129      1.0  0.76194  0.58719  0.18345  1.0000
  H   H130      1.0  0.77718  0.57255  0.13053  1.0000
  H   H131      1.0  0.79354  0.60623  0.14622  1.0000
  C   C160      1.0  0.82890  0.58809  0.17832  1.0000
  H   H132      1.0  0.84662  0.58764  0.18546  1.0000
  H   H133      1.0  0.83385  0.60639  0.14721  1.0000
  H   H134      1.0  0.81688  0.57271  0.13146  1.0000
  C   C161      1.0  0.75693  0.58684  0.35625  1.0000
  H   H135      1.0  0.76070  0.60475  0.36367  1.0000
  C   C162      1.0  0.82561  0.26539  0.34891  1.0000
  C   C163      1.0  0.81465  0.25224  0.26536  1.0000
  C   C164      1.0  0.79077  0.22831  0.26589  1.0000
  C   C165      1.0  0.82836  0.26295  0.17714  1.0000
  H   H136      1.0  0.84599  0.28125  0.18346  1.0000
  H   H137      1.0  0.81611  0.26604  0.13053  1.0000
  H   H138      1.0  0.83341  0.24965  0.14616  1.0000
  C   C166      1.0  0.77991  0.21431  0.17825  1.0000
  H   H139      1.0  0.76173  0.19659  0.18536  1.0000
  H   H140      1.0  0.79326  0.20935  0.14712  1.0000
  H   H141      1.0  0.77656  0.22633  0.13141  1.0000
  C   C167      1.0  0.85063  0.28625  0.35628  1.0000
  H   H142      1.0  0.86477  0.28250  0.36392  1.0000
  C   C168      1.0  0.87884  0.47440  0.36173  1.0000
  C   C169      1.0  0.87086  0.45834  0.28459  1.0000
  C   C170      1.0  0.87082  0.43511  0.28481  1.0000
  H   H143      1.0  0.86418  0.42376  0.22814  1.0000
  H   H144      1.0  0.86425  0.46302  0.22779  1.0000
  C   C171      1.0  0.87547  0.49555  0.35798  1.0000
  H   H145      1.0  0.85775  0.49266  0.35880  1.0000
  C   C172      1.0  0.64080  0.16772  0.35788  1.0000
  H   H146      1.0  0.65563  0.18545  0.35865  1.0000
  C   C173      1.0  0.00730  0.39065  0.27220  1.0000
  C   C174      1.0  0.99288  0.37815  0.18681  1.0000
  H   H147      1.0  0.97218  0.36781  0.19497  1.0000
  H   H148      1.0  0.99801  0.36420  0.16292  1.0000
  H   H149      1.0  0.99748  0.39251  0.13404  1.0000
  C   C175      1.0  0.65249  0.63910  0.27211  1.0000
  H   H150      1.0  0.65629  0.67925  0.16212  1.0000
  C   C176      1.0  0.66501  0.63719  0.18676  1.0000
  H   H151      1.0  0.67537  0.62684  0.19497  1.0000
  H   H152      1.0  0.67894  0.65627  0.16281  1.0000
  H   H153      1.0  0.65065  0.62740  0.13400  1.0000
  C   C177      1.0  0.99382  0.62624  0.35163  1.0000
  C   C178      1.0  0.00772  0.63935  0.27166  1.0000
  C   C179      1.0  0.99356  0.63771  0.18586  1.0000
  H   H154      1.0  0.97284  0.62752  0.19346  1.0000
  H   H155      1.0  0.99814  0.62791  0.13318  1.0000
  H   H156      1.0  0.99893  0.65687  0.16218  1.0000
  C   C180      1.0  0.96879  0.60552  0.34852  1.0000
  H   H157      1.0  0.96762  0.58864  0.33957  1.0000
  C   C181      1.0  0.65310  0.04935  0.35159  1.0000
  C   C182      1.0  0.65235  0.03549  0.27158  1.0000
  C   C183      1.0  0.66487  0.04965  0.18579  1.0000
  H   H158      1.0  0.67539  0.07037  0.19338  1.0000
  H   H159      1.0  0.65049  0.04506  0.13310  1.0000
  H   H160      1.0  0.67866  0.04428  0.16212  1.0000
  H   H161      1.0  0.65568  0.99865  0.16281  1.0000
  C   C184      1.0  0.65743  0.07440  0.34844  1.0000
  H   H162      1.0  0.64172  0.07557  0.33941  1.0000
  C   C185      1.0  0.92356  0.58618  0.35442  1.0000
  N   N49       1.0  0.90238  0.58901  0.35358  1.0000
  C   C186      1.0  0.87801  0.56828  0.35223  1.0000
  N   N50       1.0  0.87532  0.54451  0.35165  1.0000
  C   C187      1.0  0.89586  0.54094  0.35270  1.0000
  N   N51       1.0  0.91947  0.56186  0.35434  1.0000
  N   N52       1.0  0.94774  0.60620  0.35623  1.0000
  N   N53       1.0  0.89470  0.51840  0.35463  1.0000
  N   N54       1.0  0.85613  0.56894  0.34948  1.0000
  C   C188      1.0  0.68333  0.11963  0.35436  1.0000
  N   N55       1.0  0.70735  0.14081  0.35351  1.0000
  C   C189      1.0  0.71099  0.16518  0.35211  1.0000
  N   N56       1.0  0.68991  0.16787  0.35155  1.0000
  C   C190      1.0  0.66580  0.14733  0.35259  1.0000
  N   N57       1.0  0.66311  0.12372  0.35426  1.0000
  N   N58       1.0  0.67917  0.09545  0.35621  1.0000
  N   N59       1.0  0.64442  0.14849  0.35455  1.0000
  N   N60       1.0  0.73353  0.18706  0.34942  1.0000
  N   N61       1.0  0.70725  0.58878  0.35391  1.0000
  C   C191      1.0  0.71089  0.56805  0.35292  1.0000
  N   N62       1.0  0.68981  0.54427  0.35274  1.0000
  C   C192      1.0  0.66570  0.54071  0.35368  1.0000
  N   N63       1.0  0.66302  0.56164  0.35497  1.0000
  N   N64       1.0  0.67913  0.60601  0.35612  1.0000
  N   N65       1.0  0.64430  0.51819  0.35557  1.0000
  N   N66       1.0  0.73344  0.56872  0.35055  1.0000
  N   N67       1.0  0.90223  0.33594  0.35388  1.0000
  C   C193      1.0  0.87786  0.33229  0.35286  1.0000
  N   N68       1.0  0.87516  0.35337  0.35265  1.0000
  C   C194      1.0  0.89571  0.37749  0.35359  1.0000
  N   N69       1.0  0.91932  0.38018  0.35493  1.0000
  N   N70       1.0  0.94758  0.36407  0.35613  1.0000
  N   N71       1.0  0.89456  0.39888  0.35551  1.0000
  N   N72       1.0  0.85598  0.30973  0.35044  1.0000
  C   C195      1.0  0.82562  0.58272  0.35001  1.0000
  C   C196      1.0  0.81180  0.57980  0.43099  1.0000
  C   C197      1.0  0.78847  0.57977  0.43045  1.0000
  H   H163      1.0  0.77990  0.57880  0.49159  1.0000
  H   H164      1.0  0.81923  0.57884  0.49251  1.0000
  C   C198      1.0  0.85062  0.58689  0.35858  1.0000
  H   H165      1.0  0.86462  0.60465  0.37021  1.0000
  C   C199      1.0  0.77782  0.21757  0.34994  1.0000
  C   C200      1.0  0.78871  0.23138  0.43094  1.0000
  C   C201      1.0  0.81202  0.25471  0.43044  1.0000
  H   H166      1.0  0.81961  0.26327  0.49158  1.0000
  H   H167      1.0  0.78032  0.22395  0.49244  1.0000
  C   C202      1.0  0.75699  0.19257  0.35847  1.0000
  H   H168      1.0  0.76075  0.17857  0.37000  1.0000
  C   C203      1.0  0.87873  0.42705  0.36217  1.0000
  C   C204      1.0  0.88741  0.44315  0.44089  1.0000
  C   C205      1.0  0.88746  0.46701  0.44067  1.0000
  C   C206      1.0  0.89563  0.43499  0.52475  1.0000
  H   H169      1.0  0.89468  0.41656  0.51916  1.0000
  H   H170      1.0  0.88345  0.43345  0.58199  1.0000
  H   H171      1.0  0.91541  0.44901  0.54108  1.0000
  C   C207      1.0  0.89571  0.48347  0.52433  1.0000
  H   H172      1.0  0.89483  0.50098  0.51843  1.0000
  H   H173      1.0  0.91547  0.48919  0.54079  1.0000
  H   H174      1.0  0.88350  0.47291  0.58162  1.0000
  C   C208      1.0  0.87535  0.40252  0.35875  1.0000
  H   H175      1.0  0.85761  0.38770  0.35944  1.0000
  H   H176      1.0  0.65545  0.49240  0.35957  1.0000
  C   C209      1.0  0.99368  0.39006  0.35269  1.0000
  C   C210      1.0  0.00792  0.40205  0.43196  1.0000
  H   H177      1.0  0.99892  0.40342  0.48897  1.0000
  C   C211      1.0  0.96868  0.38586  0.35089  1.0000
  H   H178      1.0  0.96756  0.40168  0.34471  1.0000
  C   C212      1.0  0.65314  0.62612  0.35267  1.0000
  C   C213      1.0  0.64114  0.62837  0.43190  1.0000
  C   C214      1.0  0.65734  0.60532  0.35096  1.0000
  H   H179      1.0  0.64152  0.58837  0.34489  1.0000
  C   C215      1.0  0.00781  0.62832  0.43139  1.0000
  H   H180      1.0  0.99858  0.61799  0.48819  1.0000
  C   C216      1.0  0.64123  0.03541  0.43141  1.0000
