data_image0
_chemical_formula_structural       C16H20C3NC2NH2CH2NHC3NC2NH2CH2NHC3NC3NC5NC5NC36H26C4H4C3H2C2H3CH3NHC3H2C2H3CH3NH
_chemical_formula_sum              "C96 H78 N12"
_cell_length_a       34.0785
_cell_length_b       34.0764
_cell_length_c       15.0002
_cell_angle_alpha    90
_cell_angle_beta     90
_cell_angle_gamma    89.9225

_space_group_name_H-M_alt    "P 1"
_space_group_IT_number       1

loop_
  _space_group_symop_operation_xyz
  'x, y, z'

loop_
  _atom_site_type_symbol
  _atom_site_label
  _atom_site_symmetry_multiplicity
  _atom_site_fract_x
  _atom_site_fract_y
  _atom_site_fract_z
  _atom_site_occupancy
  C   C1        1.0  0.16967  0.00703  0.26682  1.0000
  C   C2        1.0  0.21077  0.01067  0.26990  1.0000
  C   C3        1.0  0.33224  0.05220  0.30025  1.0000
  C   C4        1.0  0.29144  0.04619  0.29593  1.0000
  C   C5        1.0  0.00073  0.16496  0.25130  1.0000
  C   C6        1.0  0.99766  0.20609  0.24765  1.0000
  C   C7        1.0  0.96543  0.28850  0.24971  1.0000
  C   C8        1.0  0.96191  0.32957  0.24460  1.0000
  C   C9        1.0  0.79753  0.99592  0.24542  1.0000
  C   C10       1.0  0.83870  0.99811  0.24938  1.0000
  C   C11       1.0  0.71447  0.96556  0.24742  1.0000
  C   C12       1.0  0.67337  0.96259  0.24242  1.0000
  C   C13       1.0  0.01022  0.83399  0.26492  1.0000
  C   C14       1.0  0.01356  0.79285  0.26774  1.0000
  C   C15       1.0  0.05260  0.67049  0.29879  1.0000
  C   C16       1.0  0.04734  0.71141  0.29460  1.0000
  H   H1        1.0  0.07215  0.65757  0.25613  1.0000
  H   H2        1.0  0.06381  0.72698  0.24988  1.0000
  H   H3        1.0  0.01347  0.77776  0.20876  1.0000
  H   H4        1.0  0.00830  0.84776  0.20441  1.0000
  H   H5        1.0  0.85417  0.00307  0.19198  1.0000
  H   H6        1.0  0.78425  0.99999  0.18494  1.0000
  H   H7        1.0  0.00629  0.14968  0.19388  1.0000
  H   H8        1.0  0.00174  0.21955  0.18740  1.0000
  H   H9        1.0  0.94682  0.34157  0.19229  1.0000
  H   H10       1.0  0.95230  0.27199  0.20121  1.0000
  H   H11       1.0  0.27564  0.06196  0.25026  1.0000
  H   H12       1.0  0.34486  0.07154  0.25671  1.0000
  H   H13       1.0  0.22600  0.01011  0.21112  1.0000
  H   H14       1.0  0.15604  0.00449  0.20626  1.0000
  H   H15       1.0  0.73082  0.95201  0.19916  1.0000
  H   H16       1.0  0.66120  0.94745  0.19043  1.0000
  H   H17       1.0  0.95906  0.40642  0.24630  1.0000
  H   H18       1.0  0.40721  0.06300  0.32654  1.0000
  H   H19       1.0  0.59651  0.96037  0.24482  1.0000
  H   H20       1.0  0.06188  0.59530  0.32462  1.0000
  C   C17       1.0  0.00374  0.52380  0.24754  1.0000
  C   C18       1.0  0.00617  0.48248  0.23855  1.0000
  C   C19       1.0  0.01145  0.45846  0.31457  1.0000
  N   N1        1.0  0.00421  0.46717  0.15517  1.0000
  C   C20       1.0  0.00012  0.48884  0.07955  1.0000
  C   C21       1.0  0.99790  0.53033  0.08858  1.0000
  N   N2        1.0  0.99997  0.54556  0.17226  1.0000
  H   H21       1.0  0.01344  0.43849  0.00221  1.0000
  H   H22       1.0  0.94045  0.44326  0.00750  1.0000
  C   C22       1.0  0.99637  0.55896  0.01405  1.0000
  H   H23       1.0  0.97797  0.58386  0.03341  1.0000
  H   H24       1.0  0.05162  0.58799  0.04708  1.0000
  N   N3        1.0  0.01342  0.41700  0.31083  1.0000
  H   H25       1.0  0.03128  0.40819  0.25937  1.0000
  C   C23       1.0  0.47909  0.00493  0.24850  1.0000
  C   C24       1.0  0.52037  0.00728  0.23863  1.0000
  C   C25       1.0  0.54466  0.01294  0.31404  1.0000
  N   N4        1.0  0.53534  0.00478  0.15500  1.0000
  C   C26       1.0  0.51341  0.00025  0.07992  1.0000
  C   C27       1.0  0.47195  0.99829  0.08978  1.0000
  N   N5        1.0  0.45705  0.00083  0.17373  1.0000
  H   H26       1.0  0.56378  0.01237  0.00170  1.0000
  H   H27       1.0  0.55760  0.93963  0.00603  1.0000
  C   C28       1.0  0.44299  0.99654  0.01591  1.0000
  H   H28       1.0  0.41900  0.97697  0.03487  1.0000
  H   H29       1.0  0.41177  0.05023  0.05259  1.0000
  N   N6        1.0  0.58612  0.01479  0.30941  1.0000
  H   H30       1.0  0.59470  0.03255  0.25762  1.0000
  C   C29       1.0  0.08069  0.90246  0.34542  1.0000
  C   C30       1.0  0.10794  0.93240  0.34577  1.0000
  C   C31       1.0  0.08775  0.96811  0.34322  1.0000
  N   N7        1.0  0.04917  0.95849  0.34132  1.0000
  C   C32       1.0  0.04322  0.91917  0.34288  1.0000
  C   C33       1.0  0.00743  0.89772  0.34205  1.0000
  C   C34       1.0  0.96939  0.91471  0.33982  1.0000
  N   N8        1.0  0.95996  0.95324  0.33910  1.0000
  C   C35       1.0  0.92073  0.95893  0.33688  1.0000
  C   C36       1.0  0.90389  0.92157  0.33585  1.0000
  C   C37       1.0  0.93387  0.89433  0.33805  1.0000
  C   C38       1.0  0.90018  0.99520  0.33516  1.0000
  C   C39       1.0  0.91820  0.03285  0.33525  1.0000
  N   N9        1.0  0.95679  0.04247  0.33728  1.0000
  C   C40       1.0  0.96274  0.08180  0.33582  1.0000
  C   C41       1.0  0.92527  0.09851  0.33304  1.0000
  C   C42       1.0  0.89804  0.06858  0.33318  1.0000
  C   C43       1.0  0.99852  0.10328  0.33626  1.0000
  C   C44       1.0  0.03656  0.08627  0.33816  1.0000
  N   N10       1.0  0.04595  0.04774  0.33942  1.0000
  C   C45       1.0  0.08518  0.04203  0.34130  1.0000
  C   C46       1.0  0.10207  0.07936  0.34123  1.0000
  C   C47       1.0  0.07210  0.10662  0.33948  1.0000
  C   C48       1.0  0.10572  0.00576  0.34317  1.0000
  C   C49       1.0  0.14744  0.00749  0.34621  1.0000
  C   C50       1.0  0.23078  0.01486  0.35216  1.0000
  C   C51       1.0  0.20817  0.01480  0.43143  1.0000
  C   C52       1.0  0.16707  0.01126  0.42862  1.0000
  C   C53       1.0  0.27237  0.02006  0.35514  1.0000
  C   C54       1.0  0.29573  0.00002  0.41863  1.0000
  C   C55       1.0  0.33654  0.00597  0.42289  1.0000
  C   C56       1.0  0.35542  0.03214  0.36376  1.0000
  C   C57       1.0  0.99616  0.14500  0.33306  1.0000
  C   C58       1.0  0.98971  0.22848  0.32522  1.0000
  C   C59       1.0  0.98537  0.20807  0.40697  1.0000
  C   C60       1.0  0.98860  0.16694  0.41101  1.0000
  C   C61       1.0  0.98587  0.27027  0.32082  1.0000
  C   C62       1.0  0.97848  0.35388  0.31091  1.0000
  C   C63       1.0  0.99836  0.33590  0.38281  1.0000
  C   C64       1.0  0.00222  0.29483  0.38732  1.0000
  C   C65       1.0  0.85844  0.99356  0.33146  1.0000
  C   C66       1.0  0.83620  0.98689  0.40938  1.0000
  C   C67       1.0  0.79503  0.98451  0.40502  1.0000
  C   C68       1.0  0.77483  0.98888  0.32298  1.0000
  C   C69       1.0  0.73298  0.98586  0.31832  1.0000
  C   C70       1.0  0.64926  0.97957  0.30865  1.0000
  C   C71       1.0  0.66748  0.99943  0.38018  1.0000
  C   C72       1.0  0.70859  0.00277  0.38456  1.0000
  C   C73       1.0  0.00980  0.85602  0.34458  1.0000
  C   C74       1.0  0.01249  0.83619  0.42696  1.0000
  C   C75       1.0  0.01655  0.77260  0.34998  1.0000
  C   C76       1.0  0.01578  0.79505  0.42948  1.0000
  C   C77       1.0  0.02103  0.73091  0.35280  1.0000
  C   C78       1.0  0.00001  0.70783  0.41508  1.0000
  C   C79       1.0  0.00524  0.66690  0.41928  1.0000
  C   C80       1.0  0.03161  0.64760  0.36118  1.0000
  H   H31       1.0  0.98983  0.65128  0.46579  1.0000
  H   H32       1.0  0.98036  0.72059  0.45779  1.0000
  H   H33       1.0  0.01869  0.78174  0.49027  1.0000
  H   H34       1.0  0.01253  0.85159  0.48556  1.0000
  H   H35       1.0  0.08765  0.87328  0.34706  1.0000
  H   H36       1.0  0.13763  0.92825  0.34778  1.0000
  H   H37       1.0  0.02833  0.97745  0.33913  1.0000
  H   H38       1.0  0.97762  0.02352  0.33918  1.0000
  H   H39       1.0  0.92994  0.86460  0.33780  1.0000
  H   H40       1.0  0.87471  0.91476  0.33373  1.0000
  H   H41       1.0  0.84988  0.98325  0.46959  1.0000
  H   H42       1.0  0.78000  0.97860  0.46249  1.0000
  H   H43       1.0  0.86835  0.07279  0.33146  1.0000
  H   H44       1.0  0.91829  0.12767  0.33103  1.0000
  H   H45       1.0  0.13127  0.08614  0.34250  1.0000
  H   H46       1.0  0.07608  0.13635  0.33948  1.0000
  H   H47       1.0  0.98493  0.15307  0.47098  1.0000
  H   H48       1.0  0.97888  0.22290  0.46443  1.0000
  H   H49       1.0  0.01776  0.28309  0.43926  1.0000
  H   H50       1.0  0.01060  0.35270  0.43203  1.0000
  H   H51       1.0  0.15151  0.01212  0.48699  1.0000
  H   H52       1.0  0.22131  0.01866  0.49213  1.0000
  H   H53       1.0  0.35240  0.99118  0.47011  1.0000
  H   H54       1.0  0.28327  0.98055  0.46213  1.0000
  H   H55       1.0  0.72051  0.01822  0.43637  1.0000
  H   H56       1.0  0.65084  0.01194  0.42940  1.0000
  C   C81       1.0  0.97458  0.39732  0.30677  1.0000
  C   C82       1.0  0.39855  0.03859  0.36966  1.0000
  C   C83       1.0  0.03748  0.60439  0.36741  1.0000
  C   C84       1.0  0.60579  0.97589  0.30512  1.0000
  H   H57       1.0  0.95683  0.40652  0.36388  1.0000
  H   H58       1.0  0.40604  0.04685  0.43800  1.0000
  H   H59       1.0  0.59673  0.95819  0.36239  1.0000
  H   H60       1.0  0.04554  0.59692  0.43588  1.0000
  C   C85       1.0  0.00611  0.54153  0.33237  1.0000
  C   C86       1.0  0.01497  0.47643  0.39878  1.0000
  C   C87       1.0  0.01187  0.51740  0.40786  1.0000
  H   H61       1.0  0.01364  0.52965  0.46985  1.0000
  H   H62       1.0  0.01907  0.45950  0.45423  1.0000
  C   C88       1.0  0.99944  0.46717  0.66049  1.0000
  C   C89       1.0  0.95732  0.46025  0.62579  1.0000
  H   H63       1.0  0.01662  0.48294  0.61077  1.0000
  H   H64       1.0  0.95837  0.44385  0.56333  1.0000
  H   H65       1.0  0.94222  0.48799  0.61369  1.0000
  C   C90       1.0  0.03763  0.57429  0.65614  1.0000
  H   H66       1.0  0.98291  0.54613  0.62164  1.0000
  H   H67       1.0  0.03520  0.59616  0.60335  1.0000
  H   H68       1.0  0.05619  0.55030  0.63245  1.0000
  N   N11       1.0  0.00169  0.58272  0.33974  1.0000
  H   H69       1.0  0.97874  0.58845  0.38218  1.0000
  C   C91       1.0  0.46169  0.00769  0.33364  1.0000
  C   C92       1.0  0.52701  0.01690  0.39853  1.0000
  C   C93       1.0  0.48609  0.01384  0.40850  1.0000
  H   H70       1.0  0.47407  0.01586  0.47069  1.0000
  H   H71       1.0  0.54413  0.02119  0.45361  1.0000
  C   C94       1.0  0.53476  0.99916  0.66042  1.0000
  C   C95       1.0  0.54063  0.95696  0.62505  1.0000
  H   H72       1.0  0.51920  0.01688  0.61124  1.0000
  H   H73       1.0  0.55665  0.95780  0.56207  1.0000
  H   H74       1.0  0.51256  0.94246  0.61369  1.0000
  C   C96       1.0  0.42592  0.03746  0.66072  1.0000
  H   H75       1.0  0.45594  0.98436  0.62221  1.0000
  H   H76       1.0  0.40408  0.03485  0.60790  1.0000
  H   H77       1.0  0.44912  0.05718  0.63803  1.0000
  N   N12       1.0  0.42059  0.00296  0.34208  1.0000
  H   H78       1.0  0.41530  0.98007  0.38496  1.0000
