data_image0
_chemical_formula_structural       C2HC2HN2C2H3NC2HC2H3NC2HC4H2C4H2N2C2H3NC2HC2H3NC2HC2HC2HN2C2H3NC2HC2H3NC2HC4H2C4H2N2C2H3NC2HC2H3NC2HC2HC2HN2C2H3NC2HC2H3NC2HC4H2C4H2N2C2H3NC2HC2H3NC2HC2HC2HN2C2H3NC2HC2H3NC2HC4H2C4H2N2C2H3NC2HC2H3NC2H
_chemical_formula_sum              "C112 H88 N32"
_cell_length_a       31.5392
_cell_length_b       31.5392
_cell_length_c       14.9493
_cell_angle_alpha    90
_cell_angle_beta     90
_cell_angle_gamma    90

_space_group_name_H-M_alt    "P 1"
_space_group_IT_number       1

loop_
  _space_group_symop_operation_xyz
  'x, y, z'

loop_
  _atom_site_type_symbol
  _atom_site_label
  _atom_site_symmetry_multiplicity
  _atom_site_fract_x
  _atom_site_fract_y
  _atom_site_fract_z
  _atom_site_occupancy
  C   C1        1.0  0.00850  0.06212  0.33814  1.0000
  C   C2        1.0  0.03990  0.09409  0.33816  1.0000
  H   H1        1.0  0.47811  0.07263  0.33723  1.0000
  C   C3        1.0  0.46392  0.40891  0.33778  1.0000
  C   C4        1.0  0.49532  0.44089  0.33760  1.0000
  H   H2        1.0  0.02571  0.43038  0.33658  1.0000
  N   N1        1.0  0.47098  0.36662  0.33745  1.0000
  N   N2        1.0  0.03284  0.13639  0.33761  1.0000
  C   C5        1.0  0.04113  0.23092  0.33424  1.0000
  C   C6        1.0  0.08460  0.21335  0.33074  1.0000
  H   H3        1.0  0.09069  0.19424  0.39019  1.0000
  H   H4        1.0  0.10843  0.23846  0.32828  1.0000
  H   H5        1.0  0.58837  0.19382  0.27104  1.0000
  N   N3        1.0  0.53760  0.27389  0.33428  1.0000
  C   C7        1.0  0.50078  0.29619  0.33680  1.0000
  C   C8        1.0  0.50489  0.34070  0.33635  1.0000
  H   H6        1.0  0.03453  0.35390  0.33477  1.0000
  C   C9        1.0  0.27248  0.96227  0.33743  1.0000
  C   C10       1.0  0.29005  0.91881  0.33365  1.0000
  H   H7        1.0  0.30949  0.91509  0.27379  1.0000
  H   H8        1.0  0.26494  0.89497  0.33130  1.0000
  H   H9        1.0  0.30927  0.41267  0.39294  1.0000
  N   N4        1.0  0.22952  0.46580  0.33753  1.0000
  C   C11       1.0  0.20722  0.50262  0.34023  1.0000
  C   C12       1.0  0.16270  0.49851  0.33953  1.0000
  H   H10       1.0  0.14951  0.96888  0.33778  1.0000
  C   C13       1.0  0.01814  0.01773  0.33864  1.0000
  C   C14       1.0  0.08269  0.08228  0.33874  1.0000
  C   C15       1.0  0.09450  0.03949  0.33925  1.0000
  C   C16       1.0  0.06252  0.00809  0.33917  1.0000
  H   H11       1.0  0.07303  0.47770  0.34005  1.0000
  H   H12       1.0  0.10571  0.10530  0.33877  1.0000
  C   C17       1.0  0.48568  0.48528  0.33861  1.0000
  C   C18       1.0  0.44130  0.49491  0.33959  1.0000
  C   C19       1.0  0.40932  0.46352  0.33933  1.0000
  C   C20       1.0  0.42113  0.42072  0.33852  1.0000
  H   H13       1.0  0.43079  0.02530  0.34067  1.0000
  H   H14       1.0  0.39811  0.39771  0.33849  1.0000
  N   N5        1.0  0.36703  0.47057  0.33966  1.0000
  N   N6        1.0  0.13679  0.03243  0.33979  1.0000
  C   C21       1.0  0.41920  0.28965  0.34311  1.0000
  C   C22       1.0  0.46267  0.27208  0.33960  1.0000
  H   H15       1.0  0.41315  0.30886  0.28379  1.0000
  H   H16       1.0  0.41541  0.30908  0.40295  1.0000
  H   H17       1.0  0.89537  0.26454  0.34532  1.0000
  N   N7        1.0  0.96620  0.22911  0.33955  1.0000
  C   C23       1.0  0.00303  0.20681  0.33707  1.0000
  C   C24       1.0  0.99892  0.16230  0.33777  1.0000
  H   H18       1.0  0.96929  0.14911  0.33938  1.0000
  C   C25       1.0  0.21376  0.58418  0.34701  1.0000
  C   C26       1.0  0.23133  0.54072  0.34323  1.0000
  H   H19       1.0  0.23887  0.60801  0.34962  1.0000
  H   H20       1.0  0.19423  0.58786  0.40676  1.0000
  H   H21       1.0  0.19464  0.09036  0.28761  1.0000
  N   N8        1.0  0.27430  0.03719  0.34315  1.0000
  C   C27       1.0  0.29660  0.00037  0.34041  1.0000
  C   C28       1.0  0.34111  0.00449  0.34087  1.0000
  H   H22       1.0  0.35430  0.03412  0.34258  1.0000
  C   C29       1.0  0.00850  0.56212  0.33814  1.0000
  C   C30       1.0  0.03990  0.59409  0.33816  1.0000
  H   H23       1.0  0.47811  0.57263  0.33723  1.0000
  C   C31       1.0  0.46392  0.90891  0.33778  1.0000
  C   C32       1.0  0.49532  0.94089  0.33760  1.0000
  H   H24       1.0  0.02571  0.93038  0.33658  1.0000
  N   N9        1.0  0.47098  0.86662  0.33745  1.0000
  N   N10       1.0  0.03284  0.63639  0.33761  1.0000
  C   C33       1.0  0.04113  0.73093  0.33424  1.0000
  C   C34       1.0  0.08460  0.71335  0.33074  1.0000
  H   H25       1.0  0.09069  0.69424  0.39019  1.0000
  H   H26       1.0  0.10843  0.73846  0.32828  1.0000
  H   H27       1.0  0.58837  0.69382  0.27104  1.0000
  N   N11       1.0  0.53760  0.77389  0.33428  1.0000
  C   C35       1.0  0.50078  0.79619  0.33680  1.0000
  C   C36       1.0  0.50489  0.84070  0.33635  1.0000
  H   H28       1.0  0.03453  0.85390  0.33477  1.0000
  C   C37       1.0  0.27248  0.46227  0.33743  1.0000
  C   C38       1.0  0.29005  0.41881  0.33365  1.0000
  H   H29       1.0  0.30949  0.41509  0.27379  1.0000
  H   H30       1.0  0.26494  0.39497  0.33130  1.0000
  H   H31       1.0  0.30927  0.91267  0.39294  1.0000
  N   N12       1.0  0.22952  0.96580  0.33753  1.0000
  C   C39       1.0  0.20722  0.00262  0.34023  1.0000
  C   C40       1.0  0.16270  0.99851  0.33953  1.0000
  H   H32       1.0  0.14951  0.46888  0.33778  1.0000
  C   C41       1.0  0.01814  0.51773  0.33864  1.0000
  C   C42       1.0  0.08269  0.58228  0.33874  1.0000
  C   C43       1.0  0.09450  0.53949  0.33925  1.0000
  C   C44       1.0  0.06252  0.50809  0.33917  1.0000
  H   H33       1.0  0.07303  0.97770  0.34005  1.0000
  H   H34       1.0  0.10571  0.60530  0.33877  1.0000
  C   C45       1.0  0.48568  0.98528  0.33861  1.0000
  C   C46       1.0  0.44130  0.99491  0.33959  1.0000
  C   C47       1.0  0.40932  0.96352  0.33933  1.0000
  C   C48       1.0  0.42113  0.92072  0.33852  1.0000
  H   H35       1.0  0.43079  0.52530  0.34067  1.0000
  H   H36       1.0  0.39811  0.89771  0.33849  1.0000
  N   N13       1.0  0.36703  0.97057  0.33966  1.0000
  N   N14       1.0  0.13679  0.53243  0.33979  1.0000
  C   C49       1.0  0.41920  0.78965  0.34311  1.0000
  C   C50       1.0  0.46267  0.77208  0.33960  1.0000
  H   H37       1.0  0.41315  0.80886  0.28379  1.0000
  H   H38       1.0  0.41541  0.80908  0.40295  1.0000
  H   H39       1.0  0.89537  0.76454  0.34532  1.0000
  N   N15       1.0  0.96620  0.72911  0.33955  1.0000
  C   C51       1.0  0.00303  0.70681  0.33707  1.0000
  C   C52       1.0  0.99892  0.66230  0.33777  1.0000
  H   H40       1.0  0.96929  0.64911  0.33938  1.0000
  C   C53       1.0  0.21376  0.08418  0.34701  1.0000
  C   C54       1.0  0.23133  0.04072  0.34323  1.0000
  H   H41       1.0  0.23887  0.10801  0.34962  1.0000
  H   H42       1.0  0.19423  0.08786  0.40676  1.0000
  H   H43       1.0  0.19464  0.59036  0.28761  1.0000
  N   N16       1.0  0.27430  0.53719  0.34315  1.0000
  C   C55       1.0  0.29660  0.50037  0.34041  1.0000
  C   C56       1.0  0.34111  0.50449  0.34087  1.0000
  H   H44       1.0  0.35430  0.53412  0.34258  1.0000
  C   C57       1.0  0.50850  0.06212  0.33814  1.0000
  C   C58       1.0  0.53990  0.09409  0.33816  1.0000
  H   H45       1.0  0.97811  0.07263  0.33723  1.0000
  C   C59       1.0  0.96392  0.40891  0.33778  1.0000
  C   C60       1.0  0.99532  0.44089  0.33760  1.0000
  H   H46       1.0  0.52571  0.43038  0.33658  1.0000
  N   N17       1.0  0.97098  0.36662  0.33745  1.0000
  N   N18       1.0  0.53284  0.13639  0.33761  1.0000
  C   C61       1.0  0.54113  0.23092  0.33424  1.0000
  C   C62       1.0  0.58460  0.21335  0.33074  1.0000
  H   H47       1.0  0.59069  0.19424  0.39019  1.0000
  H   H48       1.0  0.60843  0.23846  0.32828  1.0000
  H   H49       1.0  0.08837  0.19382  0.27104  1.0000
  N   N19       1.0  0.03760  0.27389  0.33428  1.0000
  C   C63       1.0  0.00078  0.29619  0.33680  1.0000
  C   C64       1.0  0.00489  0.34070  0.33635  1.0000
  H   H50       1.0  0.53453  0.35390  0.33477  1.0000
  C   C65       1.0  0.77249  0.96227  0.33743  1.0000
  C   C66       1.0  0.79005  0.91881  0.33365  1.0000
  H   H51       1.0  0.80949  0.91509  0.27379  1.0000
  H   H52       1.0  0.76494  0.89497  0.33130  1.0000
  H   H53       1.0  0.80927  0.41267  0.39294  1.0000
  N   N20       1.0  0.72952  0.46580  0.33753  1.0000
  C   C67       1.0  0.70721  0.50262  0.34023  1.0000
  C   C68       1.0  0.66270  0.49851  0.33953  1.0000
  H   H54       1.0  0.64951  0.96888  0.33778  1.0000
  C   C69       1.0  0.51814  0.01773  0.33864  1.0000
  C   C70       1.0  0.58269  0.08228  0.33874  1.0000
  C   C71       1.0  0.59450  0.03949  0.33925  1.0000
  C   C72       1.0  0.56252  0.00809  0.33917  1.0000
  H   H55       1.0  0.57304  0.47770  0.34005  1.0000
  H   H56       1.0  0.60571  0.10530  0.33877  1.0000
  C   C73       1.0  0.98568  0.48528  0.33861  1.0000
  C   C74       1.0  0.94130  0.49491  0.33959  1.0000
  C   C75       1.0  0.90932  0.46352  0.33933  1.0000
  C   C76       1.0  0.92113  0.42072  0.33852  1.0000
  H   H57       1.0  0.93079  0.02530  0.34067  1.0000
  H   H58       1.0  0.89811  0.39771  0.33849  1.0000
  N   N21       1.0  0.86703  0.47057  0.33966  1.0000
  N   N22       1.0  0.63679  0.03243  0.33979  1.0000
  C   C77       1.0  0.91921  0.28965  0.34311  1.0000
  C   C78       1.0  0.96268  0.27208  0.33960  1.0000
  H   H59       1.0  0.91315  0.30886  0.28379  1.0000
  H   H60       1.0  0.91541  0.30908  0.40295  1.0000
  H   H61       1.0  0.39537  0.26454  0.34532  1.0000
  N   N23       1.0  0.46620  0.22911  0.33955  1.0000
  C   C79       1.0  0.50303  0.20681  0.33707  1.0000
  C   C80       1.0  0.49892  0.16230  0.33777  1.0000
  H   H62       1.0  0.46929  0.14911  0.33938  1.0000
  C   C81       1.0  0.71376  0.58418  0.34701  1.0000
  C   C82       1.0  0.73133  0.54072  0.34323  1.0000
  H   H63       1.0  0.73887  0.60801  0.34962  1.0000
  H   H64       1.0  0.69423  0.58786  0.40676  1.0000
  H   H65       1.0  0.69464  0.09036  0.28761  1.0000
  N   N24       1.0  0.77430  0.03719  0.34315  1.0000
  C   C83       1.0  0.79660  0.00037  0.34041  1.0000
  C   C84       1.0  0.84111  0.00449  0.34087  1.0000
  H   H66       1.0  0.85430  0.03412  0.34258  1.0000
  C   C85       1.0  0.50850  0.56212  0.33814  1.0000
  C   C86       1.0  0.53990  0.59409  0.33816  1.0000
  H   H67       1.0  0.97811  0.57263  0.33723  1.0000
  C   C87       1.0  0.96392  0.90891  0.33778  1.0000
  C   C88       1.0  0.99532  0.94089  0.33760  1.0000
  H   H68       1.0  0.52571  0.93038  0.33658  1.0000
  N   N25       1.0  0.97098  0.86662  0.33745  1.0000
  N   N26       1.0  0.53284  0.63639  0.33761  1.0000
  C   C89       1.0  0.54113  0.73093  0.33424  1.0000
  C   C90       1.0  0.58460  0.71335  0.33074  1.0000
  H   H69       1.0  0.59069  0.69424  0.39019  1.0000
  H   H70       1.0  0.60843  0.73846  0.32828  1.0000
  H   H71       1.0  0.08837  0.69382  0.27104  1.0000
  N   N27       1.0  0.03760  0.77389  0.33428  1.0000
  C   C91       1.0  0.00078  0.79619  0.33680  1.0000
  C   C92       1.0  0.00489  0.84070  0.33635  1.0000
  H   H72       1.0  0.53453  0.85390  0.33477  1.0000
  C   C93       1.0  0.77249  0.46227  0.33743  1.0000
  C   C94       1.0  0.79005  0.41881  0.33365  1.0000
  H   H73       1.0  0.80949  0.41509  0.27379  1.0000
  H   H74       1.0  0.76494  0.39497  0.33130  1.0000
  H   H75       1.0  0.80927  0.91267  0.39294  1.0000
  N   N28       1.0  0.72952  0.96580  0.33753  1.0000
  C   C95       1.0  0.70721  0.00262  0.34023  1.0000
  C   C96       1.0  0.66270  0.99851  0.33953  1.0000
  H   H76       1.0  0.64951  0.46888  0.33778  1.0000
  C   C97       1.0  0.51814  0.51773  0.33864  1.0000
  C   C98       1.0  0.58269  0.58228  0.33874  1.0000
  C   C99       1.0  0.59450  0.53949  0.33925  1.0000
  C   C100      1.0  0.56252  0.50809  0.33917  1.0000
  H   H77       1.0  0.57304  0.97770  0.34005  1.0000
  H   H78       1.0  0.60571  0.60530  0.33877  1.0000
  C   C101      1.0  0.98568  0.98528  0.33861  1.0000
  C   C102      1.0  0.94130  0.99491  0.33959  1.0000
  C   C103      1.0  0.90932  0.96352  0.33933  1.0000
  C   C104      1.0  0.92113  0.92072  0.33852  1.0000
  H   H79       1.0  0.93079  0.52530  0.34067  1.0000
  H   H80       1.0  0.89811  0.89771  0.33849  1.0000
  N   N29       1.0  0.86703  0.97057  0.33966  1.0000
  N   N30       1.0  0.63679  0.53243  0.33979  1.0000
  C   C105      1.0  0.91921  0.78965  0.34311  1.0000
  C   C106      1.0  0.96268  0.77208  0.33960  1.0000
  H   H81       1.0  0.91315  0.80886  0.28379  1.0000
  H   H82       1.0  0.91541  0.80908  0.40295  1.0000
  H   H83       1.0  0.39537  0.76454  0.34532  1.0000
  N   N31       1.0  0.46620  0.72911  0.33955  1.0000
  C   C107      1.0  0.50303  0.70681  0.33707  1.0000
  C   C108      1.0  0.49892  0.66230  0.33777  1.0000
  H   H84       1.0  0.46929  0.64911  0.33938  1.0000
  C   C109      1.0  0.71376  0.08418  0.34701  1.0000
  C   C110      1.0  0.73133  0.04072  0.34323  1.0000
  H   H85       1.0  0.73887  0.10801  0.34962  1.0000
  H   H86       1.0  0.69423  0.08786  0.40676  1.0000
  H   H87       1.0  0.69464  0.59036  0.28761  1.0000
  N   N32       1.0  0.77430  0.53719  0.34315  1.0000
  C   C111      1.0  0.79660  0.50037  0.34041  1.0000
  C   C112      1.0  0.84111  0.50449  0.34087  1.0000
  H   H88       1.0  0.85430  0.53412  0.34258  1.0000
