data_image0
_chemical_formula_structural       C16H16CNCOCH4NCNCOCH4NC3NC3NC5NC5NC36H26C4H4NC2OCH2N2C2OCH2N
_chemical_formula_sum              "C84 H58 N12 O4"
_cell_length_a       34.1847
_cell_length_b       34.1847
_cell_length_c       14.6096
_cell_angle_alpha    90
_cell_angle_beta     90
_cell_angle_gamma    89.8311

_space_group_name_H-M_alt    "P 1"
_space_group_IT_number       1

loop_
  _space_group_symop_operation_xyz
  'x, y, z'

loop_
  _atom_site_type_symbol
  _atom_site_label
  _atom_site_symmetry_multiplicity
  _atom_site_fract_x
  _atom_site_fract_y
  _atom_site_fract_z
  _atom_site_occupancy
  C   C1        1.0  0.00973  0.22158  0.30705  1.0000
  C   C2        1.0  0.00869  0.18037  0.30248  1.0000
  C   C3        1.0  0.99216  0.30815  0.34654  1.0000
  C   C4        1.0  0.99429  0.34924  0.35509  1.0000
  C   C5        1.0  0.21785  0.01852  0.29500  1.0000
  C   C6        1.0  0.17667  0.01860  0.29721  1.0000
  C   C7        1.0  0.34398  0.03764  0.30939  1.0000
  C   C8        1.0  0.30302  0.03943  0.31884  1.0000
  C   C9        1.0  0.01534  0.84804  0.29582  1.0000
  C   C10       1.0  0.01562  0.80687  0.29311  1.0000
  C   C11       1.0  0.03650  0.68091  0.30224  1.0000
  C   C12       1.0  0.03801  0.72185  0.31201  1.0000
  C   C13       1.0  0.84398  0.01003  0.30218  1.0000
  C   C14       1.0  0.80277  0.01116  0.30691  1.0000
  C   C15       1.0  0.71649  0.99320  0.34708  1.0000
  C   C16       1.0  0.67539  0.99508  0.35585  1.0000
  H   H1        1.0  0.65878  0.97528  0.32067  1.0000
  H   H2        1.0  0.72828  0.97190  0.30623  1.0000
  H   H3        1.0  0.78724  0.00940  0.24721  1.0000
  H   H4        1.0  0.85720  0.00695  0.23974  1.0000
  H   H5        1.0  0.01831  0.86333  0.23599  1.0000
  H   H6        1.0  0.01820  0.79359  0.23063  1.0000
  H   H7        1.0  0.16154  0.02346  0.23778  1.0000
  H   H8        1.0  0.23130  0.02276  0.23326  1.0000
  H   H9        1.0  0.28831  0.06122  0.28521  1.0000
  H   H10       1.0  0.35759  0.05767  0.26819  1.0000
  H   H11       1.0  0.00588  0.16712  0.24001  1.0000
  H   H12       1.0  0.00816  0.23708  0.24725  1.0000
  H   H13       1.0  0.97468  0.36605  0.31951  1.0000
  H   H14       1.0  0.97089  0.29657  0.30550  1.0000
  H   H15       1.0  0.05851  0.73681  0.27501  1.0000
  H   H16       1.0  0.05543  0.66759  0.25761  1.0000
  C   C17       1.0  0.01017  0.47208  0.37875  1.0000
  N   N1        1.0  0.99645  0.53487  0.31441  1.0000
  C   C18       1.0  0.99568  0.49521  0.30610  1.0000
  O   O1        1.0  0.97978  0.47897  0.22918  1.0000
  C   C19       1.0  0.00757  0.47481  0.15595  1.0000
  H   H17       1.0  0.99243  0.46251  0.09704  1.0000
  H   H18       1.0  0.03132  0.45492  0.17476  1.0000
  H   H19       1.0  0.01979  0.50309  0.13585  1.0000
  H   H20       1.0  0.02970  0.56384  0.00369  1.0000
  N   N2        1.0  0.00991  0.43309  0.37283  1.0000
  C   C20       1.0  0.55241  0.01067  0.37945  1.0000
  N   N3        1.0  0.48971  0.99686  0.31517  1.0000
  C   C21       1.0  0.52937  0.99616  0.30682  1.0000
  O   O2        1.0  0.54572  0.98027  0.22988  1.0000
  C   C22       1.0  0.54994  0.00812  0.15685  1.0000
  H   H21       1.0  0.56232  0.99298  0.09793  1.0000
  H   H22       1.0  0.56980  0.03175  0.17592  1.0000
  H   H23       1.0  0.52169  0.02051  0.13666  1.0000
  H   H24       1.0  0.46076  0.02985  0.00465  1.0000
  N   N4        1.0  0.59140  0.01052  0.37348  1.0000
  C   C23       1.0  0.91048  0.08617  0.37889  1.0000
  C   C24       1.0  0.93913  0.11457  0.37917  1.0000
  C   C25       1.0  0.97561  0.09603  0.37769  1.0000
  N   N5        1.0  0.96762  0.05714  0.37628  1.0000
  C   C26       1.0  0.92867  0.04950  0.37778  1.0000
  C   C27       1.0  0.90868  0.01296  0.37843  1.0000
  C   C28       1.0  0.92746  0.97579  0.37925  1.0000
  N   N6        1.0  0.96628  0.96794  0.37997  1.0000
  C   C29       1.0  0.97375  0.92905  0.38146  1.0000
  C   C30       1.0  0.93727  0.91075  0.38136  1.0000
  C   C31       1.0  0.90880  0.93950  0.38041  1.0000
  C   C32       1.0  0.01075  0.90992  0.38195  1.0000
  C   C33       1.0  0.04747  0.92958  0.38143  1.0000
  N   N7        1.0  0.05550  0.96845  0.38329  1.0000
  C   C34       1.0  0.09446  0.97608  0.38153  1.0000
  C   C35       1.0  0.11262  0.93942  0.37863  1.0000
  C   C36       1.0  0.08395  0.91104  0.37900  1.0000
  C   C37       1.0  0.11450  0.01260  0.38188  1.0000
  C   C38       1.0  0.09565  0.04976  0.38147  1.0000
  N   N8        1.0  0.05683  0.05761  0.37973  1.0000
  C   C39       1.0  0.04931  0.09650  0.37978  1.0000
  C   C40       1.0  0.08579  0.11481  0.38147  1.0000
  C   C41       1.0  0.11426  0.08608  0.38279  1.0000
  C   C42       1.0  0.01232  0.11568  0.37875  1.0000
  C   C43       1.0  0.01218  0.15751  0.38266  1.0000
  C   C44       1.0  0.01632  0.17687  0.46746  1.0000
  C   C45       1.0  0.01757  0.21799  0.47168  1.0000
  C   C46       1.0  0.01468  0.24129  0.39162  1.0000
  C   C47       1.0  0.01747  0.28315  0.39663  1.0000
  C   C48       1.0  0.02205  0.36701  0.41373  1.0000
  C   C49       1.0  0.04788  0.34204  0.46215  1.0000
  C   C50       1.0  0.04569  0.30111  0.45364  1.0000
  C   C51       1.0  0.15638  0.01205  0.37997  1.0000
  C   C52       1.0  0.17841  0.00512  0.46023  1.0000
  C   C53       1.0  0.21966  0.00482  0.45764  1.0000
  C   C54       1.0  0.24032  0.01177  0.37511  1.0000
  C   C55       1.0  0.28233  0.01153  0.37173  1.0000
  C   C56       1.0  0.30470  0.98253  0.41759  1.0000
  C   C57       1.0  0.34577  0.98074  0.40865  1.0000
  C   C58       1.0  0.36587  0.00815  0.35381  1.0000
  C   C59       1.0  0.01093  0.86807  0.37971  1.0000
  C   C60       1.0  0.01138  0.78417  0.37377  1.0000
  C   C61       1.0  0.00656  0.80462  0.45748  1.0000
  C   C62       1.0  0.00649  0.84586  0.46058  1.0000
  C   C63       1.0  0.01156  0.74216  0.36984  1.0000
  C   C64       1.0  0.98445  0.71943  0.42035  1.0000
  C   C65       1.0  0.98300  0.67835  0.41122  1.0000
  C   C66       1.0  0.00882  0.65862  0.35130  1.0000
  C   C67       1.0  0.86686  0.01357  0.38228  1.0000
  C   C68       1.0  0.84756  0.01791  0.46712  1.0000
  C   C69       1.0  0.80644  0.01925  0.47148  1.0000
  C   C70       1.0  0.78310  0.01620  0.39153  1.0000
  C   C71       1.0  0.74123  0.01877  0.39674  1.0000
  C   C72       1.0  0.65736  0.02283  0.41438  1.0000
  C   C73       1.0  0.68205  0.04890  0.46241  1.0000
  C   C74       1.0  0.72300  0.04697  0.45364  1.0000
  H   H25       1.0  0.67044  0.06961  0.50530  1.0000
  H   H26       1.0  0.73945  0.06666  0.48955  1.0000
  H   H27       1.0  0.79364  0.02212  0.53443  1.0000
  H   H28       1.0  0.86335  0.02033  0.52638  1.0000
  H   H29       1.0  0.88113  0.09190  0.38034  1.0000
  H   H30       1.0  0.93368  0.14397  0.38095  1.0000
  H   H31       1.0  0.98742  0.03717  0.37470  1.0000
  H   H32       1.0  0.03573  0.98841  0.38683  1.0000
  H   H33       1.0  0.87938  0.93429  0.38036  1.0000
  H   H34       1.0  0.93176  0.88139  0.38199  1.0000
  H   H35       1.0  0.00324  0.85960  0.52237  1.0000
  H   H36       1.0  0.00385  0.78959  0.51770  1.0000
  H   H37       1.0  0.08941  0.88164  0.37721  1.0000
  H   H38       1.0  0.14195  0.93366  0.37631  1.0000
  H   H39       1.0  0.09128  0.14417  0.38199  1.0000
  H   H40       1.0  0.14366  0.09133  0.38467  1.0000
  H   H41       1.0  0.16452  0.00038  0.52128  1.0000
  H   H42       1.0  0.23453  0.00026  0.51748  1.0000
  H   H43       1.0  0.36068  0.95836  0.43970  1.0000
  H   H44       1.0  0.29108  0.96117  0.45475  1.0000
  H   H45       1.0  0.06523  0.28447  0.48982  1.0000
  H   H46       1.0  0.06860  0.35345  0.50514  1.0000
  H   H47       1.0  0.02042  0.23081  0.53460  1.0000
  H   H48       1.0  0.01881  0.16111  0.52677  1.0000
  H   H49       1.0  0.96413  0.73276  0.46134  1.0000
  H   H50       1.0  0.96192  0.66317  0.44595  1.0000
  C   C75       1.0  0.02395  0.40734  0.42833  1.0000
  C   C76       1.0  0.40537  0.00415  0.33540  1.0000
  C   C77       1.0  0.00511  0.61905  0.33329  1.0000
  C   C78       1.0  0.61703  0.02449  0.42918  1.0000
  H   H51       1.0  0.03742  0.41670  0.48464  1.0000
  H   H52       1.0  0.60758  0.03781  0.48568  1.0000
  H   H53       1.0  0.99895  0.61101  0.26944  1.0000
  H   H54       1.0  0.41322  0.99662  0.27222  1.0000
  N   N9        1.0  0.02459  0.49134  0.45306  1.0000
  C   C79       1.0  0.02519  0.53096  0.46163  1.0000
  C   C80       1.0  0.01092  0.55407  0.38879  1.0000
  O   O3        1.0  0.04160  0.54714  0.53804  1.0000
  C   C81       1.0  0.01417  0.55163  0.61189  1.0000
  H   H55       1.0  0.00177  0.52351  0.63242  1.0000
  H   H56       1.0  0.99055  0.57175  0.59353  1.0000
  N   N10       1.0  0.01183  0.59297  0.39484  1.0000
  N   N11       1.0  0.53306  0.02507  0.45377  1.0000
  C   C82       1.0  0.49345  0.02562  0.46237  1.0000
  C   C83       1.0  0.47043  0.01129  0.38958  1.0000
  O   O4        1.0  0.47718  0.04190  0.53893  1.0000
  C   C84       1.0  0.47310  0.01442  0.61274  1.0000
  H   H57       1.0  0.50140  0.00220  0.63310  1.0000
  H   H58       1.0  0.45325  0.99067  0.59444  1.0000
  N   N12       1.0  0.43152  0.01219  0.39578  1.0000
