data_image0
_chemical_formula_structural       C11H6C6H3C6N2C7H6NC7H6NC7H6NC3HOHCHC3HOHCHC3HOHCHC3H2CHC3H2CHC3H2CHC7H6NC11H6C6H3C6N2C11H6C6H3C6N2C11H6C6H3C6N2C3H2CHC3H2CHC3H2CHC3HOHCHC3HOHCHC3HOHCH
_chemical_formula_sum              "C168 H96 N12 O6"
_cell_length_a       70.3235
_cell_length_b       70.3291
_cell_length_c       14.9399
_cell_angle_alpha    90
_cell_angle_beta     90
_cell_angle_gamma    119.995

_space_group_name_H-M_alt    "P 1"
_space_group_IT_number       1

loop_
  _space_group_symop_operation_xyz
  'x, y, z'

loop_
  _atom_site_type_symbol
  _atom_site_label
  _atom_site_symmetry_multiplicity
  _atom_site_fract_x
  _atom_site_fract_y
  _atom_site_fract_z
  _atom_site_occupancy
  C   C1        1.0  0.08100  0.03933  0.33302  1.0000
  C   C2        1.0  0.95376  0.04244  0.33237  1.0000
  C   C3        1.0  0.95069  0.91215  0.33241  1.0000
  C   C4        1.0  0.93058  0.06602  0.33021  1.0000
  C   C5        1.0  0.94773  0.07108  0.26887  1.0000
  C   C6        1.0  0.95934  0.05955  0.27012  1.0000
  C   C7        1.0  0.11564  0.04304  0.28013  1.0000
  C   C8        1.0  0.09251  0.03149  0.28166  1.0000
  C   C9        1.0  0.92712  0.86539  0.33015  1.0000
  C   C10       1.0  0.92187  0.87749  0.26959  1.0000
  C   C11       1.0  0.93340  0.90062  0.27088  1.0000
  H   H1        1.0  0.95196  0.08331  0.22266  1.0000
  H   H2        1.0  0.97172  0.06370  0.22469  1.0000
  H   H3        1.0  0.08424  0.01744  0.24434  1.0000
  H   H4        1.0  0.12362  0.03714  0.24183  1.0000
  H   H5        1.0  0.90951  0.86950  0.22392  1.0000
  H   H6        1.0  0.92912  0.90887  0.22603  1.0000
  C   C12       1.0  0.98302  0.97473  0.33354  1.0000
  C   C13       1.0  0.00623  0.98591  0.33372  1.0000
  C   C14       1.0  0.01841  0.00911  0.33380  1.0000
  C   C15       1.0  0.00723  0.02113  0.33369  1.0000
  C   C16       1.0  0.98403  0.01012  0.33352  1.0000
  C   C17       1.0  0.97201  0.98692  0.33345  1.0000
  H   H7        1.0  0.01602  0.03800  0.33367  1.0000
  H   H8        1.0  0.01430  0.97712  0.33370  1.0000
  H   H9        1.0  0.95514  0.97885  0.33324  1.0000
  C   C18       1.0  0.96166  0.93361  0.33289  1.0000
  C   C19       1.0  0.97182  0.95325  0.33326  1.0000
  C   C20       1.0  0.96427  0.03148  0.33285  1.0000
  C   C21       1.0  0.97375  0.02132  0.33322  1.0000
  C   C22       1.0  0.03989  0.01938  0.33372  1.0000
  C   C23       1.0  0.05953  0.02885  0.33348  1.0000
  N   N1        1.0  0.91982  0.07709  0.32330  1.0000
  N   N2        1.0  0.91602  0.84356  0.32328  1.0000
  C   C24       1.0  0.49090  0.30381  0.27785  1.0000
  C   C25       1.0  0.50835  0.32564  0.27699  1.0000
  C   C26       1.0  0.32734  0.17666  0.30331  1.0000
  C   C27       1.0  0.30422  0.16502  0.30338  1.0000
  C   C28       1.0  0.29238  0.14434  0.34609  1.0000
  C   C29       1.0  0.47403  0.15921  0.35478  1.0000
  C   C30       1.0  0.49179  0.15527  0.35117  1.0000
  H   H10       1.0  0.52046  0.33007  0.23023  1.0000
  H   H11       1.0  0.33539  0.19164  0.27215  1.0000
  H   H12       1.0  0.29611  0.17197  0.27326  1.0000
  H   H13       1.0  0.45842  0.14615  0.36143  1.0000
  H   H14       1.0  0.48865  0.13944  0.35440  1.0000
  H   H15       1.0  0.49076  0.29306  0.23111  1.0000
  N   N3        1.0  0.27054  0.13292  0.35150  1.0000
  C   C31       1.0  0.68928  0.18806  0.27761  1.0000
  C   C32       1.0  0.66746  0.18368  0.27680  1.0000
  C   C33       1.0  0.81639  0.15155  0.30302  1.0000
  C   C34       1.0  0.82807  0.14011  0.30303  1.0000
  C   C35       1.0  0.84887  0.14908  0.34487  1.0000
  C   C36       1.0  0.83392  0.31576  0.35454  1.0000
  C   C37       1.0  0.83786  0.33746  0.35100  1.0000
  H   H16       1.0  0.66301  0.19136  0.23010  1.0000
  H   H17       1.0  0.80133  0.14453  0.27252  1.0000
  H   H18       1.0  0.82105  0.12498  0.27352  1.0000
  H   H19       1.0  0.84698  0.31320  0.36115  1.0000
  H   H20       1.0  0.85370  0.35015  0.35423  1.0000
  H   H21       1.0  0.70003  0.19867  0.23086  1.0000
  N   N4        1.0  0.86037  0.13873  0.35022  1.0000
  C   C38       1.0  0.80506  0.50214  0.27765  1.0000
  C   C39       1.0  0.80945  0.48470  0.27684  1.0000
  C   C40       1.0  0.84152  0.66570  0.30306  1.0000
  C   C41       1.0  0.85298  0.68883  0.30307  1.0000
  C   C42       1.0  0.84402  0.70066  0.34498  1.0000
  C   C43       1.0  0.67732  0.51904  0.35460  1.0000
  C   C44       1.0  0.65561  0.50129  0.35103  1.0000
  H   H22       1.0  0.80178  0.47258  0.23011  1.0000
  H   H23       1.0  0.84854  0.65766  0.27251  1.0000
  H   H24       1.0  0.86810  0.69693  0.27351  1.0000
  H   H25       1.0  0.67987  0.53465  0.36129  1.0000
  H   H26       1.0  0.64292  0.50443  0.35431  1.0000
  H   H27       1.0  0.79445  0.50228  0.23089  1.0000
  N   N5        1.0  0.85438  0.72250  0.35032  1.0000
  C   C45       1.0  0.23321  0.11922  0.31901  1.0000
  C   C46       1.0  0.21746  0.11059  0.24903  1.0000
  C   C47       1.0  0.19479  0.09914  0.26862  1.0000
  H   H28       1.0  0.18390  0.09373  0.21641  1.0000
  O   O1        1.0  0.22351  0.11383  0.16123  1.0000
  H   H29       1.0  0.22704  0.10237  0.14550  1.0000
  C   C48       1.0  0.25550  0.13215  0.29992  1.0000
  H   H30       1.0  0.25988  0.14099  0.24399  1.0000
  C   C49       1.0  0.87397  0.11495  0.31930  1.0000
  C   C50       1.0  0.88186  0.10699  0.24957  1.0000
  C   C51       1.0  0.89366  0.09615  0.26956  1.0000
  H   H31       1.0  0.89855  0.09009  0.21763  1.0000
  O   O2        1.0  0.87760  0.10865  0.16184  1.0000
  H   H32       1.0  0.88884  0.12341  0.14243  1.0000
  C   C52       1.0  0.86080  0.12404  0.30024  1.0000
  H   H33       1.0  0.85149  0.11903  0.24559  1.0000
  C   C53       1.0  0.87816  0.75988  0.31927  1.0000
  C   C54       1.0  0.88606  0.77571  0.24950  1.0000
  C   C55       1.0  0.89694  0.79836  0.26947  1.0000
  H   H34       1.0  0.90296  0.80929  0.21751  1.0000
  O   O3        1.0  0.88430  0.76978  0.16176  1.0000
  H   H35       1.0  0.86952  0.76627  0.14264  1.0000
  C   C56       1.0  0.86904  0.73761  0.30020  1.0000
  H   H36       1.0  0.87400  0.73330  0.24544  1.0000
  C   C57       1.0  0.59786  0.16259  0.30544  1.0000
  C   C58       1.0  0.58656  0.16748  0.23918  1.0000
  C   C59       1.0  0.56580  0.16501  0.25635  1.0000
  H   H37       1.0  0.55818  0.16866  0.20631  1.0000
  H   H38       1.0  0.59340  0.17304  0.17734  1.0000
  C   C60       1.0  0.61858  0.16563  0.28627  1.0000
  H   H39       1.0  0.62362  0.16808  0.22289  1.0000
  C   C61       1.0  0.83056  0.43621  0.30544  1.0000
  C   C62       1.0  0.82567  0.42003  0.23915  1.0000
  C   C63       1.0  0.82813  0.40173  0.25631  1.0000
  H   H40       1.0  0.82448  0.39046  0.20626  1.0000
  H   H41       1.0  0.82011  0.42131  0.17732  1.0000
  C   C64       1.0  0.82752  0.45390  0.28627  1.0000
  H   H42       1.0  0.82509  0.45650  0.22289  1.0000
  C   C65       1.0  0.55687  0.39523  0.30548  1.0000
  C   C66       1.0  0.57304  0.40652  0.23916  1.0000
  C   C67       1.0  0.59134  0.42728  0.25628  1.0000
  H   H43       1.0  0.60260  0.43489  0.20621  1.0000
  H   H44       1.0  0.57176  0.39967  0.17734  1.0000
  C   C68       1.0  0.53918  0.37450  0.28635  1.0000
  H   H45       1.0  0.53658  0.36946  0.22298  1.0000
  C   C69       1.0  0.93643  0.03709  0.39320  1.0000
  C   C70       1.0  0.92495  0.04873  0.39192  1.0000
  C   C71       1.0  0.09299  0.05888  0.38273  1.0000
  C   C72       1.0  0.11612  0.07032  0.38134  1.0000
  C   C73       1.0  0.12775  0.06243  0.33063  1.0000
  C   C74       1.0  0.95622  0.90017  0.39249  1.0000
  C   C75       1.0  0.94458  0.87705  0.39116  1.0000
  H   H46       1.0  0.91219  0.04420  0.43552  1.0000
  H   H47       1.0  0.08509  0.06512  0.41977  1.0000
  H   H48       1.0  0.12438  0.08467  0.41644  1.0000
  H   H49       1.0  0.96886  0.90809  0.43718  1.0000
  H   H50       1.0  0.94924  0.86882  0.43417  1.0000
  H   H51       1.0  0.93185  0.02458  0.43846  1.0000
  N   N6        1.0  0.14958  0.07300  0.32374  1.0000
  C   C76       1.0  0.33913  0.16789  0.34642  1.0000
  C   C77       1.0  0.47435  0.29681  0.34376  1.0000
  C   C78       1.0  0.47779  0.18085  0.34828  1.0000
  C   C79       1.0  0.50960  0.34093  0.34168  1.0000
  C   C80       1.0  0.49312  0.33374  0.40795  1.0000
  C   C81       1.0  0.47558  0.31191  0.40897  1.0000
  C   C82       1.0  0.30429  0.13582  0.39004  1.0000
  C   C83       1.0  0.32742  0.14736  0.38982  1.0000
  C   C84       1.0  0.51356  0.17286  0.34115  1.0000
  C   C85       1.0  0.51715  0.19441  0.33404  1.0000
  C   C86       1.0  0.49949  0.19843  0.33804  1.0000
  H   H52       1.0  0.49391  0.34434  0.45670  1.0000
  H   H53       1.0  0.46406  0.30712  0.45876  1.0000
  H   H54       1.0  0.33554  0.14067  0.42225  1.0000
  H   H55       1.0  0.29616  0.12105  0.42253  1.0000
  H   H56       1.0  0.53272  0.20741  0.32585  1.0000
  H   H57       1.0  0.50271  0.21431  0.33268  1.0000
  C   C87       1.0  0.43696  0.20089  0.35143  1.0000
  C   C88       1.0  0.41378  0.18890  0.35037  1.0000
  C   C89       1.0  0.40168  0.20003  0.34940  1.0000
  C   C90       1.0  0.41292  0.22326  0.34942  1.0000
  C   C91       1.0  0.43611  0.23532  0.35051  1.0000
  C   C92       1.0  0.44801  0.22406  0.35144  1.0000
  H   H58       1.0  0.40424  0.23144  0.34844  1.0000
  H   H59       1.0  0.40571  0.17205  0.35012  1.0000
  H   H60       1.0  0.46491  0.23282  0.35182  1.0000
  C   C93       1.0  0.46164  0.18493  0.35053  1.0000
  C   C94       1.0  0.44862  0.19115  0.35144  1.0000
  C   C95       1.0  0.45915  0.27616  0.34749  1.0000
  C   C96       1.0  0.44697  0.25675  0.34954  1.0000
  C   C97       1.0  0.38022  0.18891  0.34822  1.0000
  C   C98       1.0  0.36059  0.17881  0.34725  1.0000
  N   N7        1.0  0.52645  0.36136  0.34726  1.0000
  N   N8        1.0  0.53107  0.17048  0.33379  1.0000
  C   C99       1.0  0.82525  0.17222  0.34530  1.0000
  C   C100      1.0  0.69630  0.17851  0.34344  1.0000
  C   C101      1.0  0.81228  0.29789  0.34803  1.0000
  C   C102      1.0  0.65217  0.16963  0.34150  1.0000
  C   C103      1.0  0.65937  0.16034  0.40771  1.0000
  C   C104      1.0  0.68120  0.16462  0.40866  1.0000
  C   C105      1.0  0.85748  0.16962  0.38794  1.0000
  C   C106      1.0  0.84591  0.18118  0.38781  1.0000
  C   C107      1.0  0.82027  0.34164  0.34103  1.0000
  C   C108      1.0  0.79872  0.32369  0.33391  1.0000
  C   C109      1.0  0.79469  0.30200  0.33785  1.0000
  H   H61       1.0  0.64878  0.15051  0.45647  1.0000
  H   H62       1.0  0.68600  0.15788  0.45840  1.0000
  H   H63       1.0  0.85267  0.19607  0.41961  1.0000
  H   H64       1.0  0.87234  0.17637  0.41978  1.0000
  H   H65       1.0  0.78572  0.32626  0.32575  1.0000
  H   H66       1.0  0.77881  0.28935  0.33249  1.0000
  C   C110      1.0  0.79223  0.23702  0.35094  1.0000
  C   C111      1.0  0.80421  0.22582  0.34971  1.0000
  C   C112      1.0  0.79308  0.20259  0.34863  1.0000
  C   C113      1.0  0.76985  0.19061  0.34873  1.0000
  C   C114      1.0  0.75779  0.20174  0.34999  1.0000
  C   C115      1.0  0.76906  0.22491  0.35101  1.0000
  H   H67       1.0  0.76167  0.17375  0.34768  1.0000
  H   H68       1.0  0.82107  0.23461  0.34939  1.0000
  H   H69       1.0  0.76030  0.23304  0.35152  1.0000
  C   C116      1.0  0.80819  0.27764  0.35020  1.0000
  C   C117      1.0  0.80197  0.25842  0.35103  1.0000
  C   C118      1.0  0.71695  0.18395  0.34711  1.0000
  C   C119      1.0  0.73636  0.19117  0.34909  1.0000
  C   C120      1.0  0.80420  0.19226  0.34730  1.0000
  C   C121      1.0  0.81432  0.18274  0.34622  1.0000
  N   N9        1.0  0.63174  0.16604  0.34714  1.0000
  N   N10       1.0  0.82266  0.36154  0.33370  1.0000
  C   C122      1.0  0.82086  0.65391  0.34541  1.0000
  C   C123      1.0  0.81460  0.51870  0.34350  1.0000
  C   C124      1.0  0.69519  0.51527  0.34800  1.0000
  C   C125      1.0  0.82350  0.48346  0.34154  1.0000
  C   C126      1.0  0.83278  0.49995  0.40778  1.0000
  C   C127      1.0  0.82849  0.51749  0.40873  1.0000
  C   C128      1.0  0.82349  0.68874  0.38812  1.0000
  C   C129      1.0  0.81192  0.66561  0.38798  1.0000
  C   C130      1.0  0.65143  0.47951  0.34094  1.0000
  C   C131      1.0  0.66939  0.47592  0.33375  1.0000
  C   C132      1.0  0.69107  0.49357  0.33772  1.0000
  H   H70       1.0  0.84260  0.49918  0.45654  1.0000
  H   H71       1.0  0.83522  0.52902  0.45849  1.0000
  H   H72       1.0  0.79703  0.65748  0.41983  1.0000
  H   H73       1.0  0.81675  0.69686  0.42000  1.0000
  H   H74       1.0  0.66681  0.46035  0.32551  1.0000
  H   H75       1.0  0.70373  0.49035  0.33229  1.0000
  C   C133      1.0  0.75606  0.55609  0.35099  1.0000
  C   C134      1.0  0.76726  0.57927  0.34978  1.0000
  C   C135      1.0  0.79048  0.59136  0.34872  1.0000
  C   C136      1.0  0.80247  0.58012  0.34882  1.0000
  C   C137      1.0  0.79135  0.55694  0.35006  1.0000
  C   C138      1.0  0.76818  0.54504  0.35107  1.0000
  H   H76       1.0  0.81933  0.58881  0.34779  1.0000
  H   H77       1.0  0.75846  0.58734  0.34946  1.0000
  H   H78       1.0  0.76005  0.52814  0.35157  1.0000
  C   C139      1.0  0.71543  0.53142  0.35021  1.0000
  C   C140      1.0  0.73466  0.54443  0.35107  1.0000
  C   C141      1.0  0.80915  0.53390  0.34717  1.0000
  C   C142      1.0  0.80192  0.54608  0.34917  1.0000
  C   C143      1.0  0.80082  0.61282  0.34740  1.0000
  C   C144      1.0  0.81034  0.63246  0.34632  1.0000
  N   N11       1.0  0.82709  0.46662  0.34717  1.0000
  N   N12       1.0  0.63154  0.46201  0.33357  1.0000
  C   C145      1.0  0.18705  0.09569  0.35798  1.0000
  C   C146      1.0  0.20285  0.10396  0.42741  1.0000
  C   C147      1.0  0.22548  0.11550  0.40838  1.0000
  H   H79       1.0  0.23626  0.12174  0.46082  1.0000
  H   H80       1.0  0.19803  0.10206  0.49304  1.0000
  C   C148      1.0  0.16477  0.08564  0.37876  1.0000
  H   H81       1.0  0.16046  0.08828  0.43891  1.0000
  C   C149      1.0  0.89822  0.09307  0.35903  1.0000
  C   C150      1.0  0.89068  0.10143  0.42808  1.0000
  C   C151      1.0  0.87879  0.11214  0.40870  1.0000
  H   H82       1.0  0.87313  0.11733  0.46108  1.0000
  H   H83       1.0  0.89340  0.09942  0.49387  1.0000
  C   C152      1.0  0.90880  0.08137  0.38067  1.0000
  H   H84       1.0  0.90787  0.07619  0.44335  1.0000
  C   C153      1.0  0.90012  0.80600  0.35894  1.0000
  C   C154      1.0  0.89182  0.79011  0.42804  1.0000
  C   C155      1.0  0.88107  0.76750  0.40867  1.0000
  H   H85       1.0  0.87593  0.75667  0.46107  1.0000
  H   H86       1.0  0.89391  0.79485  0.49381  1.0000
  C   C156      1.0  0.91188  0.82828  0.38051  1.0000
  H   H87       1.0  0.91720  0.83253  0.44302  1.0000
  C   C157      1.0  0.55558  0.15760  0.34067  1.0000
  C   C158      1.0  0.56669  0.15255  0.40749  1.0000
  C   C159      1.0  0.58749  0.15496  0.38956  1.0000
  H   H88       1.0  0.59507  0.15113  0.43911  1.0000
  O   O4        1.0  0.55767  0.14510  0.48978  1.0000
  H   H89       1.0  0.56166  0.15820  0.52623  1.0000
  C   C160      1.0  0.53511  0.15525  0.35691  1.0000
  H   H90       1.0  0.52391  0.14208  0.38959  1.0000
  C   C161      1.0  0.83554  0.39892  0.34063  1.0000
  C   C162      1.0  0.84059  0.41507  0.40747  1.0000
  C   C163      1.0  0.83819  0.43346  0.38955  1.0000
  H   H91       1.0  0.84201  0.44486  0.43911  1.0000
  O   O5        1.0  0.84804  0.41350  0.48974  1.0000
  H   H92       1.0  0.83493  0.40438  0.52620  1.0000
  C   C164      1.0  0.83789  0.38080  0.35684  1.0000
  H   H93       1.0  0.85106  0.38276  0.38952  1.0000
  C   C165      1.0  0.59415  0.43751  0.34058  1.0000
  C   C166      1.0  0.57801  0.42641  0.40745  1.0000
  C   C167      1.0  0.55962  0.40561  0.38957  1.0000
  H   H94       1.0  0.54822  0.39804  0.43915  1.0000
  O   O6        1.0  0.57958  0.43544  0.48971  1.0000
  H   H95       1.0  0.58871  0.43146  0.52616  1.0000
  C   C168      1.0  0.61227  0.45798  0.35674  1.0000
  H   H96       1.0  0.61032  0.46918  0.38958  1.0000
