data_image0
_chemical_formula_structural       C14H12C7NC12H12C2NC3NC3NC15H14C2HC2H2NO2C2HC2H2NO2C2HC2H2NO2C2HC2H2NO2C2HC2H2NO2C2HC2H2NO2C3NC2NC5NC3NC17H14CNC2NC4NC18H14C2NC19H12C8H3NO2C8H3NO2C8H3NO2C8H3NO2C8H3NO2C8H3NO2
_chemical_formula_sum              "C204 H114 N24 O24"
_cell_length_a       50.3043
_cell_length_b       50.3044
_cell_length_c       14.9727
_cell_angle_alpha    90.031
_cell_angle_beta     89.969
_cell_angle_gamma    120

_space_group_name_H-M_alt    "P 1"
_space_group_IT_number       1

loop_
  _space_group_symop_operation_xyz
  'x, y, z'

loop_
  _atom_site_type_symbol
  _atom_site_label
  _atom_site_symmetry_multiplicity
  _atom_site_fract_x
  _atom_site_fract_y
  _atom_site_fract_z
  _atom_site_occupancy
  C   C1        1.0  0.95951  0.54076  0.34683  1.0000
  C   C2        1.0  0.08403  0.53196  0.34069  1.0000
  C   C3        1.0  0.09378  0.56372  0.34705  1.0000
  C   C4        1.0  0.12385  0.61487  0.35768  1.0000
  C   C5        1.0  0.12401  0.58754  0.35788  1.0000
  C   C6        1.0  0.14554  0.70554  0.25613  1.0000
  C   C7        1.0  0.12040  0.67543  0.25768  1.0000
  C   C8        1.0  0.10730  0.52362  0.33833  1.0000
  C   C9        1.0  0.15100  0.52462  0.26305  1.0000
  C   C10       1.0  0.12625  0.53019  0.26241  1.0000
  C   C11       1.0  0.93298  0.42900  0.25790  1.0000
  C   C12       1.0  0.90790  0.39886  0.25637  1.0000
  C   C13       1.0  0.92707  0.57427  0.26217  1.0000
  C   C14       1.0  0.90226  0.57976  0.26279  1.0000
  H   H1        1.0  0.88823  0.57322  0.20804  1.0000
  H   H2        1.0  0.93054  0.56434  0.20700  1.0000
  H   H3        1.0  0.99716  0.63727  0.31355  1.0000
  H   H4        1.0  0.94051  0.44091  0.19918  1.0000
  H   H5        1.0  0.89821  0.38949  0.19598  1.0000
  H   H6        1.0  0.05615  0.46725  0.31300  1.0000
  H   H7        1.0  0.14299  0.63605  0.36396  1.0000
  H   H8        1.0  0.14328  0.58576  0.36445  1.0000
  H   H9        1.0  0.12284  0.54014  0.20726  1.0000
  H   H10       1.0  0.16504  0.53109  0.20827  1.0000
  H   H11       1.0  0.11285  0.66351  0.19897  1.0000
  H   H12       1.0  0.15529  0.71485  0.19574  1.0000
  C   C15       1.0  0.45112  0.46006  0.32074  1.0000
  C   C16       1.0  0.45621  0.50691  0.33479  1.0000
  C   C17       1.0  0.53767  0.49569  0.34664  1.0000
  C   C18       1.0  0.59619  0.59577  0.33515  1.0000
  C   C19       1.0  0.60130  0.64264  0.32133  1.0000
  C   C20       1.0  0.54648  0.62901  0.34038  1.0000
  C   C21       1.0  0.51471  0.60699  0.34664  1.0000
  N   N1        1.0  0.50124  0.57610  0.34097  1.0000
  C   C22       1.0  0.46357  0.58591  0.35749  1.0000
  C   C23       1.0  0.49090  0.61340  0.35760  1.0000
  C   C24       1.0  0.37289  0.51690  0.25591  1.0000
  C   C25       1.0  0.40299  0.52184  0.25738  1.0000
  C   C26       1.0  0.55481  0.66061  0.33802  1.0000
  C   C27       1.0  0.56644  0.72241  0.33866  1.0000
  C   C28       1.0  0.55386  0.70331  0.26267  1.0000
  C   C29       1.0  0.54824  0.67297  0.26210  1.0000
  C   C30       1.0  0.64945  0.58088  0.25750  1.0000
  C   C31       1.0  0.67960  0.58595  0.25603  1.0000
  C   C32       1.0  0.50420  0.42972  0.26188  1.0000
  C   C33       1.0  0.49871  0.39943  0.26252  1.0000
  H   H13       1.0  0.50526  0.39192  0.20778  1.0000
  H   H14       1.0  0.51414  0.44311  0.20672  1.0000
  H   H15       1.0  0.44120  0.43684  0.31252  1.0000
  H   H16       1.0  0.63756  0.57649  0.19876  1.0000
  H   H17       1.0  0.68898  0.58560  0.19566  1.0000
  H   H18       1.0  0.61121  0.66584  0.31300  1.0000
  H   H19       1.0  0.44239  0.58387  0.36390  1.0000
  H   H20       1.0  0.49268  0.63445  0.36434  1.0000
  H   H21       1.0  0.53829  0.65959  0.20694  1.0000
  H   H22       1.0  0.54734  0.71083  0.20793  1.0000
  H   H23       1.0  0.41491  0.52624  0.19867  1.0000
  H   H24       1.0  0.36356  0.51732  0.19554  1.0000
  C   C34       1.0  0.61842  0.06799  0.32129  1.0000
  C   C35       1.0  0.57154  0.02623  0.33494  1.0000
  N   N2        1.0  0.56958  0.05207  0.34186  1.0000
  C   C36       1.0  0.60479  0.10919  0.34018  1.0000
  C   C37       1.0  0.58277  0.11894  0.34646  1.0000
  C   C38       1.0  0.48267  0.07737  0.33515  1.0000
  N   N3        1.0  0.48463  0.05154  0.34210  1.0000
  C   C39       1.0  0.43579  0.03561  0.32163  1.0000
  C   C40       1.0  0.44943  0.99441  0.34019  1.0000
  C   C41       1.0  0.47144  0.98466  0.34628  1.0000
  N   N4        1.0  0.50234  0.00208  0.34075  1.0000
  C   C42       1.0  0.49251  0.95459  0.35688  1.0000
  C   C43       1.0  0.46503  0.95443  0.35701  1.0000
  C   C44       1.0  0.55641  0.97193  0.33890  1.0000
  C   C45       1.0  0.56634  0.92083  0.33552  1.0000
  C   C46       1.0  0.56154  0.93291  0.25558  1.0000
  C   C47       1.0  0.55658  0.95805  0.25711  1.0000
  C   C48       1.0  0.41782  0.97115  0.33790  1.0000
  C   C49       1.0  0.35603  0.92098  0.33871  1.0000
  C   C50       1.0  0.37510  0.92746  0.26267  1.0000
  C   C51       1.0  0.40543  0.95222  0.26194  1.0000
  C   C52       1.0  0.49758  0.14550  0.25734  1.0000
  C   C53       1.0  0.49250  0.17057  0.25583  1.0000
  C   C54       1.0  0.64877  0.15138  0.26186  1.0000
  C   C55       1.0  0.69811  0.18276  0.33868  1.0000
  C   C56       1.0  0.67906  0.17620  0.26260  1.0000
  H   H25       1.0  0.68660  0.19022  0.20781  1.0000
  H   H26       1.0  0.63540  0.14792  0.20666  1.0000
  H   H27       1.0  0.64163  0.08129  0.31296  1.0000
  H   H28       1.0  0.55090  0.05198  0.35637  1.0000
  H   H29       1.0  0.50333  0.05161  0.35608  1.0000
  H   H30       1.0  0.50194  0.13795  0.19861  1.0000
  H   H31       1.0  0.49285  0.18027  0.19544  1.0000
  H   H32       1.0  0.41258  0.02232  0.31333  1.0000
  H   H33       1.0  0.49456  0.93545  0.36318  1.0000
  H   H34       1.0  0.44397  0.93516  0.36366  1.0000
  H   H35       1.0  0.41880  0.95562  0.20677  1.0000
  H   H36       1.0  0.36755  0.91342  0.20791  1.0000
  H   H37       1.0  0.55222  0.96559  0.19839  1.0000
  H   H38       1.0  0.56114  0.92317  0.19520  1.0000
  C   C57       1.0  0.29261  0.52933  0.28465  1.0000
  C   C58       1.0  0.32127  0.53040  0.28419  1.0000
  H   H39       1.0  0.33889  0.54735  0.24814  1.0000
  C   C59       1.0  0.19305  0.49799  0.26563  1.0000
  C   C60       1.0  0.22034  0.49673  0.26572  1.0000
  H   H40       1.0  0.17995  0.49143  0.20891  1.0000
  H   H41       1.0  0.22642  0.48970  0.20893  1.0000
  N   N5        1.0  0.28822  0.55099  0.23606  1.0000
  O   O1        1.0  0.29230  0.54951  0.15381  1.0000
  O   O2        1.0  0.30601  0.57791  0.26250  1.0000
  C   C61       1.0  0.54913  0.84021  0.28425  1.0000
  C   C62       1.0  0.54806  0.86780  0.28379  1.0000
  H   H42       1.0  0.53110  0.86845  0.24773  1.0000
  C   C63       1.0  0.58046  0.77198  0.26527  1.0000
  C   C64       1.0  0.58172  0.80053  0.26536  1.0000
  H   H43       1.0  0.58703  0.76542  0.20857  1.0000
  H   H44       1.0  0.58876  0.81362  0.20857  1.0000
  N   N6        1.0  0.52747  0.81414  0.23566  1.0000
  O   O3        1.0  0.52895  0.81967  0.15341  1.0000
  O   O4        1.0  0.50055  0.80502  0.26207  1.0000
  C   C65       1.0  0.23825  0.78583  0.28469  1.0000
  C   C66       1.0  0.21065  0.75715  0.28430  1.0000
  H   H45       1.0  0.21001  0.73954  0.24827  1.0000
  C   C67       1.0  0.30644  0.88539  0.26546  1.0000
  C   C68       1.0  0.27789  0.85809  0.26564  1.0000
  H   H46       1.0  0.31297  0.89848  0.20874  1.0000
  H   H47       1.0  0.26477  0.85200  0.20889  1.0000
  N   N7        1.0  0.26431  0.79021  0.23608  1.0000
  O   O5        1.0  0.25876  0.78611  0.15385  1.0000
  O   O6        1.0  0.27344  0.77243  0.26255  1.0000
  C   C69       1.0  0.76023  0.57411  0.28464  1.0000
  C   C70       1.0  0.73147  0.57283  0.28422  1.0000
  H   H48       1.0  0.71392  0.55582  0.24811  1.0000
  C   C71       1.0  0.85992  0.60604  0.26564  1.0000
  C   C72       1.0  0.83253  0.60711  0.26578  1.0000
  H   H49       1.0  0.87305  0.61270  0.20895  1.0000
  H   H50       1.0  0.82640  0.61410  0.20904  1.0000
  N   N8        1.0  0.76480  0.55256  0.23594  1.0000
  O   O7        1.0  0.76072  0.55403  0.15371  1.0000
  O   O8        1.0  0.74713  0.52561  0.26228  1.0000
  C   C73       1.0  0.50434  0.26306  0.28433  1.0000
  C   C74       1.0  0.50561  0.23557  0.28393  1.0000
  H   H51       1.0  0.52263  0.23502  0.24783  1.0000
  C   C75       1.0  0.47240  0.33080  0.26530  1.0000
  C   C76       1.0  0.47134  0.30235  0.26544  1.0000
  H   H52       1.0  0.46576  0.33726  0.20859  1.0000
  H   H53       1.0  0.46436  0.28922  0.20869  1.0000
  N   N9        1.0  0.52588  0.28915  0.23563  1.0000
  O   O9        1.0  0.52442  0.28358  0.15340  1.0000
  O   O10       1.0  0.55283  0.29845  0.26197  1.0000
  C   C77       1.0  0.81541  0.31822  0.28479  1.0000
  C   C78       1.0  0.84290  0.34698  0.28443  1.0000
  H   H54       1.0  0.84345  0.36453  0.24836  1.0000
  C   C79       1.0  0.74768  0.21853  0.26556  1.0000
  C   C80       1.0  0.77614  0.24592  0.26578  1.0000
  H   H55       1.0  0.74125  0.20541  0.20885  1.0000
  H   H56       1.0  0.78929  0.25206  0.20906  1.0000
  N   N10       1.0  0.78932  0.31365  0.23608  1.0000
  O   O11       1.0  0.79490  0.31776  0.15386  1.0000
  O   O12       1.0  0.78002  0.33131  0.26245  1.0000
  C   C81       1.0  0.01045  0.62737  0.32195  1.0000
  C   C82       1.0  0.04215  0.64330  0.32260  1.0000
  C   C83       1.0  0.05221  0.62225  0.33554  1.0000
  N   N11       1.0  0.02638  0.59446  0.34253  1.0000
  C   C84       1.0  0.00047  0.59627  0.33513  1.0000
  C   C85       1.0  0.96926  0.57253  0.34057  1.0000
  N   N12       1.0  0.97693  0.52729  0.34133  1.0000
  C   C86       1.0  0.95980  0.49640  0.34759  1.0000
  C   C87       1.0  0.92944  0.48962  0.35768  1.0000
  C   C88       1.0  0.92928  0.51695  0.35770  1.0000
  C   C89       1.0  0.96989  0.47465  0.34202  1.0000
  C   C90       1.0  0.00109  0.48225  0.33540  1.0000
  N   N13       1.0  0.02691  0.51006  0.34221  1.0000
  C   C91       1.0  0.05282  0.50824  0.33488  1.0000
  C   C92       1.0  0.04285  0.47716  0.32129  1.0000
  C   C93       1.0  0.01115  0.46121  0.32207  1.0000
  N   N14       1.0  0.07636  0.57720  0.34139  1.0000
  C   C94       1.0  0.09349  0.60809  0.34763  1.0000
  C   C95       1.0  0.08342  0.62984  0.34183  1.0000
  C   C96       1.0  0.10652  0.66142  0.33947  1.0000
  C   C97       1.0  0.11788  0.67828  0.41939  1.0000
  C   C98       1.0  0.14303  0.70841  0.41756  1.0000
  C   C99       1.0  0.15763  0.72244  0.33607  1.0000
  C   C100      1.0  0.11314  0.51052  0.41383  1.0000
  C   C101      1.0  0.13776  0.50471  0.41389  1.0000
  C   C102      1.0  0.15747  0.51201  0.33902  1.0000
  C   C103      1.0  0.94680  0.44307  0.33970  1.0000
  C   C104      1.0  0.89585  0.38196  0.33631  1.0000
  C   C105      1.0  0.91036  0.39606  0.41781  1.0000
  C   C106      1.0  0.93544  0.42623  0.41964  1.0000
  C   C107      1.0  0.94598  0.58085  0.33815  1.0000
  C   C108      1.0  0.94004  0.59388  0.41371  1.0000
  C   C109      1.0  0.91535  0.59959  0.41378  1.0000
  C   C110      1.0  0.89567  0.59226  0.33887  1.0000
  H   H57       1.0  0.91169  0.60890  0.46999  1.0000
  H   H58       1.0  0.95320  0.59861  0.47001  1.0000
  H   H59       1.0  0.05541  0.66654  0.31487  1.0000
  H   H60       1.0  0.02646  0.57583  0.35654  1.0000
  H   H61       1.0  0.02684  0.52861  0.35752  1.0000
  H   H62       1.0  0.91001  0.51873  0.36432  1.0000
  H   H63       1.0  0.91031  0.46845  0.36408  1.0000
  H   H64       1.0  0.94465  0.43621  0.47991  1.0000
  H   H65       1.0  0.90190  0.38501  0.47731  1.0000
  H   H66       1.0  0.99790  0.43797  0.31439  1.0000
  H   H67       1.0  0.09993  0.50577  0.47006  1.0000
  H   H68       1.0  0.14133  0.49531  0.47001  1.0000
  H   H69       1.0  0.15155  0.71945  0.47706  1.0000
  H   H70       1.0  0.10867  0.66833  0.47969  1.0000
  C   C111      1.0  0.43517  0.47581  0.32144  1.0000
  N   N15       1.0  0.48401  0.50889  0.34166  1.0000
  C   C112      1.0  0.48219  0.48116  0.33432  1.0000
  C   C113      1.0  0.50591  0.47367  0.34023  1.0000
  N   N16       1.0  0.55115  0.52658  0.34095  1.0000
  C   C114      1.0  0.58204  0.54034  0.34722  1.0000
  C   C115      1.0  0.58881  0.51676  0.35744  1.0000
  C   C116      1.0  0.56148  0.48927  0.35756  1.0000
  C   C117      1.0  0.60379  0.57217  0.34154  1.0000
  N   N17       1.0  0.56839  0.59380  0.34204  1.0000
  C   C118      1.0  0.57021  0.62153  0.33470  1.0000
  C   C119      1.0  0.61724  0.62688  0.32199  1.0000
  C   C120      1.0  0.47035  0.56233  0.34727  1.0000
  C   C121      1.0  0.44860  0.53051  0.34148  1.0000
  C   C122      1.0  0.41702  0.52202  0.33916  1.0000
  C   C123      1.0  0.40018  0.51655  0.41910  1.0000
  C   C124      1.0  0.37004  0.51156  0.41733  1.0000
  C   C125      1.0  0.35600  0.51209  0.33587  1.0000
  C   C126      1.0  0.56790  0.67958  0.41353  1.0000
  C   C127      1.0  0.57373  0.71002  0.41356  1.0000
  C   C128      1.0  0.63537  0.58065  0.33926  1.0000
  C   C129      1.0  0.69648  0.59082  0.33601  1.0000
  C   C130      1.0  0.68238  0.59130  0.41747  1.0000
  C   C131      1.0  0.65219  0.58618  0.41923  1.0000
  C   C132      1.0  0.49758  0.44207  0.33780  1.0000
  C   C133      1.0  0.48453  0.42312  0.41335  1.0000
  C   C134      1.0  0.47881  0.39272  0.41342  1.0000
  C   C135      1.0  0.48617  0.38035  0.33855  1.0000
  H   H71       1.0  0.46947  0.37976  0.46960  1.0000
  H   H72       1.0  0.47976  0.43156  0.46959  1.0000
  H   H73       1.0  0.41193  0.46582  0.31385  1.0000
  H   H74       1.0  0.50255  0.52751  0.35701  1.0000
  H   H75       1.0  0.54981  0.57513  0.35664  1.0000
  H   H76       1.0  0.55970  0.46822  0.36426  1.0000
  H   H77       1.0  0.60999  0.51881  0.36384  1.0000
  H   H78       1.0  0.64220  0.58541  0.47949  1.0000
  H   H79       1.0  0.69340  0.59386  0.47700  1.0000
  H   H80       1.0  0.64048  0.63686  0.31432  1.0000
  H   H81       1.0  0.57266  0.67114  0.46976  1.0000
  H   H82       1.0  0.58311  0.72300  0.46969  1.0000
  H   H83       1.0  0.35901  0.50906  0.47685  1.0000
  H   H84       1.0  0.41014  0.51732  0.47938  1.0000
  C   C136      1.0  0.60266  0.03629  0.32191  1.0000
  C   C137      1.0  0.59731  0.07798  0.33454  1.0000
  N   N18       1.0  0.55188  0.10152  0.34091  1.0000
  C   C138      1.0  0.53812  0.11866  0.34712  1.0000
  C   C139      1.0  0.56170  0.14902  0.35706  1.0000
  C   C140      1.0  0.58919  0.14917  0.35718  1.0000
  C   C141      1.0  0.50629  0.10858  0.34146  1.0000
  C   C142      1.0  0.45691  0.02563  0.33474  1.0000
  C   C143      1.0  0.45156  0.06731  0.32229  1.0000
  C   C144      1.0  0.51610  0.98495  0.34687  1.0000
  C   C145      1.0  0.54793  0.99503  0.34127  1.0000
  C   C146      1.0  0.56188  0.96057  0.41882  1.0000
  C   C147      1.0  0.56686  0.93542  0.41701  1.0000
  C   C148      1.0  0.39889  0.96529  0.41349  1.0000
  C   C149      1.0  0.36845  0.94068  0.41359  1.0000
  C   C150      1.0  0.49780  0.13167  0.33912  1.0000
  C   C151      1.0  0.48764  0.18262  0.33578  1.0000
  C   C152      1.0  0.48718  0.16809  0.41727  1.0000
  C   C153      1.0  0.49230  0.14303  0.41907  1.0000
  C   C154      1.0  0.63639  0.13246  0.33781  1.0000
  C   C155      1.0  0.65532  0.13838  0.41341  1.0000
  C   C156      1.0  0.68571  0.16307  0.41357  1.0000
  H   H85       1.0  0.69865  0.16671  0.46979  1.0000
  H   H86       1.0  0.64685  0.12521  0.46970  1.0000
  H   H87       1.0  0.61264  0.02304  0.31424  1.0000
  H   H88       1.0  0.61024  0.16845  0.36374  1.0000
  H   H89       1.0  0.55966  0.16816  0.36333  1.0000
  H   H90       1.0  0.49306  0.13383  0.47935  1.0000
  H   H91       1.0  0.48463  0.17658  0.47679  1.0000
  H   H92       1.0  0.44157  0.08057  0.31465  1.0000
  H   H93       1.0  0.40735  0.97849  0.46972  1.0000
  H   H94       1.0  0.35550  0.93711  0.46978  1.0000
  H   H95       1.0  0.56938  0.92692  0.47651  1.0000
  H   H96       1.0  0.56112  0.96979  0.47911  1.0000
  C   C157      1.0  0.32645  0.50967  0.33490  1.0000
  C   C158      1.0  0.30185  0.48745  0.38675  1.0000
  C   C159      1.0  0.27318  0.48597  0.38773  1.0000
  C   C160      1.0  0.26823  0.50675  0.33692  1.0000
  C   C161      1.0  0.23943  0.50563  0.34192  1.0000
  C   C162      1.0  0.23051  0.51546  0.41936  1.0000
  C   C163      1.0  0.20297  0.51667  0.41794  1.0000
  C   C164      1.0  0.18396  0.50838  0.34129  1.0000
  H   H97       1.0  0.19759  0.52510  0.47304  1.0000
  H   H98       1.0  0.30453  0.47190  0.42406  1.0000
  H   H99       1.0  0.25592  0.46960  0.42622  1.0000
  N   N19       1.0  0.24981  0.52497  0.49549  1.0000
  O   O13       1.0  0.23615  0.50881  0.56243  1.0000
  O   O14       1.0  0.25927  0.55264  0.51409  1.0000
  C   C165      1.0  0.56878  0.89372  0.33450  1.0000
  C   C166      1.0  0.59100  0.89136  0.38639  1.0000
  C   C167      1.0  0.59248  0.86417  0.38736  1.0000
  C   C168      1.0  0.57170  0.83842  0.33654  1.0000
  C   C169      1.0  0.57282  0.81075  0.34154  1.0000
  C   C170      1.0  0.56297  0.79201  0.41898  1.0000
  C   C171      1.0  0.56176  0.76326  0.41757  1.0000
  C   C172      1.0  0.57006  0.75252  0.34092  1.0000
  H   H100      1.0  0.55333  0.74948  0.47267  1.0000
  H   H101      1.0  0.60654  0.90959  0.42372  1.0000
  H   H102      1.0  0.60884  0.86329  0.42587  1.0000
  N   N20       1.0  0.55346  0.80183  0.49510  1.0000
  O   O15       1.0  0.56962  0.80435  0.56205  1.0000
  O   O16       1.0  0.52579  0.78362  0.51368  1.0000
  C   C173      1.0  0.18474  0.75199  0.33502  1.0000
  C   C174      1.0  0.18710  0.77659  0.38684  1.0000
  C   C175      1.0  0.21429  0.80527  0.38775  1.0000
  C   C176      1.0  0.24004  0.81021  0.33692  1.0000
  C   C177      1.0  0.26770  0.83901  0.34184  1.0000
  C   C178      1.0  0.28646  0.84794  0.41924  1.0000
  C   C179      1.0  0.31521  0.87548  0.41773  1.0000
  C   C180      1.0  0.32592  0.89448  0.34105  1.0000
  H   H103      1.0  0.32901  0.88086  0.47279  1.0000
  H   H104      1.0  0.16887  0.77392  0.42417  1.0000
  H   H105      1.0  0.21517  0.82253  0.42622  1.0000
  N   N21       1.0  0.27667  0.82865  0.49538  1.0000
  O   O17       1.0  0.27417  0.84231  0.56234  1.0000
  O   O18       1.0  0.29489  0.81920  0.51392  1.0000
  C   C181      1.0  0.72611  0.59344  0.33502  1.0000
  C   C182      1.0  0.75062  0.61575  0.38694  1.0000
  C   C183      1.0  0.77938  0.61742  0.38788  1.0000
  C   C184      1.0  0.78452  0.59676  0.33697  1.0000
  C   C185      1.0  0.81340  0.59809  0.34194  1.0000
  C   C186      1.0  0.82238  0.58830  0.41932  1.0000
  C   C187      1.0  0.85003  0.58729  0.41785  1.0000
  C   C188      1.0  0.86907  0.59571  0.34121  1.0000
  H   H106      1.0  0.85545  0.57890  0.47288  1.0000
  H   H107      1.0  0.74782  0.63122  0.42431  1.0000
  H   H108      1.0  0.79658  0.63385  0.42642  1.0000
  N   N22       1.0  0.80305  0.57867  0.49540  1.0000
  O   O19       1.0  0.81662  0.59483  0.56243  1.0000
  O   O20       1.0  0.79374  0.55102  0.51384  1.0000
  C   C189      1.0  0.48501  0.20963  0.33476  1.0000
  C   C190      1.0  0.46270  0.21184  0.38666  1.0000
  C   C191      1.0  0.46102  0.23893  0.38758  1.0000
  C   C192      1.0  0.48168  0.26471  0.33667  1.0000
  C   C193      1.0  0.48035  0.29227  0.34162  1.0000
  C   C194      1.0  0.49011  0.31105  0.41902  1.0000
  C   C195      1.0  0.49112  0.33970  0.41755  1.0000
  C   C196      1.0  0.48271  0.35030  0.34090  1.0000
  H   H109      1.0  0.49950  0.35353  0.47260  1.0000
  H   H110      1.0  0.44723  0.19358  0.42405  1.0000
  H   H111      1.0  0.44459  0.23970  0.42611  1.0000
  N   N23       1.0  0.49974  0.30138  0.49512  1.0000
  O   O21       1.0  0.48356  0.29878  0.56212  1.0000
  O   O22       1.0  0.52738  0.31972  0.51360  1.0000
  C   C197      1.0  0.86884  0.35233  0.33524  1.0000
  C   C198      1.0  0.86661  0.32781  0.38713  1.0000
  C   C199      1.0  0.83953  0.29905  0.38801  1.0000
  C   C200      1.0  0.81376  0.29392  0.33708  1.0000
  C   C201      1.0  0.78620  0.26503  0.34197  1.0000
  C   C202      1.0  0.76739  0.25603  0.41931  1.0000
  C   C203      1.0  0.73873  0.22838  0.41777  1.0000
  C   C204      1.0  0.72816  0.20936  0.34109  1.0000
  H   H112      1.0  0.72489  0.22295  0.47278  1.0000
  H   H113      1.0  0.88487  0.33061  0.42452  1.0000
  H   H114      1.0  0.83875  0.28185  0.42652  1.0000
  N   N24       1.0  0.77704  0.27534  0.49544  1.0000
  O   O23       1.0  0.77961  0.26176  0.56245  1.0000
  O   O24       1.0  0.75869  0.28465  0.51386  1.0000
