data_image0
_chemical_formula_structural       C14H12C7NC12H12C2NC3NC3NC15H14NC2OCH3NC2OCH3NC2OCH3NC2OCH3NC2OCH3NC2OCH3C3NC2NC5NC3NC17H14CNC2NC4NC18H14C2NC19H12CNCOCH3CNCOCH3CNCOCH3CNCOCH3CNCOCH3CNCOCH3
_chemical_formula_sum              "C168 H114 N24 O12"
_cell_length_a       41.7415
_cell_length_b       41.7415
_cell_length_c       15.0054
_cell_angle_alpha    90.0374
_cell_angle_beta     89.9626
_cell_angle_gamma    120

_space_group_name_H-M_alt    "P 1"
_space_group_IT_number       1

loop_
  _space_group_symop_operation_xyz
  'x, y, z'

loop_
  _atom_site_type_symbol
  _atom_site_label
  _atom_site_symmetry_multiplicity
  _atom_site_fract_x
  _atom_site_fract_y
  _atom_site_fract_z
  _atom_site_occupancy
  C   C1        1.0  0.94932  0.54825  0.33177  1.0000
  C   C2        1.0  0.09914  0.53706  0.32898  1.0000
  C   C3        1.0  0.11116  0.57550  0.33146  1.0000
  C   C4        1.0  0.14789  0.63723  0.33478  1.0000
  C   C5        1.0  0.14790  0.60424  0.33305  1.0000
  C   C6        1.0  0.16477  0.75383  0.27167  1.0000
  C   C7        1.0  0.13525  0.71714  0.26889  1.0000
  C   C8        1.0  0.12703  0.52681  0.32459  1.0000
  C   C9        1.0  0.17914  0.52813  0.24636  1.0000
  C   C10       1.0  0.14897  0.53428  0.24736  1.0000
  C   C11       1.0  0.92540  0.40661  0.26870  1.0000
  C   C12       1.0  0.89602  0.36985  0.27143  1.0000
  C   C13       1.0  0.91155  0.58931  0.24726  1.0000
  C   C14       1.0  0.88126  0.59529  0.24613  1.0000
  H   H1        1.0  0.86456  0.58616  0.19148  1.0000
  H   H2        1.0  0.91617  0.57726  0.19302  1.0000
  H   H3        1.0  0.99532  0.66560  0.32942  1.0000
  H   H4        1.0  0.94042  0.41641  0.21120  1.0000
  H   H5        1.0  0.89111  0.35413  0.21530  1.0000
  H   H6        1.0  0.06516  0.45815  0.32953  1.0000
  H   H7        1.0  0.17127  0.66266  0.33493  1.0000
  H   H8        1.0  0.17129  0.60220  0.33295  1.0000
  H   H9        1.0  0.14443  0.54632  0.19303  1.0000
  H   H10       1.0  0.19583  0.53707  0.19164  1.0000
  H   H11       1.0  0.12024  0.70740  0.21136  1.0000
  H   H12       1.0  0.16983  0.76955  0.21553  1.0000
  C   C15       1.0  0.43829  0.45025  0.33095  1.0000
  C   C16       1.0  0.44492  0.50715  0.33604  1.0000
  C   C17       1.0  0.54329  0.49342  0.33135  1.0000
  C   C18       1.0  0.61440  0.61427  0.33617  1.0000
  C   C19       1.0  0.62103  0.67117  0.33104  1.0000
  C   C20       1.0  0.55448  0.65443  0.32867  1.0000
  C   C21       1.0  0.51604  0.62801  0.33113  1.0000
  N   N1        1.0  0.49964  0.59070  0.33349  1.0000
  C   C22       1.0  0.45431  0.60300  0.33437  1.0000
  C   C23       1.0  0.48729  0.63601  0.33266  1.0000
  C   C24       1.0  0.33768  0.50324  0.27150  1.0000
  C   C25       1.0  0.37436  0.51039  0.26866  1.0000
  C   C26       1.0  0.56473  0.69257  0.32426  1.0000
  C   C27       1.0  0.57887  0.76728  0.32030  1.0000
  C   C28       1.0  0.56348  0.74334  0.24596  1.0000
  C   C29       1.0  0.55725  0.70699  0.24705  1.0000
  C   C30       1.0  0.68493  0.61109  0.26853  1.0000
  C   C31       1.0  0.72168  0.61844  0.27127  1.0000
  C   C32       1.0  0.50223  0.41453  0.24688  1.0000
  C   C33       1.0  0.49626  0.37827  0.24578  1.0000
  H   H13       1.0  0.50539  0.37068  0.19113  1.0000
  H   H14       1.0  0.51428  0.43117  0.19262  1.0000
  H   H15       1.0  0.42594  0.42207  0.32916  1.0000
  H   H16       1.0  0.67515  0.61631  0.21104  1.0000
  H   H17       1.0  0.73742  0.62924  0.21519  1.0000
  H   H18       1.0  0.63339  0.69935  0.32909  1.0000
  H   H19       1.0  0.42887  0.60095  0.33450  1.0000
  H   H20       1.0  0.48933  0.66144  0.33256  1.0000
  H   H21       1.0  0.54523  0.69040  0.19269  1.0000
  H   H22       1.0  0.55448  0.75104  0.19130  1.0000
  H   H23       1.0  0.38409  0.50511  0.21109  1.0000
  H   H24       1.0  0.32193  0.49252  0.21542  1.0000
  C   C34       1.0  0.64129  0.08039  0.33097  1.0000
  C   C35       1.0  0.58439  0.03012  0.33586  1.0000
  N   N2        1.0  0.58197  0.06132  0.33343  1.0000
  C   C36       1.0  0.62454  0.13020  0.32865  1.0000
  C   C37       1.0  0.59812  0.14221  0.33117  1.0000
  C   C38       1.0  0.47726  0.09247  0.33586  1.0000
  N   N3        1.0  0.47968  0.06127  0.33332  1.0000
  C   C39       1.0  0.42037  0.04220  0.33082  1.0000
  C   C40       1.0  0.43711  0.99239  0.32845  1.0000
  C   C41       1.0  0.46353  0.98037  0.33087  1.0000
  N   N4        1.0  0.50084  0.00128  0.33323  1.0000
  C   C42       1.0  0.48854  0.94365  0.33401  1.0000
  C   C43       1.0  0.45553  0.94363  0.33232  1.0000
  C   C44       1.0  0.56596  0.96456  0.34291  1.0000
  C   C45       1.0  0.57960  0.90365  0.34729  1.0000
  C   C46       1.0  0.58830  0.92676  0.27114  1.0000
  C   C47       1.0  0.58115  0.95630  0.26832  1.0000
  C   C48       1.0  0.39897  0.96450  0.32412  1.0000
  C   C49       1.0  0.32427  0.90391  0.32038  1.0000
  C   C50       1.0  0.34819  0.91238  0.24602  1.0000
  C   C51       1.0  0.38451  0.94258  0.24689  1.0000
  C   C52       1.0  0.48045  0.16615  0.26822  1.0000
  C   C53       1.0  0.47307  0.19553  0.27098  1.0000
  C   C54       1.0  0.67705  0.18002  0.24689  1.0000
  C   C55       1.0  0.73723  0.21897  0.32027  1.0000
  C   C56       1.0  0.71329  0.21033  0.24592  1.0000
  H   H25       1.0  0.72095  0.22700  0.19121  1.0000
  H   H26       1.0  0.66043  0.17540  0.19259  1.0000
  H   H27       1.0  0.66947  0.09622  0.32897  1.0000
  H   H28       1.0  0.55897  0.06131  0.33347  1.0000
  H   H29       1.0  0.50268  0.06128  0.33337  1.0000
  H   H30       1.0  0.47521  0.15111  0.21074  1.0000
  H   H31       1.0  0.46229  0.20046  0.21486  1.0000
  H   H32       1.0  0.39219  0.02637  0.32897  1.0000
  H   H33       1.0  0.49060  0.92027  0.33409  1.0000
  H   H34       1.0  0.43010  0.92024  0.33219  1.0000
  H   H35       1.0  0.40109  0.94706  0.19256  1.0000
  H   H36       1.0  0.34045  0.89567  0.19135  1.0000
  H   H37       1.0  0.58645  0.97130  0.21079  1.0000
  H   H38       1.0  0.59905  0.92173  0.21507  1.0000
  N   N5        1.0  0.27224  0.50758  0.26379  1.0000
  C   C57       1.0  0.23973  0.50666  0.24910  1.0000
  C   C58       1.0  0.21990  0.50882  0.32351  1.0000
  O   O1        1.0  0.22922  0.50481  0.16219  1.0000
  C   C59       1.0  0.20606  0.46755  0.13122  1.0000
  H   H39       1.0  0.22034  0.45164  0.13472  1.0000
  H   H40       1.0  0.19915  0.46873  0.06170  1.0000
  H   H41       1.0  0.18026  0.45337  0.16911  1.0000
  N   N6        1.0  0.58398  0.85698  0.26342  1.0000
  C   C60       1.0  0.58490  0.82538  0.24874  1.0000
  C   C61       1.0  0.58274  0.80343  0.32314  1.0000
  O   O2        1.0  0.58675  0.81668  0.16183  1.0000
  C   C62       1.0  0.62402  0.83078  0.13085  1.0000
  H   H42       1.0  0.63991  0.86097  0.13434  1.0000
  H   H43       1.0  0.62284  0.82266  0.06133  1.0000
  H   H44       1.0  0.63821  0.81920  0.16874  1.0000
  N   N7        1.0  0.23455  0.81927  0.26377  1.0000
  C   C63       1.0  0.26614  0.85178  0.24899  1.0000
  C   C64       1.0  0.28813  0.87162  0.32334  1.0000
  O   O3        1.0  0.27480  0.86227  0.16206  1.0000
  C   C65       1.0  0.26068  0.88542  0.13114  1.0000
  H   H45       1.0  0.23049  0.87112  0.13473  1.0000
  H   H46       1.0  0.26877  0.89232  0.06160  1.0000
  H   H47       1.0  0.27229  0.91122  0.16901  1.0000
  N   N8        1.0  0.78748  0.61476  0.26357  1.0000
  C   C66       1.0  0.82016  0.61603  0.24888  1.0000
  C   C67       1.0  0.84010  0.61414  0.32329  1.0000
  O   O4        1.0  0.83072  0.61794  0.16196  1.0000
  C   C68       1.0  0.85359  0.65524  0.13093  1.0000
  H   H48       1.0  0.83904  0.67089  0.13441  1.0000
  H   H49       1.0  0.86056  0.65410  0.06141  1.0000
  H   H50       1.0  0.87936  0.66965  0.16879  1.0000
  N   N9        1.0  0.47677  0.26502  0.26324  1.0000
  C   C69       1.0  0.47551  0.29643  0.24854  1.0000
  C   C70       1.0  0.47740  0.31830  0.32295  1.0000
  O   O5        1.0  0.47361  0.30505  0.16163  1.0000
  C   C71       1.0  0.43631  0.29061  0.13059  1.0000
  H   H51       1.0  0.42065  0.26042  0.13408  1.0000
  H   H52       1.0  0.43745  0.29869  0.06107  1.0000
  H   H53       1.0  0.42191  0.30200  0.16845  1.0000
  N   N10       1.0  0.82657  0.30404  0.26360  1.0000
  C   C72       1.0  0.79516  0.27137  0.24884  1.0000
  C   C73       1.0  0.77326  0.25141  0.32319  1.0000
  O   O6        1.0  0.78658  0.26083  0.16189  1.0000
  C   C74       1.0  0.80100  0.23793  0.13091  1.0000
  H   H54       1.0  0.83120  0.25245  0.13448  1.0000
  H   H55       1.0  0.79296  0.23098  0.06137  1.0000
  H   H56       1.0  0.78958  0.21215  0.16874  1.0000
  C   C75       1.0  0.01115  0.65325  0.33139  1.0000
  C   C76       1.0  0.04925  0.67231  0.33614  1.0000
  C   C77       1.0  0.06141  0.64661  0.33637  1.0000
  N   N11       1.0  0.03022  0.61300  0.33398  1.0000
  C   C78       1.0  0.99901  0.61539  0.33143  1.0000
  C   C79       1.0  0.96134  0.58668  0.32918  1.0000
  N   N12       1.0  0.97023  0.53184  0.33402  1.0000
  C   C80       1.0  0.94934  0.49453  0.33645  1.0000
  C   C81       1.0  0.91259  0.48652  0.33511  1.0000
  C   C82       1.0  0.91258  0.51950  0.33344  1.0000
  C   C83       1.0  0.96138  0.46814  0.33883  1.0000
  C   C84       1.0  0.99906  0.47714  0.33630  1.0000
  N   N13       1.0  0.03026  0.51075  0.33375  1.0000
  C   C85       1.0  0.06147  0.50836  0.33124  1.0000
  C   C86       1.0  0.04933  0.47050  0.33122  1.0000
  C   C87       1.0  0.01123  0.45144  0.33615  1.0000
  N   N14       1.0  0.09025  0.59189  0.33383  1.0000
  C   C88       1.0  0.11114  0.62920  0.33629  1.0000
  C   C89       1.0  0.09909  0.65561  0.33879  1.0000
  C   C90       1.0  0.12697  0.69375  0.34353  1.0000
  C   C91       1.0  0.14883  0.70806  0.42088  1.0000
  C   C92       1.0  0.17915  0.74430  0.42206  1.0000
  C   C93       1.0  0.18790  0.76828  0.34777  1.0000
  C   C94       1.0  0.13511  0.51159  0.39934  1.0000
  C   C95       1.0  0.16451  0.50422  0.39676  1.0000
  C   C96       1.0  0.18763  0.51271  0.32068  1.0000
  C   C97       1.0  0.93351  0.42999  0.34338  1.0000
  C   C98       1.0  0.87292  0.35527  0.34757  1.0000
  C   C99       1.0  0.88147  0.37926  0.42183  1.0000
  C   C100      1.0  0.91162  0.41560  0.42067  1.0000
  C   C101      1.0  0.93344  0.59691  0.32455  1.0000
  C   C102      1.0  0.92523  0.61212  0.39920  1.0000
  C   C103      1.0  0.89571  0.61930  0.39650  1.0000
  C   C104      1.0  0.87258  0.61061  0.32042  1.0000
  H   H57       1.0  0.89069  0.63003  0.45262  1.0000
  H   H58       1.0  0.94026  0.61742  0.45668  1.0000
  H   H59       1.0  0.06506  0.70050  0.33796  1.0000
  H   H60       1.0  0.03023  0.59001  0.33416  1.0000
  H   H61       1.0  0.03025  0.53374  0.33387  1.0000
  H   H62       1.0  0.88919  0.52154  0.33343  1.0000
  H   H63       1.0  0.88921  0.46108  0.33530  1.0000
  H   H64       1.0  0.91621  0.43220  0.47502  1.0000
  H   H65       1.0  0.86483  0.37158  0.47663  1.0000
  H   H66       1.0  0.99543  0.42326  0.33820  1.0000
  H   H67       1.0  0.12003  0.50635  0.45675  1.0000
  H   H68       1.0  0.16937  0.49339  0.45286  1.0000
  H   H69       1.0  0.19582  0.75185  0.47675  1.0000
  H   H70       1.0  0.14419  0.69140  0.47511  1.0000
  C   C105      1.0  0.41922  0.46928  0.33595  1.0000
  N   N15       1.0  0.47854  0.50957  0.33355  1.0000
  C   C106      1.0  0.47615  0.47597  0.33102  1.0000
  C   C107      1.0  0.50485  0.46700  0.32876  1.0000
  N   N16       1.0  0.55969  0.53073  0.33368  1.0000
  C   C108      1.0  0.59700  0.54715  0.33616  1.0000
  C   C109      1.0  0.60502  0.51842  0.33479  1.0000
  C   C110      1.0  0.57203  0.48542  0.33306  1.0000
  C   C111      1.0  0.62340  0.58559  0.33861  1.0000
  N   N17       1.0  0.58078  0.61185  0.33365  1.0000
  C   C112      1.0  0.58317  0.64545  0.33105  1.0000
  C   C113      1.0  0.64009  0.65213  0.33606  1.0000
  C   C114      1.0  0.46233  0.57428  0.33589  1.0000
  C   C115      1.0  0.43593  0.53583  0.33844  1.0000
  C   C116      1.0  0.39779  0.52558  0.34324  1.0000
  C   C117      1.0  0.38351  0.53316  0.42062  1.0000
  C   C118      1.0  0.34726  0.52722  0.42189  1.0000
  C   C119      1.0  0.32324  0.51192  0.34768  1.0000
  C   C120      1.0  0.57995  0.71591  0.39900  1.0000
  C   C121      1.0  0.58733  0.75267  0.39640  1.0000
  C   C122      1.0  0.66154  0.59587  0.34319  1.0000
  C   C123      1.0  0.73623  0.60993  0.34743  1.0000
  C   C124      1.0  0.71226  0.59459  0.42173  1.0000
  C   C125      1.0  0.67592  0.58841  0.42053  1.0000
  C   C126      1.0  0.49462  0.42886  0.32414  1.0000
  C   C127      1.0  0.47943  0.40549  0.39882  1.0000
  C   C128      1.0  0.47225  0.36880  0.39614  1.0000
  C   C129      1.0  0.48096  0.35432  0.32010  1.0000
  H   H71       1.0  0.46151  0.35308  0.45227  1.0000
  H   H72       1.0  0.47411  0.41525  0.45627  1.0000
  H   H73       1.0  0.39104  0.45691  0.33769  1.0000
  H   H74       1.0  0.50153  0.53257  0.33367  1.0000
  H   H75       1.0  0.55779  0.58885  0.33373  1.0000
  H   H76       1.0  0.56999  0.45999  0.33304  1.0000
  H   H77       1.0  0.63046  0.52047  0.33502  1.0000
  H   H78       1.0  0.65928  0.57637  0.47479  1.0000
  H   H79       1.0  0.71989  0.58557  0.47644  1.0000
  H   H80       1.0  0.66828  0.66451  0.33780  1.0000
  H   H81       1.0  0.58519  0.70609  0.45643  1.0000
  H   H82       1.0  0.59815  0.76838  0.45252  1.0000
  H   H83       1.0  0.33971  0.53636  0.47660  1.0000
  H   H84       1.0  0.40018  0.54522  0.47481  1.0000
  C   C130      1.0  0.62226  0.04229  0.33580  1.0000
  C   C131      1.0  0.61558  0.09253  0.33095  1.0000
  N   N18       1.0  0.56081  0.12130  0.33348  1.0000
  C   C132      1.0  0.54439  0.14219  0.33592  1.0000
  C   C133      1.0  0.57311  0.17894  0.33451  1.0000
  C   C134      1.0  0.60611  0.17896  0.33283  1.0000
  C   C135      1.0  0.50594  0.13015  0.33832  1.0000
  C   C136      1.0  0.44609  0.03006  0.33079  1.0000
  C   C137      1.0  0.43940  0.08030  0.33576  1.0000
  C   C138      1.0  0.51726  0.98040  0.33557  1.0000
  C   C139      1.0  0.55571  0.99244  0.33815  1.0000
  C   C140      1.0  0.55837  0.94271  0.42028  1.0000
  C   C141      1.0  0.56431  0.91241  0.42152  1.0000
  C   C142      1.0  0.37567  0.95643  0.39893  1.0000
  C   C143      1.0  0.33890  0.92706  0.39642  1.0000
  C   C144      1.0  0.49566  0.15802  0.34290  1.0000
  C   C145      1.0  0.48159  0.21864  0.34711  1.0000
  C   C146      1.0  0.49694  0.21005  0.42141  1.0000
  C   C147      1.0  0.50314  0.17991  0.42019  1.0000
  C   C148      1.0  0.66268  0.15810  0.32414  1.0000
  C   C149      1.0  0.68602  0.16629  0.39886  1.0000
  C   C150      1.0  0.72271  0.19582  0.39630  1.0000
  H   H85       1.0  0.73842  0.20079  0.45242  1.0000
  H   H86       1.0  0.67623  0.15123  0.45630  1.0000
  H   H87       1.0  0.63463  0.02647  0.33742  1.0000
  H   H88       1.0  0.63154  0.20235  0.33281  1.0000
  H   H89       1.0  0.57105  0.20232  0.33470  1.0000
  H   H90       1.0  0.51515  0.17532  0.47451  1.0000
  H   H91       1.0  0.50596  0.22674  0.47612  1.0000
  H   H92       1.0  0.42702  0.09610  0.33763  1.0000
  H   H93       1.0  0.38551  0.97151  0.45633  1.0000
  H   H94       1.0  0.32322  0.92218  0.45260  1.0000
  H   H95       1.0  0.55516  0.89575  0.47623  1.0000
  H   H96       1.0  0.54631  0.94735  0.47448  1.0000
  C   C151      1.0  0.28724  0.50844  0.34493  1.0000
  N   N19       1.0  0.23407  0.50804  0.40467  1.0000
  C   C152      1.0  0.26548  0.50677  0.41936  1.0000
  O   O7        1.0  0.27419  0.50509  0.50632  1.0000
  C   C153      1.0  0.25966  0.46787  0.53804  1.0000
  H   H97       1.0  0.22946  0.45231  0.53483  1.0000
  H   H98       1.0  0.26783  0.46919  0.60754  1.0000
  H   H99       1.0  0.27089  0.45326  0.50045  1.0000
  C   C154      1.0  0.58312  0.87117  0.34455  1.0000
  N   N20       1.0  0.58351  0.81842  0.40429  1.0000
  C   C155      1.0  0.58478  0.85110  0.41899  1.0000
  O   O8        1.0  0.58645  0.86152  0.50595  1.0000
  C   C156      1.0  0.62367  0.88424  0.53768  1.0000
  H   H100      1.0  0.63923  0.86960  0.53447  1.0000
  H   H101      1.0  0.62234  0.89111  0.60718  1.0000
  H   H102      1.0  0.63827  0.91006  0.50009  1.0000
  C   C157      1.0  0.22041  0.80428  0.34495  1.0000
  N   N21       1.0  0.27318  0.85747  0.40453  1.0000
  C   C158      1.0  0.24050  0.82606  0.41933  1.0000
  O   O9        1.0  0.23012  0.81738  0.50632  1.0000
  C   C159      1.0  0.20743  0.83192  0.53811  1.0000
  H   H103      1.0  0.22208  0.86212  0.53486  1.0000
  H   H104      1.0  0.20059  0.82376  0.60763  1.0000
  H   H105      1.0  0.18159  0.82068  0.50059  1.0000
  C   C160      1.0  0.77238  0.61378  0.34470  1.0000
  N   N22       1.0  0.82583  0.61480  0.40445  1.0000
  C   C161      1.0  0.79423  0.61572  0.41914  1.0000
  O   O10       1.0  0.78544  0.61734  0.50609  1.0000
  C   C162      1.0  0.79962  0.65454  0.53775  1.0000
  H   H106      1.0  0.82982  0.67034  0.53453  1.0000
  H   H107      1.0  0.79141  0.65317  0.60725  1.0000
  H   H108      1.0  0.78818  0.66892  0.50012  1.0000
  C   C163      1.0  0.47775  0.25094  0.34438  1.0000
  N   N23       1.0  0.47674  0.30341  0.40411  1.0000
  C   C164      1.0  0.47581  0.27089  0.41881  1.0000
  O   O11       1.0  0.47419  0.26052  0.50576  1.0000
  C   C165      1.0  0.43700  0.23753  0.53742  1.0000
  H   H109      1.0  0.42119  0.25192  0.53419  1.0000
  H   H110      1.0  0.43836  0.23071  0.60692  1.0000
  H   H111      1.0  0.42261  0.21168  0.49980  1.0000
  C   C166      1.0  0.84062  0.31912  0.34477  1.0000
  N   N24       1.0  0.78812  0.26568  0.40438  1.0000
  C   C167      1.0  0.82063  0.29727  0.41915  1.0000
  O   O12       1.0  0.83096  0.30604  0.50614  1.0000
  C   C168      1.0  0.85394  0.29185  0.53788  1.0000
  H   H112      1.0  0.83955  0.26165  0.53463  1.0000
  H   H113      1.0  0.86072  0.30005  0.60739  1.0000
  H   H114      1.0  0.87980  0.30330  0.50033  1.0000
