data_image0
_chemical_formula_structural       C6H9C6H9C3H2C2H2NHC3H2C2H2NHC3H2C2H2NHNC12H6CHCHCHNC12H6CHCHCHC7H3NH2NHC7H3NH2NHC7H3NH2NH
_chemical_formula_sum              "C78 H69 N11"
_cell_length_a       39.0501
_cell_length_b       39.0501
_cell_length_c       15.0186
_cell_angle_alpha    90
_cell_angle_beta     90
_cell_angle_gamma    120

_space_group_name_H-M_alt    "P 1"
_space_group_IT_number       1

loop_
  _space_group_symop_operation_xyz
  'x, y, z'

loop_
  _atom_site_type_symbol
  _atom_site_label
  _atom_site_symmetry_multiplicity
  _atom_site_fract_x
  _atom_site_fract_y
  _atom_site_fract_z
  _atom_site_occupancy
  C   C1        1.0  0.37938  0.72976  0.31280  1.0000
  C   C2        1.0  0.40264  0.77117  0.31855  1.0000
  C   C3        1.0  0.34913  0.61907  0.31281  1.0000
  C   C4        1.0  0.36729  0.59581  0.31857  1.0000
  C   C5        1.0  0.22728  0.63115  0.31857  1.0000
  C   C6        1.0  0.26869  0.64931  0.31281  1.0000
  H   H1        1.0  0.36537  0.57849  0.26551  1.0000
  H   H2        1.0  0.33430  0.61829  0.25603  1.0000
  H   H3        1.0  0.38016  0.71570  0.25601  1.0000
  H   H4        1.0  0.41996  0.78656  0.26549  1.0000
  H   H5        1.0  0.21188  0.63308  0.26551  1.0000
  H   H6        1.0  0.28275  0.66414  0.25602  1.0000
  H   H7        1.0  0.38462  0.54105  0.39327  1.0000
  H   H8        1.0  0.45742  0.84326  0.39325  1.0000
  H   H9        1.0  0.15520  0.61385  0.39327  1.0000
  C   C7        1.0  0.61470  0.27746  0.27150  1.0000
  C   C8        1.0  0.58723  0.23693  0.26262  1.0000
  C   C9        1.0  0.66148  0.38372  0.27150  1.0000
  C   C10       1.0  0.64846  0.41122  0.26264  1.0000
  C   C11       1.0  0.76150  0.35000  0.26257  1.0000
  C   C12       1.0  0.72097  0.33695  0.27147  1.0000
  H   H10       1.0  0.65334  0.42615  0.20379  1.0000
  H   H11       1.0  0.67564  0.37932  0.21929  1.0000
  H   H12       1.0  0.61912  0.29602  0.21927  1.0000
  H   H13       1.0  0.57230  0.22687  0.20375  1.0000
  H   H14       1.0  0.77154  0.34508  0.20375  1.0000
  H   H15       1.0  0.70240  0.32277  0.21927  1.0000
  H   H16       1.0  0.62334  0.46223  0.26207  1.0000
  H   H17       1.0  0.53624  0.16080  0.26200  1.0000
  H   H18       1.0  0.83762  0.37511  0.26197  1.0000
  C   C13       1.0  0.54798  0.44251  0.31578  1.0000
  C   C14       1.0  0.53165  0.48955  0.24940  1.0000
  C   C15       1.0  0.55141  0.46789  0.24536  1.0000
  H   H19       1.0  0.53554  0.50850  0.19818  1.0000
  H   H20       1.0  0.56863  0.47096  0.19128  1.0000
  C   C16       1.0  0.44629  0.53170  0.26060  1.0000
  C   C17       1.0  0.46314  0.50719  0.25878  1.0000
  H   H21       1.0  0.42622  0.52846  0.21276  1.0000
  H   H22       1.0  0.45500  0.48653  0.20930  1.0000
  N   N1        1.0  0.56739  0.42019  0.31491  1.0000
  H   H23       1.0  0.55911  0.40293  0.25855  1.0000
  C   C18       1.0  0.55597  0.10516  0.31577  1.0000
  C   C19       1.0  0.50895  0.04179  0.24933  1.0000
  C   C20       1.0  0.53061  0.08322  0.24531  1.0000
  H   H24       1.0  0.49002  0.02674  0.19811  1.0000
  H   H25       1.0  0.52755  0.09737  0.19122  1.0000
  C   C21       1.0  0.46677  0.91427  0.26058  1.0000
  C   C22       1.0  0.49127  0.95563  0.25874  1.0000
  H   H26       1.0  0.46999  0.89745  0.21272  1.0000
  H   H27       1.0  0.51192  0.96815  0.20924  1.0000
  N   N2        1.0  0.57828  0.14689  0.31491  1.0000
  H   H28       1.0  0.59556  0.15589  0.25857  1.0000
  C   C23       1.0  0.89328  0.45045  0.31581  1.0000
  C   C24       1.0  0.95666  0.46681  0.24941  1.0000
  C   C25       1.0  0.91523  0.44704  0.24537  1.0000
  H   H29       1.0  0.97172  0.46294  0.19817  1.0000
  H   H30       1.0  0.90108  0.42985  0.19124  1.0000
  C   C26       1.0  0.08417  0.55216  0.26066  1.0000
  C   C27       1.0  0.04281  0.53529  0.25882  1.0000
  H   H31       1.0  0.10098  0.57217  0.21274  1.0000
  H   H32       1.0  0.03027  0.54338  0.20927  1.0000
  N   N3        1.0  0.85155  0.43105  0.31492  1.0000
  H   H33       1.0  0.84257  0.43934  0.25857  1.0000
  N   N4        1.0  0.33240  0.66605  0.37917  1.0000
  C   C28       1.0  0.35118  0.64316  0.38488  1.0000
  C   C29       1.0  0.29074  0.64727  0.38489  1.0000
  C   C30       1.0  0.35529  0.70771  0.38488  1.0000
  C   C31       1.0  0.40199  0.79137  0.39615  1.0000
  C   C32       1.0  0.37781  0.76906  0.46825  1.0000
  C   C33       1.0  0.35480  0.72766  0.46277  1.0000
  C   C34       1.0  0.38814  0.59647  0.39617  1.0000
  C   C35       1.0  0.39002  0.62065  0.46826  1.0000
  C   C36       1.0  0.37162  0.64366  0.46278  1.0000
  C   C37       1.0  0.27080  0.62684  0.46279  1.0000
  C   C38       1.0  0.22939  0.60845  0.46828  1.0000
  C   C39       1.0  0.20709  0.61032  0.39618  1.0000
  H   H34       1.0  0.37314  0.66076  0.51589  1.0000
  H   H35       1.0  0.40474  0.62167  0.52543  1.0000
  H   H36       1.0  0.28637  0.62533  0.51590  1.0000
  H   H37       1.0  0.21570  0.59374  0.52546  1.0000
  H   H38       1.0  0.33770  0.71208  0.51588  1.0000
  H   H39       1.0  0.37679  0.78276  0.52542  1.0000
  C   C40       1.0  0.40752  0.57206  0.40117  1.0000
  H   H40       1.0  0.42116  0.57502  0.46652  1.0000
  C   C41       1.0  0.42640  0.83515  0.40116  1.0000
  H   H41       1.0  0.42345  0.84584  0.46651  1.0000
  C   C42       1.0  0.16331  0.59095  0.40120  1.0000
  H   H42       1.0  0.15262  0.57732  0.46657  1.0000
  N   N5        1.0  0.66572  0.33271  0.35891  1.0000
  C   C43       1.0  0.65426  0.36168  0.35071  1.0000
  C   C44       1.0  0.70616  0.34417  0.35069  1.0000
  C   C45       1.0  0.63675  0.29227  0.35071  1.0000
  C   C46       1.0  0.58153  0.21030  0.33243  1.0000
  C   C47       1.0  0.60349  0.22532  0.41189  1.0000
  C   C48       1.0  0.63067  0.26595  0.42114  1.0000
  C   C49       1.0  0.62753  0.41692  0.33245  1.0000
  C   C50       1.0  0.62057  0.39494  0.41190  1.0000
  C   C51       1.0  0.63401  0.36776  0.42115  1.0000
  C   C52       1.0  0.73249  0.36441  0.42112  1.0000
  C   C53       1.0  0.77312  0.37786  0.41186  1.0000
  C   C54       1.0  0.78812  0.37091  0.33240  1.0000
  H   H43       1.0  0.62824  0.35176  0.47867  1.0000
  H   H44       1.0  0.60518  0.39824  0.46314  1.0000
  H   H45       1.0  0.72227  0.37020  0.47863  1.0000
  H   H46       1.0  0.79180  0.39325  0.46309  1.0000
  H   H47       1.0  0.64667  0.27617  0.47866  1.0000
  H   H48       1.0  0.60020  0.20663  0.46312  1.0000
  C   C55       1.0  0.61117  0.44377  0.32146  1.0000
  H   H49       1.0  0.61995  0.46358  0.37900  1.0000
  C   C56       1.0  0.55470  0.16709  0.32141  1.0000
  H   H50       1.0  0.53486  0.15605  0.37893  1.0000
  C   C57       1.0  0.83133  0.38726  0.32139  1.0000
  H   H51       1.0  0.84236  0.37846  0.37890  1.0000
  C   C58       1.0  0.52363  0.43839  0.38886  1.0000
  C   C59       1.0  0.50307  0.45965  0.39406  1.0000
  C   C60       1.0  0.50767  0.48607  0.32339  1.0000
  C   C61       1.0  0.49031  0.51052  0.32522  1.0000
  C   C62       1.0  0.50101  0.53959  0.39218  1.0000
  C   C63       1.0  0.48392  0.56384  0.39434  1.0000
  C   C64       1.0  0.45614  0.55983  0.32895  1.0000
  H   H52       1.0  0.52118  0.54318  0.44013  1.0000
  H   H53       1.0  0.49178  0.58446  0.44374  1.0000
  H   H54       1.0  0.52079  0.41935  0.43897  1.0000
  N   N6        1.0  0.47908  0.45319  0.46544  1.0000
  H   H55       1.0  0.47599  0.43449  0.51201  1.0000
  H   H56       1.0  0.46258  0.46521  0.47010  1.0000
  N   N7        1.0  0.43769  0.58308  0.33001  1.0000
  H   H57       1.0  0.45900  0.61242  0.33486  1.0000
  C   C65       1.0  0.56007  0.08494  0.38886  1.0000
  C   C66       1.0  0.53882  0.04311  0.39404  1.0000
  C   C67       1.0  0.51241  0.02129  0.32335  1.0000
  C   C68       1.0  0.48796  0.97948  0.32519  1.0000
  C   C69       1.0  0.45890  0.96113  0.39216  1.0000
  C   C70       1.0  0.43465  0.91978  0.39433  1.0000
  C   C71       1.0  0.43864  0.89600  0.32894  1.0000
  H   H58       1.0  0.45532  0.97771  0.44012  1.0000
  H   H59       1.0  0.41404  0.90702  0.44375  1.0000
  H   H60       1.0  0.57909  0.10114  0.43899  1.0000
  N   N8        1.0  0.54526  0.02558  0.46546  1.0000
  H   H61       1.0  0.56403  0.04120  0.51190  1.0000
  H   H62       1.0  0.53333  0.99707  0.46997  1.0000
  N   N9        1.0  0.41539  0.85431  0.33000  1.0000
  H   H63       1.0  0.38605  0.84629  0.33486  1.0000
  C   C72       1.0  0.91350  0.47478  0.38891  1.0000
  C   C73       1.0  0.95532  0.49534  0.39413  1.0000
  C   C74       1.0  0.97715  0.49076  0.32345  1.0000
  C   C75       1.0  0.01896  0.50813  0.32529  1.0000
  C   C76       1.0  0.03733  0.49746  0.39229  1.0000
  C   C77       1.0  0.07868  0.51456  0.39446  1.0000
  C   C78       1.0  0.10245  0.54232  0.32904  1.0000
  H   H64       1.0  0.02075  0.47731  0.44027  1.0000
  H   H65       1.0  0.09144  0.50672  0.44390  1.0000
  H   H66       1.0  0.89730  0.47760  0.43904  1.0000
  N   N10       1.0  0.97285  0.51931  0.46556  1.0000
  H   H67       1.0  0.95723  0.52254  0.51186  1.0000
  H   H68       1.0  0.00135  0.53597  0.46992  1.0000
  N   N11       1.0  0.14414  0.56076  0.33008  1.0000
  H   H69       1.0  0.15216  0.53945  0.33496  1.0000
