data_image0
_chemical_formula_structural       C3H2CH2C4HCHC3H2NCHCHC10HC7H4N2C3H3CHC2HC3H3CHCHCH2C12H6C6H3C6N2CHC2HCH3C2H3C7H6NC3H2CHCH2CHC3H3CH
_chemical_formula_sum              "C90 H60 N6"
_cell_length_a       45.4655
_cell_length_b       45.4765
_cell_length_c       14.6782
_cell_angle_alpha    90
_cell_angle_beta     90
_cell_angle_gamma    119.983

_space_group_name_H-M_alt    "P 1"
_space_group_IT_number       1

loop_
  _space_group_symop_operation_xyz
  'x, y, z'

loop_
  _atom_site_type_symbol
  _atom_site_label
  _atom_site_symmetry_multiplicity
  _atom_site_fract_x
  _atom_site_fract_y
  _atom_site_fract_z
  _atom_site_occupancy
  C   C1        1.0  0.21669  0.60895  0.35930  1.0000
  C   C2        1.0  0.16214  0.60532  0.32684  1.0000
  C   C3        1.0  0.19791  0.62365  0.32533  1.0000
  H   H1        1.0  0.20999  0.64784  0.29962  1.0000
  H   H2        1.0  0.14924  0.61684  0.30322  1.0000
  C   C4        1.0  0.31364  0.65900  0.35677  1.0000
  H   H3        1.0  0.31979  0.61575  0.35700  1.0000
  H   H4        1.0  0.31765  0.70750  0.35700  1.0000
  C   C5        1.0  0.28036  0.64177  0.35734  1.0000
  C   C6        1.0  0.24996  0.62604  0.35821  1.0000
  C   C7        1.0  0.05253  0.53293  0.33060  1.0000
  C   C8        1.0  0.02929  0.52725  0.25962  1.0000
  H   H5        1.0  0.03859  0.53685  0.19623  1.0000
  C   C9        1.0  0.08739  0.55297  0.31444  1.0000
  H   H6        1.0  0.09485  0.56754  0.25900  1.0000
  C   C10       1.0  0.19900  0.57571  0.39538  1.0000
  C   C11       1.0  0.16320  0.55754  0.39715  1.0000
  C   C12       1.0  0.14425  0.57184  0.36184  1.0000
  H   H7        1.0  0.21190  0.56443  0.42110  1.0000
  H   H8        1.0  0.15099  0.53355  0.42393  1.0000
  N   N1        1.0  0.11040  0.55368  0.36714  1.0000
  C   C13       1.0  0.03902  0.51944  0.41726  1.0000
  H   H9        1.0  0.05538  0.52341  0.47000  1.0000
  C   C14       1.0  0.40711  0.58358  0.30484  1.0000
  H   H10       1.0  0.38594  0.57472  0.26456  1.0000
  C   C15       1.0  0.36705  0.71363  0.35692  1.0000
  C   C16       1.0  0.33114  0.69490  0.35681  1.0000
  C   C17       1.0  0.33238  0.64183  0.35681  1.0000
  C   C18       1.0  0.36829  0.66022  0.35692  1.0000
  C   C19       1.0  0.38545  0.69612  0.35694  1.0000
  C   C20       1.0  0.39794  0.77731  0.35829  1.0000
  C   C21       1.0  0.38313  0.74691  0.35754  1.0000
  C   C22       1.0  0.40109  0.62933  0.35827  1.0000
  C   C23       1.0  0.38550  0.64414  0.35753  1.0000
  C   C24       1.0  0.40303  0.82857  0.41351  1.0000
  H   H11       1.0  0.38176  0.81589  0.45324  1.0000
  C   C25       1.0  0.41795  0.61291  0.35895  1.0000
  C   C26       1.0  0.41435  0.81057  0.35900  1.0000
  C   C27       1.0  0.45446  0.57694  0.36064  1.0000
  C   C28       1.0  0.42512  0.56580  0.30593  1.0000
  C   C29       1.0  0.45031  0.88304  0.36071  1.0000
  C   C30       1.0  0.46176  0.86483  0.30709  1.0000
  C   C31       1.0  0.44398  0.82906  0.30598  1.0000
  H   H12       1.0  0.41629  0.54433  0.26725  1.0000
  H   H13       1.0  0.48344  0.87747  0.26921  1.0000
  H   H14       1.0  0.45307  0.81676  0.26647  1.0000
  H   H15       1.0  0.41154  0.70960  0.35721  1.0000
  N   N2        1.0  0.47207  0.56066  0.36636  1.0000
  N   N3        1.0  0.46657  0.91690  0.36646  1.0000
  C   C32       1.0  0.49541  0.52590  0.32694  1.0000
  C   C33       1.0  0.50020  0.50714  0.25759  1.0000
  C   C34       1.0  0.51702  0.48850  0.27325  1.0000
  H   H16       1.0  0.49040  0.50634  0.19416  1.0000
  H   H17       1.0  0.50735  0.47004  0.13415  1.0000
  H   H18       1.0  0.50759  0.44165  0.21535  1.0000
  C   C35       1.0  0.47657  0.54193  0.30859  1.0000
  H   H19       1.0  0.46591  0.53860  0.24743  1.0000
  C   C36       1.0  0.50150  0.97497  0.32717  1.0000
  C   C37       1.0  0.48552  0.94011  0.30892  1.0000
  H   H20       1.0  0.48907  0.93277  0.24802  1.0000
  C   C38       1.0  0.44697  0.62393  0.41448  1.0000
  C   C39       1.0  0.46483  0.60597  0.41558  1.0000
  C   C40       1.0  0.42098  0.86436  0.41466  1.0000
  H   H21       1.0  0.48570  0.61442  0.45670  1.0000
  H   H22       1.0  0.41231  0.87678  0.45501  1.0000
  H   H23       1.0  0.45535  0.64498  0.45497  1.0000
  C   C41       1.0  0.50924  0.52651  0.41360  1.0000
  H   H24       1.0  0.50617  0.53995  0.46512  1.0000
  C   C42       1.0  0.50092  0.98820  0.41383  1.0000
  H   H25       1.0  0.48752  0.97171  0.46541  1.0000
  C   C43       1.0  0.51616  0.03386  0.52720  1.0000
  H   H26       1.0  0.48945  0.02388  0.54437  1.0000
  H   H27       1.0  0.51850  0.50052  0.57504  1.0000
  C   C44       1.0  0.51896  0.02349  0.43255  1.0000
  C   C45       1.0  0.81614  0.40798  0.35473  1.0000
  C   C46       1.0  0.61927  0.41331  0.35378  1.0000
  C   C47       1.0  0.61411  0.21132  0.35388  1.0000
  C   C48       1.0  0.58415  0.45072  0.35185  1.0000
  C   C49       1.0  0.61519  0.46266  0.30489  1.0000
  C   C50       1.0  0.63265  0.44432  0.30587  1.0000
  C   C51       1.0  0.86950  0.40939  0.31943  1.0000
  C   C52       1.0  0.83371  0.39198  0.32084  1.0000
  C   C53       1.0  0.57669  0.13882  0.35185  1.0000
  C   C54       1.0  0.56454  0.15793  0.30588  1.0000
  C   C55       1.0  0.58290  0.19372  0.30690  1.0000
  H   H28       1.0  0.62536  0.48493  0.26905  1.0000
  H   H29       1.0  0.65508  0.45381  0.27089  1.0000
  H   H30       1.0  0.82072  0.36763  0.29636  1.0000
  H   H31       1.0  0.88157  0.39727  0.29384  1.0000
  H   H32       1.0  0.54211  0.14584  0.27073  1.0000
  H   H33       1.0  0.57325  0.20667  0.27263  1.0000
  C   C56       1.0  0.66448  0.30824  0.35581  1.0000
  C   C57       1.0  0.70039  0.32565  0.35606  1.0000
  C   C58       1.0  0.71920  0.36154  0.35617  1.0000
  C   C59       1.0  0.70178  0.38003  0.35602  1.0000
  C   C60       1.0  0.66588  0.36296  0.35577  1.0000
  C   C61       1.0  0.64740  0.32706  0.35568  1.0000
  H   H34       1.0  0.71533  0.40611  0.35592  1.0000
  H   H35       1.0  0.71293  0.31210  0.35600  1.0000
  H   H36       1.0  0.62131  0.31453  0.35533  1.0000
  C   C62       1.0  0.63136  0.24458  0.35457  1.0000
  C   C63       1.0  0.64719  0.27497  0.35524  1.0000
  C   C64       1.0  0.63530  0.39607  0.35447  1.0000
  C   C65       1.0  0.64989  0.38026  0.35517  1.0000
  C   C66       1.0  0.75249  0.37750  0.35591  1.0000
  C   C67       1.0  0.78288  0.39202  0.35540  1.0000
  N   N4        1.0  0.56876  0.46916  0.34513  1.0000
  N   N5        1.0  0.55823  0.10501  0.34518  1.0000
  C   C68       1.0  0.51960  0.46839  0.19641  1.0000
  H   H37       1.0  0.54626  0.47769  0.18044  1.0000
  C   C69       1.0  0.52021  0.99849  0.25774  1.0000
  C   C70       1.0  0.53886  0.03394  0.27333  1.0000
  H   H38       1.0  0.52101  0.98948  0.19432  1.0000
  C   C71       1.0  0.55894  0.05660  0.19642  1.0000
  H   H39       1.0  0.55725  0.04269  0.13415  1.0000
  H   H40       1.0  0.58570  0.07131  0.21526  1.0000
  H   H41       1.0  0.54965  0.07397  0.18050  1.0000
  C   C72       1.0  0.99374  0.50994  0.27377  1.0000
  C   C73       1.0  0.97130  0.50645  0.19536  1.0000
  H   H42       1.0  0.98542  0.51825  0.13301  1.0000
  H   H43       1.0  0.95626  0.51838  0.21180  1.0000
  H   H44       1.0  0.95423  0.47963  0.18076  1.0000
  C   C74       1.0  0.58816  0.40107  0.40055  1.0000
  C   C75       1.0  0.57083  0.41952  0.39939  1.0000
  C   C76       1.0  0.83506  0.44167  0.38701  1.0000
  C   C77       1.0  0.87083  0.45893  0.38559  1.0000
  C   C78       1.0  0.88865  0.44297  0.35241  1.0000
  C   C79       1.0  0.62656  0.19245  0.39969  1.0000
  C   C80       1.0  0.60810  0.15668  0.39850  1.0000
  H   H45       1.0  0.54820  0.40968  0.43308  1.0000
  H   H46       1.0  0.82308  0.45411  0.41122  1.0000
  H   H47       1.0  0.88368  0.48349  0.40790  1.0000
  H   H48       1.0  0.64924  0.20446  0.43391  1.0000
  H   H49       1.0  0.61811  0.14390  0.43141  1.0000
  H   H50       1.0  0.57768  0.37856  0.43550  1.0000
  N   N6        1.0  0.92246  0.45815  0.34589  1.0000
  C   C81       1.0  0.53011  0.48884  0.36191  1.0000
  C   C82       1.0  0.52650  0.50847  0.43240  1.0000
  C   C83       1.0  0.53969  0.51132  0.52703  1.0000
  H   H51       1.0  0.55421  0.49845  0.53683  1.0000
  H   H52       1.0  0.55641  0.53804  0.54410  1.0000
  C   C84       1.0  0.54204  0.46675  0.38257  1.0000
  H   H53       1.0  0.52874  0.44831  0.42691  1.0000
  C   C85       1.0  0.53856  0.04670  0.36200  1.0000
  H   H54       1.0  0.52904  0.06125  0.53692  1.0000
  H   H55       1.0  0.52700  0.02350  0.57516  1.0000
  C   C86       1.0  0.56067  0.08071  0.38253  1.0000
  H   H56       1.0  0.57916  0.08586  0.42679  1.0000
  C   C87       1.0  0.98065  0.49737  0.36253  1.0000
  C   C88       1.0  0.00362  0.50177  0.43460  1.0000
  C   C89       1.0  0.99289  0.48919  0.52953  1.0000
  H   H57       1.0  0.96546  0.47435  0.53824  1.0000
  H   H58       1.0  0.00267  0.51069  0.57638  1.0000
  H   H59       1.0  0.00320  0.47294  0.54908  1.0000
  C   C90       1.0  0.94653  0.48546  0.38163  1.0000
  H   H60       1.0  0.94110  0.49914  0.42391  1.0000
