data_image0
_chemical_formula_structural       C15H12C2HC6H3C2HC6H3C2NC2NC5NC3NC17H14C2NCNC2H3CH3C2NCNC2H3CH3
_chemical_formula_sum              "C72 H46 N8"
_cell_length_a       25.6532
_cell_length_b       25.6532
_cell_length_c       14.9945
_cell_angle_alpha    90
_cell_angle_beta     90
_cell_angle_gamma    90

_space_group_name_H-M_alt    "P 1"
_space_group_IT_number       1

loop_
  _space_group_symop_operation_xyz
  'x, y, z'

loop_
  _atom_site_type_symbol
  _atom_site_label
  _atom_site_symmetry_multiplicity
  _atom_site_fract_x
  _atom_site_fract_y
  _atom_site_fract_z
  _atom_site_occupancy
  C   C1        1.0  0.88830  0.95218  0.33185  1.0000
  C   C2        1.0  0.04805  0.88663  0.33248  1.0000
  C   C3        1.0  0.00049  0.13644  0.33109  1.0000
  C   C4        1.0  0.95090  0.11149  0.33135  1.0000
  C   C5        1.0  0.86424  0.09911  0.32894  1.0000
  C   C6        1.0  0.90256  0.13656  0.33289  1.0000
  C   C7        1.0  0.72209  0.97695  0.26686  1.0000
  C   C8        1.0  0.77683  0.97906  0.26283  1.0000
  C   C9        1.0  0.00153  0.19246  0.33219  1.0000
  C   C10       1.0  0.97754  0.27657  0.26612  1.0000
  C   C11       1.0  0.97941  0.22183  0.26199  1.0000
  C   C12       1.0  0.22163  0.01890  0.26172  1.0000
  C   C13       1.0  0.27633  0.02189  0.26545  1.0000
  C   C14       1.0  0.01976  0.77672  0.26159  1.0000
  C   C15       1.0  0.02221  0.72199  0.26530  1.0000
  H   H1        1.0  0.04180  0.70326  0.21529  1.0000
  H   H2        1.0  0.03661  0.79548  0.20867  1.0000
  H   H3        1.0  0.89253  0.82644  0.32835  1.0000
  H   H4        1.0  0.20272  0.03539  0.20861  1.0000
  H   H5        1.0  0.29489  0.04145  0.21522  1.0000
  H   H6        1.0  0.10643  0.17161  0.32692  1.0000
  H   H7        1.0  0.82532  0.10737  0.32724  1.0000
  H   H8        1.0  0.89516  0.17564  0.33485  1.0000
  H   H9        1.0  0.96234  0.20339  0.20893  1.0000
  H   H10       1.0  0.95807  0.29561  0.21633  1.0000
  H   H11       1.0  0.79539  0.96216  0.20973  1.0000
  H   H12       1.0  0.70314  0.95743  0.21702  1.0000
  C   C16       1.0  0.99813  0.55424  0.25286  1.0000
  C   C17       1.0  0.99572  0.60913  0.25618  1.0000
  H   H13       1.0  0.99096  0.62874  0.19730  1.0000
  C   C18       1.0  0.00070  0.47163  0.33455  1.0000
  C   C19       1.0  0.00131  0.36098  0.33836  1.0000
  C   C20       1.0  0.00539  0.38897  0.25675  1.0000
  C   C21       1.0  0.00301  0.44385  0.25315  1.0000
  C   C22       1.0  0.00251  0.47162  0.17181  1.0000
  C   C23       1.0  0.99842  0.52632  0.17167  1.0000
  H   H14       1.0  0.00346  0.45220  0.11220  1.0000
  H   H15       1.0  0.99731  0.54563  0.11197  1.0000
  H   H16       1.0  0.00990  0.36927  0.19790  1.0000
  C   C24       1.0  0.44431  0.99839  0.25314  1.0000
  C   C25       1.0  0.38941  0.99615  0.25642  1.0000
  H   H17       1.0  0.36982  0.99142  0.19752  1.0000
  C   C26       1.0  0.52692  0.00048  0.33488  1.0000
  C   C27       1.0  0.63755  0.00061  0.33881  1.0000
  C   C28       1.0  0.60962  0.00482  0.25716  1.0000
  C   C29       1.0  0.55473  0.00271  0.25351  1.0000
  C   C30       1.0  0.52698  0.00240  0.17215  1.0000
  C   C31       1.0  0.47225  0.99862  0.17196  1.0000
  H   H18       1.0  0.54642  0.00333  0.11255  1.0000
  H   H19       1.0  0.45295  0.99763  0.11224  1.0000
  H   H20       1.0  0.62938  0.00929  0.19835  1.0000
  C   C32       1.0  0.90098  0.86532  0.33001  1.0000
  C   C33       1.0  0.86352  0.90366  0.33368  1.0000
  N   N1        1.0  0.94008  0.94104  0.33111  1.0000
  C   C34       1.0  0.95002  0.88902  0.33108  1.0000
  C   C35       1.0  0.99846  0.86169  0.33175  1.0000
  N   N2        1.0  0.05884  0.93830  0.33168  1.0000
  C   C36       1.0  0.11076  0.94786  0.33174  1.0000
  C   C37       1.0  0.13473  0.89898  0.33107  1.0000
  C   C38       1.0  0.09638  0.86155  0.33473  1.0000
  C   C39       1.0  0.13684  0.99684  0.33197  1.0000
  C   C40       1.0  0.11061  0.04590  0.33179  1.0000
  N   N3        1.0  0.05883  0.05703  0.33105  1.0000
  C   C41       1.0  0.04891  0.10906  0.33050  1.0000
  C   C42       1.0  0.09796  0.13274  0.32888  1.0000
  C   C43       1.0  0.13540  0.09441  0.33302  1.0000
  N   N4        1.0  0.94012  0.05982  0.33086  1.0000
  C   C44       1.0  0.88821  0.05023  0.33056  1.0000
  C   C45       1.0  0.86209  0.00125  0.33150  1.0000
  C   C46       1.0  0.80605  0.00147  0.33294  1.0000
  C   C47       1.0  0.77833  0.02442  0.40433  1.0000
  C   C48       1.0  0.72354  0.02641  0.40381  1.0000
  C   C49       1.0  0.69379  0.00089  0.33720  1.0000
  C   C50       1.0  0.02460  0.22004  0.40363  1.0000
  C   C51       1.0  0.02688  0.27483  0.40316  1.0000
  C   C52       1.0  0.00152  0.30473  0.33658  1.0000
  C   C53       1.0  0.19287  0.99671  0.33261  1.0000
  C   C54       1.0  0.30508  0.99901  0.33625  1.0000
  C   C55       1.0  0.27586  0.97336  0.40343  1.0000
  C   C56       1.0  0.22105  0.97450  0.40417  1.0000
  C   C57       1.0  0.99752  0.80567  0.33221  1.0000
  C   C58       1.0  0.97486  0.77770  0.40359  1.0000
  C   C59       1.0  0.97327  0.72289  0.40285  1.0000
  C   C60       1.0  0.99886  0.69345  0.33590  1.0000
  H   H21       1.0  0.95299  0.70483  0.45255  1.0000
  H   H22       1.0  0.95764  0.79717  0.45540  1.0000
  H   H23       1.0  0.82449  0.89606  0.33619  1.0000
  H   H24       1.0  0.96684  0.96720  0.33082  1.0000
  H   H25       1.0  0.03206  0.03088  0.33144  1.0000
  H   H26       1.0  0.10373  0.82246  0.33709  1.0000
  H   H27       1.0  0.17366  0.89073  0.32972  1.0000
  H   H28       1.0  0.20173  0.95727  0.45615  1.0000
  H   H29       1.0  0.29410  0.95339  0.45332  1.0000
  H   H30       1.0  0.17443  0.10203  0.33546  1.0000
  H   H31       1.0  0.04186  0.20028  0.45508  1.0000
  H   H32       1.0  0.04782  0.29247  0.45244  1.0000
  H   H33       1.0  0.70577  0.04735  0.45296  1.0000
  H   H34       1.0  0.79797  0.04195  0.45565  1.0000
  C   C61       1.0  0.99993  0.63723  0.33764  1.0000
  C   C62       1.0  0.00613  0.60683  0.41690  1.0000
  N   N5        1.0  0.00511  0.55394  0.41126  1.0000
  C   C63       1.0  0.00062  0.52661  0.33441  1.0000
  N   N6        1.0  0.99645  0.44442  0.41157  1.0000
  C   C64       1.0  0.99547  0.39154  0.41755  1.0000
  C   C65       1.0  0.01869  0.62727  0.50688  1.0000
  H   H35       1.0  0.04310  0.66200  0.50264  1.0000
  H   H36       1.0  0.04014  0.59849  0.54613  1.0000
  H   H37       1.0  0.98282  0.63641  0.54262  1.0000
  C   C66       1.0  0.98345  0.37124  0.50785  1.0000
  H   H38       1.0  0.96481  0.40098  0.54918  1.0000
  H   H39       1.0  0.01925  0.35946  0.54137  1.0000
  H   H40       1.0  0.95672  0.33823  0.50402  1.0000
  C   C67       1.0  0.36130  0.00036  0.33788  1.0000
  C   C68       1.0  0.39172  0.00648  0.41715  1.0000
  N   N7        1.0  0.44461  0.00523  0.41155  1.0000
  C   C69       1.0  0.47193  0.00068  0.33470  1.0000
  N   N8        1.0  0.55407  0.99606  0.41193  1.0000
  C   C70       1.0  0.60694  0.99486  0.41796  1.0000
  C   C71       1.0  0.37139  0.01915  0.50716  1.0000
  H   H41       1.0  0.33604  0.04266  0.50309  1.0000
  H   H42       1.0  0.39983  0.04162  0.54546  1.0000
  H   H43       1.0  0.36334  0.98329  0.54368  1.0000
  C   C72       1.0  0.62717  0.98269  0.50824  1.0000
  H   H44       1.0  0.59744  0.96387  0.54933  1.0000
  H   H45       1.0  0.63881  0.01846  0.54203  1.0000
  H   H46       1.0  0.66028  0.95608  0.50438  1.0000
