data_image0
_chemical_formula_structural       C7HCH3CHC3HCH3CHC3HCH3CHC3HCH3CHC3HCH3CHC3HCH3CHC3HCH3CHC3HCH3CHC3HCH3CHC3HCH3CHC3HCH3CHC3HCH3CHC3HCH3CHC3HCH3CHC3HCH3CHC3HCH3CHC3HCH3CHC3HCH3CHCNCNCN4CNCNCN4CNCNCN4CNCNCN5CNCN5CNCN5CNCN5CNCN4CNCNCN4CNCNCN4CNCNCN4CNCNCN4C3HCH3CHC3HCH3CHC3HCH3CHC3HCH3CHC3HCH3CHC3HCH3CHC3HCH3CHC3HCH3CHC3HCH3CHC3HCH3CHC3HCH3CHC3HCH3CHC3HCH3CHC3HCH3CHC3HCH3CHC3HCH3CHC3HCH3CHC3HCH3CH
_chemical_formula_sum              "C216 H180 N72"
_cell_length_a       52.0192
_cell_length_b       51.7792
_cell_length_c       14.686
_cell_angle_alpha    90
_cell_angle_beta     90
_cell_angle_gamma    90.2636

_space_group_name_H-M_alt    "P 1"
_space_group_IT_number       1

loop_
  _space_group_symop_operation_xyz
  'x, y, z'

loop_
  _atom_site_type_symbol
  _atom_site_label
  _atom_site_symmetry_multiplicity
  _atom_site_fract_x
  _atom_site_fract_y
  _atom_site_fract_z
  _atom_site_occupancy
  C   C1        1.0  0.05247  0.20566  0.36039  1.0000
  C   C2        1.0  0.96498  0.81445  0.35800  1.0000
  C   C3        1.0  0.81272  0.05334  0.35859  1.0000
  C   C4        1.0  0.20179  0.96452  0.35440  1.0000
  C   C5        1.0  0.98690  0.52589  0.35631  1.0000
  C   C6        1.0  0.00082  0.52243  0.27327  1.0000
  C   C7        1.0  0.02338  0.50706  0.27266  1.0000
  H   H1        1.0  0.03340  0.50497  0.21292  1.0000
  C   C8        1.0  0.99310  0.53392  0.18431  1.0000
  H   H2        1.0  0.97565  0.54542  0.18784  1.0000
  H   H3        1.0  0.98979  0.51855  0.13471  1.0000
  H   H4        1.0  0.00848  0.54644  0.15916  1.0000
  C   C9        1.0  0.96334  0.53910  0.35809  1.0000
  H   H5        1.0  0.94740  0.52844  0.36055  1.0000
  C   C10       1.0  0.49063  0.98640  0.35508  1.0000
  C   C11       1.0  0.49471  0.00018  0.27194  1.0000
  C   C12       1.0  0.51091  0.02235  0.27133  1.0000
  H   H6        1.0  0.51341  0.03233  0.21156  1.0000
  C   C13       1.0  0.48305  0.99271  0.18290  1.0000
  H   H7        1.0  0.47090  0.97556  0.18647  1.0000
  H   H8        1.0  0.49826  0.98885  0.13355  1.0000
  H   H9        1.0  0.47126  0.00853  0.15742  1.0000
  C   C14       1.0  0.47668  0.96309  0.35675  1.0000
  H   H10       1.0  0.48681  0.94686  0.35915  1.0000
  C   C15       1.0  0.06733  0.33054  0.34652  1.0000
  C   C16       1.0  0.05805  0.31666  0.27052  1.0000
  C   C17       1.0  0.05255  0.28983  0.27445  1.0000
  H   H11       1.0  0.05428  0.32659  0.21162  1.0000
  C   C18       1.0  0.04218  0.27684  0.19143  1.0000
  H   H12       1.0  0.04099  0.28976  0.13281  1.0000
  H   H13       1.0  0.02289  0.26940  0.20493  1.0000
  H   H14       1.0  0.05463  0.26078  0.17265  1.0000
  C   C19       1.0  0.06843  0.35750  0.34346  1.0000
  H   H15       1.0  0.05290  0.36668  0.32095  1.0000
  C   C20       1.0  0.94973  0.68942  0.34359  1.0000
  C   C21       1.0  0.95887  0.70350  0.26783  1.0000
  C   C22       1.0  0.96421  0.73036  0.27226  1.0000
  H   H16       1.0  0.96264  0.69369  0.20868  1.0000
  C   C23       1.0  0.97448  0.74353  0.18945  1.0000
  H   H17       1.0  0.97569  0.73073  0.13055  1.0000
  H   H18       1.0  0.99374  0.75104  0.20297  1.0000
  H   H19       1.0  0.96195  0.75957  0.17111  1.0000
  C   C24       1.0  0.94896  0.66243  0.34021  1.0000
  H   H20       1.0  0.96472  0.65349  0.31851  1.0000
  C   C25       1.0  0.68812  0.06708  0.34557  1.0000
  C   C26       1.0  0.70196  0.05792  0.26953  1.0000
  C   C27       1.0  0.72870  0.05277  0.27321  1.0000
  H   H21       1.0  0.69204  0.05397  0.21075  1.0000
  C   C28       1.0  0.74160  0.04249  0.19009  1.0000
  H   H22       1.0  0.72870  0.04111  0.13161  1.0000
  H   H23       1.0  0.74908  0.02321  0.20359  1.0000
  H   H24       1.0  0.75753  0.05519  0.17112  1.0000
  C   C29       1.0  0.66124  0.06772  0.34283  1.0000
  H   H25       1.0  0.65223  0.05184  0.32140  1.0000
  C   C30       1.0  0.32640  0.94925  0.34089  1.0000
  C   C31       1.0  0.31235  0.95841  0.26531  1.0000
  C   C32       1.0  0.28560  0.96348  0.26976  1.0000
  H   H26       1.0  0.32212  0.96243  0.20629  1.0000
  C   C33       1.0  0.27251  0.97388  0.18722  1.0000
  H   H27       1.0  0.28527  0.97535  0.12840  1.0000
  H   H28       1.0  0.26504  0.99313  0.20129  1.0000
  H   H29       1.0  0.25655  0.96119  0.16847  1.0000
  C   C34       1.0  0.35329  0.94876  0.33753  1.0000
  H   H30       1.0  0.36217  0.96462  0.31523  1.0000
  C   C35       1.0  0.45888  0.77496  0.34963  1.0000
  C   C36       1.0  0.44827  0.78503  0.26726  1.0000
  C   C37       1.0  0.43760  0.81020  0.26687  1.0000
  H   H31       1.0  0.42966  0.81717  0.20782  1.0000
  C   C38       1.0  0.44766  0.77082  0.17889  1.0000
  H   H32       1.0  0.45656  0.75184  0.18167  1.0000
  H   H33       1.0  0.45781  0.78201  0.12703  1.0000
  H   H34       1.0  0.42775  0.76815  0.15716  1.0000
  C   C39       1.0  0.47074  0.75072  0.35168  1.0000
  H   H35       1.0  0.48981  0.75024  0.35570  1.0000
  C   C40       1.0  0.55758  0.24271  0.35272  1.0000
  C   C41       1.0  0.56803  0.23247  0.27033  1.0000
  C   C42       1.0  0.57831  0.20712  0.26990  1.0000
  H   H36       1.0  0.58614  0.20005  0.21083  1.0000
  C   C43       1.0  0.56882  0.24666  0.18196  1.0000
  H   H37       1.0  0.56028  0.26581  0.18487  1.0000
  H   H38       1.0  0.55841  0.23566  0.13023  1.0000
  H   H39       1.0  0.58875  0.24896  0.16000  1.0000
  C   C44       1.0  0.54586  0.26703  0.35460  1.0000
  H   H40       1.0  0.52678  0.26755  0.35826  1.0000
  C   C45       1.0  0.77422  0.55844  0.35135  1.0000
  C   C46       1.0  0.78464  0.56878  0.26894  1.0000
  C   C47       1.0  0.81010  0.57877  0.26843  1.0000
  H   H41       1.0  0.81729  0.58657  0.20936  1.0000
  C   C48       1.0  0.77051  0.56978  0.18061  1.0000
  H   H42       1.0  0.75127  0.56145  0.18356  1.0000
  H   H43       1.0  0.78122  0.55919  0.12882  1.0000
  H   H44       1.0  0.76865  0.58983  0.15871  1.0000
  C   C49       1.0  0.74974  0.54698  0.35332  1.0000
  H   H45       1.0  0.74881  0.52782  0.35714  1.0000
  C   C50       1.0  0.24512  0.45718  0.35629  1.0000
  C   C51       1.0  0.23445  0.44707  0.27390  1.0000
  C   C52       1.0  0.20871  0.43785  0.27325  1.0000
  H   H46       1.0  0.20133  0.43022  0.21420  1.0000
  C   C53       1.0  0.24861  0.44557  0.18574  1.0000
  H   H47       1.0  0.26817  0.45311  0.18902  1.0000
  H   H48       1.0  0.23838  0.45661  0.13392  1.0000
  H   H49       1.0  0.24970  0.42547  0.16367  1.0000
  C   C54       1.0  0.26969  0.46843  0.35767  1.0000
  H   H50       1.0  0.27060  0.48762  0.35773  1.0000
  C   C55       1.0  0.10295  0.10275  0.34274  1.0000
  C   C56       1.0  0.10906  0.08695  0.26757  1.0000
  C   C57       1.0  0.12403  0.06432  0.27679  1.0000
  H   H51       1.0  0.10101  0.09115  0.20556  1.0000
  C   C58       1.0  0.12802  0.04779  0.19477  1.0000
  H   H52       1.0  0.11975  0.05603  0.13297  1.0000
  H   H53       1.0  0.11918  0.02886  0.20525  1.0000
  H   H54       1.0  0.14857  0.04531  0.18294  1.0000
  C   C59       1.0  0.08342  0.12087  0.33434  1.0000
  H   H55       1.0  0.06749  0.11499  0.30255  1.0000
  C   C60       1.0  0.91573  0.91810  0.34052  1.0000
  C   C61       1.0  0.90996  0.93404  0.26538  1.0000
  C   C62       1.0  0.89475  0.95653  0.27405  1.0000
  H   H56       1.0  0.91833  0.92997  0.20379  1.0000
  C   C63       1.0  0.89101  0.97318  0.19220  1.0000
  H   H57       1.0  0.89959  0.96508  0.13068  1.0000
  H   H58       1.0  0.89968  0.99214  0.20357  1.0000
  H   H59       1.0  0.87049  0.97556  0.17936  1.0000
  C   C64       1.0  0.93535  0.90004  0.33318  1.0000
  H   H60       1.0  0.95168  0.90618  0.30475  1.0000
  C   C65       1.0  0.91597  0.10389  0.34107  1.0000
  C   C66       1.0  0.93190  0.10969  0.26592  1.0000
  C   C67       1.0  0.95480  0.12437  0.27505  1.0000
  H   H61       1.0  0.92754  0.10162  0.20398  1.0000
  C   C68       1.0  0.97138  0.12809  0.19310  1.0000
  H   H62       1.0  0.96298  0.11990  0.13130  1.0000
  H   H63       1.0  0.98999  0.11891  0.20372  1.0000
  H   H64       1.0  0.97438  0.14869  0.18123  1.0000
  C   C69       1.0  0.89753  0.08447  0.33286  1.0000
  H   H65       1.0  0.90316  0.06834  0.30172  1.0000
  C   C70       1.0  0.10928  0.90251  0.36090  1.0000
  C   C71       1.0  0.09528  0.90033  0.27903  1.0000
  C   C72       1.0  0.06965  0.89086  0.27742  1.0000
  H   H66       1.0  0.10383  0.90619  0.21955  1.0000
  C   C73       1.0  0.05585  0.88957  0.18846  1.0000
  H   H67       1.0  0.06779  0.89568  0.13115  1.0000
  H   H68       1.0  0.03900  0.90204  0.19026  1.0000
  H   H69       1.0  0.04962  0.86975  0.17549  1.0000
  C   C74       1.0  0.13401  0.91277  0.36213  1.0000
  H   H70       1.0  0.14887  0.90124  0.37351  1.0000
  C   C75       1.0  0.38430  0.55576  0.34474  1.0000
  C   C76       1.0  0.38957  0.57222  0.26886  1.0000
  C   C77       1.0  0.40468  0.59479  0.28168  1.0000
  H   H71       1.0  0.40982  0.60565  0.22607  1.0000
  C   C78       1.0  0.38113  0.56649  0.17389  1.0000
  H   H72       1.0  0.36860  0.54961  0.16898  1.0000
  H   H73       1.0  0.39791  0.56316  0.13089  1.0000
  H   H74       1.0  0.37048  0.58290  0.14679  1.0000
  C   C79       1.0  0.37654  0.53033  0.32998  1.0000
  H   H75       1.0  0.38966  0.51885  0.30181  1.0000
  C   C80       1.0  0.63199  0.46231  0.34938  1.0000
  C   C81       1.0  0.62696  0.44578  0.27344  1.0000
  C   C82       1.0  0.61156  0.42335  0.28556  1.0000
  H   H76       1.0  0.60666  0.41246  0.22976  1.0000
  C   C83       1.0  0.63598  0.45127  0.17897  1.0000
  H   H77       1.0  0.64864  0.46807  0.17451  1.0000
  H   H78       1.0  0.61947  0.45463  0.13469  1.0000
  H   H79       1.0  0.64667  0.43474  0.15303  1.0000
  C   C84       1.0  0.64038  0.48759  0.33478  1.0000
  H   H80       1.0  0.62745  0.49944  0.30753  1.0000
  C   C85       1.0  0.55548  0.63335  0.34792  1.0000
  C   C86       1.0  0.57209  0.62883  0.27214  1.0000
  C   C87       1.0  0.59457  0.61378  0.28416  1.0000
  H   H81       1.0  0.60554  0.60921  0.22844  1.0000
  C   C88       1.0  0.56664  0.63802  0.17787  1.0000
  H   H82       1.0  0.54978  0.65038  0.17352  1.0000
  H   H83       1.0  0.56356  0.62147  0.13302  1.0000
  H   H84       1.0  0.58300  0.64918  0.15255  1.0000
  C   C89       1.0  0.53028  0.64143  0.33341  1.0000
  H   H85       1.0  0.51852  0.62831  0.30606  1.0000
  C   C90       1.0  0.45878  0.38134  0.35409  1.0000
  C   C91       1.0  0.44479  0.38731  0.27310  1.0000
  C   C92       1.0  0.41952  0.39727  0.28026  1.0000
  H   H86       1.0  0.40963  0.40188  0.22208  1.0000
  C   C93       1.0  0.45519  0.38408  0.17912  1.0000
  H   H87       1.0  0.47430  0.37556  0.17729  1.0000
  H   H88       1.0  0.45624  0.40285  0.14542  1.0000
  H   H89       1.0  0.44245  0.37149  0.13990  1.0000
  C   C94       1.0  0.48498  0.37593  0.34942  1.0000
  H   H90       1.0  0.49662  0.39098  0.33940  1.0000
  C   C95       1.0  0.07773  0.44013  0.36273  1.0000
  N   N1        1.0  0.07302  0.41421  0.36318  1.0000
  C   C96       1.0  0.09236  0.39645  0.36327  1.0000
  N   N2        1.0  0.11698  0.40536  0.36363  1.0000
  C   C97       1.0  0.12279  0.43109  0.36297  1.0000
  N   N3        1.0  0.10283  0.44814  0.36290  1.0000
  N   N4        1.0  0.05747  0.45613  0.36376  1.0000
  N   N5        1.0  0.14712  0.43988  0.36381  1.0000
  N   N6        1.0  0.08857  0.37085  0.36434  1.0000
  C   C98       1.0  0.94095  0.57962  0.35831  1.0000
  N   N7        1.0  0.94520  0.60563  0.35796  1.0000
  C   C99       1.0  0.92557  0.62307  0.35896  1.0000
  N   N8        1.0  0.90109  0.61372  0.36028  1.0000
  C   C100      1.0  0.89574  0.58789  0.36000  1.0000
  N   N9        1.0  0.91599  0.57120  0.35942  1.0000
  N   N10       1.0  0.96147  0.56396  0.35715  1.0000
  N   N11       1.0  0.87161  0.57858  0.36090  1.0000
  N   N12       1.0  0.92897  0.64874  0.36017  1.0000
  C   C101      1.0  0.57874  0.07593  0.36104  1.0000
  N   N13       1.0  0.60459  0.07153  0.36143  1.0000
  C   C102      1.0  0.62220  0.09121  0.36141  1.0000
  N   N14       1.0  0.61321  0.11585  0.36164  1.0000
  C   C103      1.0  0.58756  0.12129  0.36111  1.0000
  N   N15       1.0  0.57071  0.10103  0.36121  1.0000
  N   N16       1.0  0.56262  0.05558  0.36209  1.0000
  N   N17       1.0  0.57843  0.14547  0.36179  1.0000
  N   N18       1.0  0.64774  0.08779  0.36248  1.0000
  C   C104      1.0  0.43590  0.94127  0.35677  1.0000
  N   N19       1.0  0.41002  0.94547  0.35614  1.0000
  C   C105      1.0  0.39254  0.92567  0.35706  1.0000
  N   N20       1.0  0.40172  0.90110  0.35858  1.0000
  C   C106      1.0  0.42740  0.89586  0.35859  1.0000
  N   N21       1.0  0.44411  0.91623  0.35808  1.0000
  N   N22       1.0  0.45187  0.96174  0.35571  1.0000
  N   N23       1.0  0.43674  0.87177  0.35962  1.0000
  N   N24       1.0  0.36698  0.92890  0.35812  1.0000
  N   N25       1.0  0.07131  0.18746  0.36292  1.0000
  C   C107      1.0  0.06576  0.16174  0.36324  1.0000
  N   N26       1.0  0.04059  0.15457  0.36181  1.0000
  C   C108      1.0  0.02107  0.17193  0.35983  1.0000
  N   N27       1.0  0.02741  0.19749  0.35787  1.0000
  N   N28       1.0  0.05960  0.23051  0.35704  1.0000
  N   N29       1.0  0.99657  0.16403  0.35434  1.0000
  N   N30       1.0  0.08442  0.14410  0.36605  1.0000
  N   N31       1.0  0.94642  0.83298  0.35866  1.0000
  C   C109      1.0  0.95236  0.85862  0.35918  1.0000
  N   N32       1.0  0.97765  0.86542  0.35970  1.0000
  C   C110      1.0  0.99691  0.84773  0.35891  1.0000
  N   N33       1.0  0.99014  0.82227  0.35775  1.0000
  N   N34       1.0  0.95757  0.78965  0.35443  1.0000
  N   N35       1.0  0.02170  0.85483  0.35868  1.0000
  N   N36       1.0  0.93386  0.87646  0.36133  1.0000
  N   N37       1.0  0.83093  0.07239  0.36099  1.0000
  C   C111      1.0  0.85653  0.06697  0.36125  1.0000
  N   N38       1.0  0.86352  0.04172  0.35995  1.0000
  C   C112      1.0  0.84622  0.02198  0.35814  1.0000
  N   N39       1.0  0.82079  0.02821  0.35618  1.0000
  N   N40       1.0  0.78797  0.06035  0.35535  1.0000
  N   N41       1.0  0.85422  0.99747  0.35256  1.0000
  N   N42       1.0  0.87434  0.08569  0.36398  1.0000
  N   N43       1.0  0.18272  0.94627  0.35449  1.0000
  C   C113      1.0  0.15739  0.95304  0.35581  1.0000
  N   N44       1.0  0.15152  0.97845  0.35621  1.0000
  C   C114      1.0  0.16972  0.99736  0.35677  1.0000
  N   N45       1.0  0.19483  0.99000  0.35440  1.0000
  N   N46       1.0  0.22635  0.95673  0.35035  1.0000
  N   N47       1.0  0.16275  0.02218  0.35240  1.0000
  N   N48       1.0  0.13721  0.93728  0.35456  1.0000
  C   C115      1.0  0.46531  0.70475  0.34952  1.0000
  N   N49       1.0  0.44652  0.68634  0.34598  1.0000
  C   C116      1.0  0.45209  0.66070  0.34707  1.0000
  N   N50       1.0  0.47725  0.65381  0.34990  1.0000
  C   C117      1.0  0.49676  0.67137  0.35217  1.0000
  N   N51       1.0  0.49039  0.69690  0.35309  1.0000
  N   N52       1.0  0.45785  0.72941  0.34886  1.0000
  N   N53       1.0  0.52121  0.66355  0.35793  1.0000
  N   N54       1.0  0.43348  0.64287  0.34359  1.0000
  C   C118      1.0  0.55114  0.31302  0.35304  1.0000
  N   N55       1.0  0.56970  0.33170  0.35068  1.0000
  C   C119      1.0  0.56382  0.35728  0.35179  1.0000
  N   N56       1.0  0.53855  0.36388  0.35364  1.0000
  C   C120      1.0  0.51927  0.34604  0.35531  1.0000
  N   N57       1.0  0.52598  0.32061  0.35537  1.0000
  N   N58       1.0  0.55874  0.28837  0.35224  1.0000
  N   N59       1.0  0.49452  0.35306  0.35758  1.0000
  N   N60       1.0  0.58235  0.37525  0.34880  1.0000
  C   C121      1.0  0.70405  0.55282  0.35130  1.0000
  N   N61       1.0  0.68585  0.57170  0.34818  1.0000
  C   C122      1.0  0.66025  0.56610  0.34926  1.0000
  N   N62       1.0  0.65323  0.54081  0.35178  1.0000
  C   C123      1.0  0.67053  0.52121  0.35368  1.0000
  N   N63       1.0  0.69599  0.52762  0.35457  1.0000
  N   N64       1.0  0.72876  0.56016  0.35064  1.0000
  N   N65       1.0  0.66250  0.49665  0.35936  1.0000
  N   N66       1.0  0.64252  0.58474  0.34636  1.0000
  C   C124      1.0  0.31534  0.46305  0.35682  1.0000
  N   N67       1.0  0.33420  0.44476  0.35455  1.0000
  C   C125      1.0  0.35960  0.45149  0.35159  1.0000
  N   N68       1.0  0.36573  0.47689  0.35057  1.0000
  C   C126      1.0  0.34773  0.49581  0.35236  1.0000
  N   N69       1.0  0.32255  0.48851  0.35641  1.0000
  N   N70       1.0  0.29071  0.45526  0.35743  1.0000
  N   N71       1.0  0.35491  0.52062  0.35668  1.0000
  N   N72       1.0  0.37960  0.43567  0.34916  1.0000
  C   C127      1.0  0.03243  0.49413  0.35094  1.0000
  C   C128      1.0  0.01853  0.49770  0.43246  1.0000
  C   C129      1.0  0.99606  0.51321  0.43650  1.0000
  H   H91       1.0  0.02518  0.48902  0.49055  1.0000
  C   C130      1.0  0.98270  0.51617  0.52573  1.0000
  H   H92       1.0  0.99223  0.50584  0.58096  1.0000
  H   H93       1.0  0.96308  0.50876  0.52067  1.0000
  H   H94       1.0  0.98205  0.53657  0.54436  1.0000
  C   C131      1.0  0.05568  0.48062  0.34856  1.0000
  H   H95       1.0  0.07138  0.49043  0.33075  1.0000
  C   C132      1.0  0.52407  0.03106  0.34968  1.0000
  C   C133      1.0  0.51985  0.01733  0.43134  1.0000
  C   C134      1.0  0.50354  0.99524  0.43536  1.0000
  H   H96       1.0  0.52867  0.02381  0.48949  1.0000
  C   C135      1.0  0.50000  0.98195  0.52464  1.0000
  H   H97       1.0  0.51060  0.99125  0.57991  1.0000
  H   H98       1.0  0.50663  0.96203  0.51977  1.0000
  H   H99       1.0  0.47967  0.98191  0.54304  1.0000
  C   C136      1.0  0.53817  0.05415  0.34747  1.0000
  H   H100      1.0  0.52871  0.07010  0.33049  1.0000
  C   C137      1.0  0.05632  0.27612  0.35774  1.0000
  C   C138      1.0  0.06649  0.28970  0.43456  1.0000
  C   C139      1.0  0.07192  0.31656  0.42736  1.0000
  H   H101      1.0  0.07810  0.32644  0.48387  1.0000
  C   C140      1.0  0.07098  0.27757  0.52522  1.0000
  H   H102      1.0  0.06691  0.25691  0.52654  1.0000
  H   H103      1.0  0.05881  0.28677  0.57624  1.0000
  H   H104      1.0  0.09106  0.28020  0.54485  1.0000
  C   C141      1.0  0.04614  0.25118  0.36656  1.0000
  H   H105      1.0  0.02735  0.24971  0.37830  1.0000
  C   C142      1.0  0.96046  0.74393  0.35586  1.0000
  C   C143      1.0  0.95045  0.73013  0.43247  1.0000
  C   C144      1.0  0.94515  0.70325  0.42477  1.0000
  H   H106      1.0  0.93914  0.69323  0.48121  1.0000
  C   C145      1.0  0.94599  0.74208  0.52344  1.0000
  H   H107      1.0  0.94986  0.76278  0.52504  1.0000
  H   H108      1.0  0.95832  0.73292  0.57405  1.0000
  H   H109      1.0  0.92596  0.73923  0.54343  1.0000
  C   C146      1.0  0.97073  0.76884  0.36544  1.0000
  H   H110      1.0  0.98944  0.77015  0.37881  1.0000
  C   C147      1.0  0.74244  0.05677  0.35629  1.0000
  C   C148      1.0  0.72889  0.06679  0.43317  1.0000
  C   C149      1.0  0.70212  0.07188  0.42624  1.0000
  H   H111      1.0  0.69229  0.07794  0.48286  1.0000
  C   C150      1.0  0.74101  0.07147  0.52372  1.0000
  H   H112      1.0  0.76160  0.06769  0.52483  1.0000
  H   H113      1.0  0.73196  0.05909  0.57479  1.0000
  H   H114      1.0  0.73829  0.09160  0.54345  1.0000
  C   C151      1.0  0.76731  0.04675  0.36499  1.0000
  H   H115      1.0  0.76873  0.02789  0.37679  1.0000
  C   C152      1.0  0.27205  0.95940  0.35318  1.0000
  C   C153      1.0  0.28581  0.94936  0.42959  1.0000
  C   C154      1.0  0.31258  0.94435  0.42187  1.0000
  H   H116      1.0  0.32255  0.93832  0.47822  1.0000
  C   C155      1.0  0.27389  0.94460  0.52042  1.0000
  H   H117      1.0  0.25327  0.94819  0.52193  1.0000
  H   H118      1.0  0.28293  0.95706  0.57127  1.0000
  H   H119      1.0  0.27681  0.92449  0.54012  1.0000
  C   C156      1.0  0.24732  0.96966  0.36324  1.0000
  H   H120      1.0  0.24627  0.98833  0.37883  1.0000
  C   C157      1.0  0.43778  0.82624  0.34457  1.0000
  C   C158      1.0  0.44839  0.81612  0.42534  1.0000
  C   C159      1.0  0.45889  0.79085  0.42928  1.0000
  H   H121      1.0  0.44800  0.82727  0.48301  1.0000
  C   C160      1.0  0.46928  0.78138  0.51781  1.0000
  H   H122      1.0  0.46745  0.79551  0.57260  1.0000
  H   H123      1.0  0.48964  0.77684  0.51054  1.0000
  H   H124      1.0  0.45892  0.76396  0.53853  1.0000
  C   C161      1.0  0.42538  0.85008  0.34260  1.0000
  H   H125      1.0  0.40701  0.85013  0.32359  1.0000
  C   C162      1.0  0.57788  0.19106  0.34754  1.0000
  C   C163      1.0  0.56749  0.20138  0.42837  1.0000
  C   C164      1.0  0.55736  0.22679  0.43232  1.0000
  H   H126      1.0  0.56773  0.19022  0.48603  1.0000
  C   C165      1.0  0.54709  0.23639  0.52086  1.0000
  H   H127      1.0  0.54873  0.22224  0.57565  1.0000
  H   H128      1.0  0.52678  0.24119  0.51360  1.0000
  H   H129      1.0  0.55765  0.25368  0.54158  1.0000
  C   C166      1.0  0.59004  0.16708  0.34564  1.0000
  H   H130      1.0  0.60850  0.16689  0.32782  1.0000
  C   C167      1.0  0.82611  0.57814  0.34600  1.0000
  C   C168      1.0  0.81563  0.56782  0.42684  1.0000
  C   C169      1.0  0.79010  0.55799  0.43087  1.0000
  H   H131      1.0  0.82673  0.56796  0.48452  1.0000
  C   C170      1.0  0.78033  0.54782  0.51945  1.0000
  H   H132      1.0  0.79446  0.54928  0.57419  1.0000
  H   H133      1.0  0.77507  0.52749  0.51224  1.0000
  H   H134      1.0  0.76337  0.55868  0.54022  1.0000
  C   C171      1.0  0.85019  0.59020  0.34414  1.0000
  H   H135      1.0  0.85061  0.60870  0.32565  1.0000
  C   C172      1.0  0.19266  0.43907  0.35063  1.0000
  C   C173      1.0  0.20342  0.44907  0.43153  1.0000
  C   C174      1.0  0.22920  0.45818  0.43564  1.0000
  H   H136      1.0  0.19227  0.44933  0.48909  1.0000
  C   C175      1.0  0.23918  0.46826  0.52404  1.0000
  H   H137      1.0  0.22499  0.46726  0.57872  1.0000
  H   H138      1.0  0.24496  0.48844  0.51640  1.0000
  H   H139      1.0  0.25585  0.45701  0.54514  1.0000
  C   C176      1.0  0.16830  0.42763  0.34877  1.0000
  H   H140      1.0  0.16749  0.40901  0.33204  1.0000
  C   C177      1.0  0.13350  0.05726  0.36457  1.0000
  C   C178      1.0  0.12849  0.07372  0.44056  1.0000
  C   C179      1.0  0.11337  0.09618  0.42827  1.0000
  H   H141      1.0  0.10840  0.10700  0.48404  1.0000
  C   C180      1.0  0.13721  0.06808  0.53522  1.0000
  H   H142      1.0  0.14973  0.05130  0.53971  1.0000
  H   H143      1.0  0.12055  0.06463  0.57886  1.0000
  H   H144      1.0  0.14796  0.08459  0.56188  1.0000
  C   C181      1.0  0.14118  0.03184  0.37916  1.0000
  H   H145      1.0  0.12801  0.02031  0.40738  1.0000
  C   C182      1.0  0.88474  0.96339  0.36125  1.0000
  C   C183      1.0  0.88955  0.94688  0.43728  1.0000
  C   C184      1.0  0.90485  0.92451  0.42549  1.0000
  H   H146      1.0  0.90961  0.91364  0.48139  1.0000
  C   C185      1.0  0.88040  0.95234  0.53156  1.0000
  H   H147      1.0  0.86783  0.96910  0.53575  1.0000
  H   H148      1.0  0.89686  0.95576  0.57617  1.0000
  H   H149      1.0  0.86957  0.93577  0.55729  1.0000
  C   C186      1.0  0.87648  0.98864  0.37566  1.0000
  H   H150      1.0  0.88958  0.00066  0.40159  1.0000
  C   C187      1.0  0.96205  0.13385  0.36272  1.0000
  C   C188      1.0  0.94558  0.12907  0.43878  1.0000
  C   C189      1.0  0.92283  0.11424  0.42657  1.0000
  H   H151      1.0  0.91196  0.10943  0.48239  1.0000
  C   C190      1.0  0.95143  0.13774  0.53343  1.0000
  H   H152      1.0  0.96850  0.14996  0.53797  1.0000
  H   H153      1.0  0.95436  0.12095  0.57712  1.0000
  H   H154      1.0  0.93532  0.14888  0.56000  1.0000
  C   C191      1.0  0.98740  0.14171  0.37683  1.0000
  H   H155      1.0  0.99913  0.12836  0.40227  1.0000
  C   C192      1.0  0.05761  0.88314  0.36058  1.0000
  C   C193      1.0  0.07164  0.88514  0.44393  1.0000
  C   C194      1.0  0.09728  0.89454  0.44231  1.0000
  H   H156      1.0  0.10722  0.89633  0.50239  1.0000
  C   C195      1.0  0.06088  0.87849  0.53518  1.0000
  H   H157      1.0  0.04130  0.87096  0.53266  1.0000
  H   H158      1.0  0.06080  0.89567  0.57829  1.0000
  H   H159      1.0  0.07283  0.86381  0.56737  1.0000
  C   C196      1.0  0.03132  0.87785  0.36147  1.0000
  H   H160      1.0  0.01971  0.89306  0.36420  1.0000
  C   C197      1.0  0.41483  0.60147  0.36760  1.0000
  C   C198      1.0  0.40846  0.58566  0.44261  1.0000
  C   C199      1.0  0.39350  0.56291  0.43290  1.0000
  H   H161      1.0  0.41630  0.58996  0.50493  1.0000
  C   C200      1.0  0.38923  0.54637  0.51483  1.0000
  H   H162      1.0  0.39735  0.55468  0.57689  1.0000
  H   H163      1.0  0.39803  0.52749  0.50472  1.0000
  H   H164      1.0  0.36864  0.54378  0.52597  1.0000
  C   C201      1.0  0.43428  0.61982  0.37679  1.0000
  H   H165      1.0  0.44998  0.61427  0.41038  1.0000
  C   C202      1.0  0.60081  0.41688  0.37078  1.0000
  C   C203      1.0  0.60683  0.43283  0.44581  1.0000
  C   C204      1.0  0.62212  0.45539  0.43682  1.0000
  H   H166      1.0  0.59860  0.42869  0.50763  1.0000
  C   C205      1.0  0.62611  0.47203  0.51864  1.0000
  H   H167      1.0  0.61756  0.46391  0.58029  1.0000
  H   H168      1.0  0.61755  0.49098  0.50747  1.0000
  H   H169      1.0  0.64666  0.47445  0.53111  1.0000
  C   C206      1.0  0.58118  0.39865  0.37879  1.0000
  H   H170      1.0  0.56513  0.40449  0.40947  1.0000
  C   C207      1.0  0.60102  0.60293  0.36918  1.0000
  C   C208      1.0  0.58495  0.60843  0.44411  1.0000
  C   C209      1.0  0.56231  0.62331  0.43516  1.0000
  H   H171      1.0  0.58902  0.60002  0.50568  1.0000
  C   C210      1.0  0.54553  0.62665  0.51672  1.0000
  H   H172      1.0  0.55360  0.61803  0.57822  1.0000
  H   H173      1.0  0.52681  0.61766  0.50469  1.0000
  H   H174      1.0  0.54281  0.64719  0.53002  1.0000
  C   C211      1.0  0.61928  0.58347  0.37704  1.0000
  H   H175      1.0  0.61350  0.56730  0.40796  1.0000
  C   C212      1.0  0.40761  0.40138  0.36524  1.0000
  C   C213      1.0  0.42147  0.39498  0.44458  1.0000
  C   C214      1.0  0.44694  0.38540  0.44064  1.0000
  H   H176      1.0  0.41308  0.39820  0.50673  1.0000
  C   C215      1.0  0.46090  0.38046  0.52763  1.0000
  H   H177      1.0  0.44924  0.38447  0.58779  1.0000
  H   H178      1.0  0.47805  0.39264  0.53126  1.0000
  H   H179      1.0  0.46667  0.36024  0.53073  1.0000
  C   C216      1.0  0.38312  0.41195  0.37123  1.0000
  H   H180      1.0  0.36901  0.40175  0.39963  1.0000
