data_image0
_chemical_formula_structural       C2HC3HC2H4CHC2HC3HC2H4CHC2HC3HC2H4CHCNCNCN4CNCNCN4C7H3NO2CHC7H3NO2CHC7H3NO2CH
_chemical_formula_sum              "C54 H33 N15 O6"
_cell_length_a       29.2631
_cell_length_b       29.2632
_cell_length_c       14.9924
_cell_angle_alpha    90
_cell_angle_beta     90
_cell_angle_gamma    120

_space_group_name_H-M_alt    "P 1"
_space_group_IT_number       1

loop_
  _space_group_symop_operation_xyz
  'x, y, z'

loop_
  _atom_site_type_symbol
  _atom_site_label
  _atom_site_symmetry_multiplicity
  _atom_site_fract_x
  _atom_site_fract_y
  _atom_site_fract_z
  _atom_site_occupancy
  C   C1        1.0  0.45423  0.51502  0.28323  1.0000
  C   C2        1.0  0.42389  0.54014  0.29052  1.0000
  H   H1        1.0  0.41080  0.54963  0.23391  1.0000
  C   C3        1.0  0.54776  0.40777  0.32346  1.0000
  C   C4        1.0  0.51327  0.40863  0.25854  1.0000
  C   C5        1.0  0.49020  0.44071  0.26938  1.0000
  H   H2        1.0  0.50494  0.38582  0.20238  1.0000
  C   C6        1.0  0.45723  0.44400  0.19679  1.0000
  C   C7        1.0  0.46455  0.50022  0.19341  1.0000
  H   H3        1.0  0.41583  0.41505  0.20961  1.0000
  H   H4        1.0  0.46793  0.43517  0.13173  1.0000
  H   H5        1.0  0.43830  0.50112  0.14235  1.0000
  H   H6        1.0  0.50513  0.52854  0.17410  1.0000
  C   C8        1.0  0.56724  0.37358  0.31408  1.0000
  H   H7        1.0  0.54307  0.33726  0.29155  1.0000
  C   C9        1.0  0.48568  0.93931  0.28334  1.0000
  C   C10       1.0  0.46058  0.88385  0.29068  1.0000
  H   H8        1.0  0.45100  0.86125  0.23409  1.0000
  C   C11       1.0  0.59286  0.14011  0.32343  1.0000
  C   C12       1.0  0.59200  0.10475  0.25853  1.0000
  C   C13       1.0  0.55993  0.04960  0.26941  1.0000
  H   H9        1.0  0.61479  0.11922  0.20236  1.0000
  C   C14       1.0  0.55664  0.01332  0.19683  1.0000
  C   C15       1.0  0.50045  0.96441  0.19350  1.0000
  H   H10       1.0  0.58562  0.00091  0.20965  1.0000
  H   H11       1.0  0.56545  0.03284  0.13176  1.0000
  H   H12       1.0  0.49955  0.93725  0.14246  1.0000
  H   H13       1.0  0.47209  0.97663  0.17420  1.0000
  C   C16       1.0  0.62703  0.19377  0.31403  1.0000
  H   H14       1.0  0.66334  0.20593  0.29144  1.0000
  C   C17       1.0  0.06131  0.54648  0.28330  1.0000
  C   C18       1.0  0.11677  0.57682  0.29066  1.0000
  H   H15       1.0  0.13938  0.58987  0.23407  1.0000
  C   C19       1.0  0.86051  0.45286  0.32338  1.0000
  C   C20       1.0  0.89587  0.48736  0.25847  1.0000
  C   C21       1.0  0.95103  0.51046  0.26936  1.0000
  H   H16       1.0  0.88140  0.49569  0.20231  1.0000
  C   C22       1.0  0.98730  0.54344  0.19679  1.0000
  C   C23       1.0  0.03622  0.53617  0.19345  1.0000
  H   H17       1.0  0.99971  0.58484  0.20962  1.0000
  H   H18       1.0  0.96779  0.53274  0.13171  1.0000
  H   H19       1.0  0.06338  0.56244  0.14243  1.0000
  H   H20       1.0  0.02400  0.49560  0.17413  1.0000
  C   C24       1.0  0.80685  0.43338  0.31397  1.0000
  H   H21       1.0  0.79469  0.45753  0.29140  1.0000
  C   C25       1.0  0.27984  0.64009  0.35161  1.0000
  N   N1        1.0  0.30684  0.61359  0.35115  1.0000
  C   C26       1.0  0.36053  0.63987  0.35157  1.0000
  N   N2        1.0  0.38703  0.69338  0.35117  1.0000
  C   C27       1.0  0.36074  0.72078  0.35166  1.0000
  N   N3        1.0  0.30724  0.69378  0.35123  1.0000
  N   N4        1.0  0.22774  0.61243  0.35073  1.0000
  N   N5        1.0  0.38518  0.77288  0.35077  1.0000
  N   N6        1.0  0.38819  0.61543  0.35059  1.0000
  C   C28       1.0  0.72093  0.36079  0.32930  1.0000
  N   N7        1.0  0.69333  0.38688  0.33002  1.0000
  C   C29       1.0  0.63983  0.36025  0.32938  1.0000
  N   N8        1.0  0.61375  0.30657  0.33007  1.0000
  C   C30       1.0  0.64037  0.27969  0.32937  1.0000
  N   N9        1.0  0.69405  0.30729  0.33002  1.0000
  N   N10       1.0  0.77301  0.38521  0.33288  1.0000
  N   N11       1.0  0.61271  0.22761  0.33294  1.0000
  N   N12       1.0  0.61541  0.38791  0.33294  1.0000
  C   C31       1.0  0.40894  0.54977  0.37455  1.0000
  C   C32       1.0  0.42427  0.53331  0.45150  1.0000
  C   C33       1.0  0.45492  0.50825  0.44609  1.0000
  C   C34       1.0  0.47174  0.50009  0.36112  1.0000
  C   C35       1.0  0.49904  0.47079  0.34887  1.0000
  C   C36       1.0  0.53677  0.47254  0.41008  1.0000
  C   C37       1.0  0.56033  0.44126  0.39827  1.0000
  H   H22       1.0  0.54840  0.49726  0.46378  1.0000
  H   H23       1.0  0.58600  0.44244  0.44587  1.0000
  H   H24       1.0  0.41145  0.53783  0.51276  1.0000
  N   N13       1.0  0.46422  0.48752  0.52506  1.0000
  O   O1        1.0  0.48954  0.52292  0.58193  1.0000
  O   O2        1.0  0.42212  0.45248  0.55999  1.0000
  C   C38       1.0  0.37505  0.56952  0.38142  1.0000
  H   H25       1.0  0.34079  0.54799  0.41282  1.0000
  C   C39       1.0  0.45088  0.85928  0.37473  1.0000
  C   C40       1.0  0.46740  0.89110  0.45165  1.0000
  C   C41       1.0  0.49244  0.94681  0.44621  1.0000
  C   C42       1.0  0.50060  0.97177  0.36121  1.0000
  C   C43       1.0  0.52987  0.02836  0.34891  1.0000
  C   C44       1.0  0.52810  0.06436  0.41009  1.0000
  C   C45       1.0  0.55940  0.11919  0.39828  1.0000
  H   H26       1.0  0.50340  0.05126  0.46382  1.0000
  H   H27       1.0  0.55819  0.14369  0.44585  1.0000
  H   H28       1.0  0.46281  0.87378  0.51293  1.0000
  N   N14       1.0  0.51315  0.97686  0.52516  1.0000
  O   O3        1.0  0.47773  0.96678  0.58201  1.0000
  O   O4        1.0  0.54819  0.96982  0.56013  1.0000
  C   C46       1.0  0.43109  0.80564  0.38162  1.0000
  H   H29       1.0  0.45265  0.79289  0.41286  1.0000
  C   C47       1.0  0.14133  0.59171  0.37471  1.0000
  C   C48       1.0  0.10951  0.57638  0.45163  1.0000
  C   C49       1.0  0.05380  0.54574  0.44617  1.0000
  C   C50       1.0  0.02886  0.52897  0.36117  1.0000
  C   C51       1.0  0.97226  0.50162  0.34886  1.0000
  C   C52       1.0  0.93627  0.46387  0.41004  1.0000
  C   C53       1.0  0.88143  0.44031  0.39821  1.0000
  H   H30       1.0  0.94936  0.45226  0.46378  1.0000
  H   H31       1.0  0.85694  0.41463  0.44581  1.0000
  H   H32       1.0  0.12684  0.58914  0.51291  1.0000
  N   N15       1.0  0.02375  0.53641  0.52513  1.0000
  O   O5        1.0  0.03381  0.51106  0.58198  1.0000
  O   O6        1.0  0.03080  0.57850  0.56009  1.0000
  C   C54       1.0  0.19497  0.62556  0.38160  1.0000
  H   H33       1.0  0.20772  0.65986  0.41288  1.0000
