data_image0
_chemical_formula_structural       C18H17C4NOCHC2NOCHC3NC3NC5NC4NC35H25C2NOCHC4NOCH
_chemical_formula_sum              "C84 H46 N8 O4"
_cell_length_a       30.0027
_cell_length_b       30.0025
_cell_length_c       14.8412
_cell_angle_alpha    90
_cell_angle_beta     90
_cell_angle_gamma    89.9286

_space_group_name_H-M_alt    "P 1"
_space_group_IT_number       1

loop_
  _space_group_symop_operation_xyz
  'x, y, z'

loop_
  _atom_site_type_symbol
  _atom_site_label
  _atom_site_symmetry_multiplicity
  _atom_site_fract_x
  _atom_site_fract_y
  _atom_site_fract_z
  _atom_site_occupancy
  C   C1        1.0  0.09814  0.04833  0.34540  1.0000
  C   C2        1.0  0.00106  0.24112  0.26234  1.0000
  C   C3        1.0  0.00088  0.19417  0.26239  1.0000
  C   C4        1.0  0.97694  0.33857  0.28221  1.0000
  C   C5        1.0  0.97736  0.38551  0.28187  1.0000
  C   C6        1.0  0.00388  0.40959  0.34369  1.0000
  C   C7        1.0  0.23821  0.00722  0.26499  1.0000
  C   C8        1.0  0.19127  0.00753  0.26466  1.0000
  C   C9        1.0  0.38233  0.03116  0.28516  1.0000
  C   C10       1.0  0.33539  0.03155  0.28561  1.0000
  C   C11       1.0  0.01145  0.81681  0.26620  1.0000
  C   C12       1.0  0.01202  0.76987  0.26640  1.0000
  C   C13       1.0  0.03800  0.62636  0.30229  1.0000
  C   C14       1.0  0.03775  0.67331  0.30229  1.0000
  C   C15       1.0  0.81365  0.99691  0.26470  1.0000
  C   C16       1.0  0.76671  0.99662  0.26505  1.0000
  C   C17       1.0  0.67024  0.97094  0.30165  1.0000
  C   C18       1.0  0.62329  0.97060  0.30229  1.0000
  H   H1        1.0  0.60725  0.94452  0.27203  1.0000
  H   H2        1.0  0.68656  0.94518  0.27069  1.0000
  H   H3        1.0  0.75046  0.99069  0.20564  1.0000
  H   H4        1.0  0.83018  0.99064  0.20570  1.0000
  H   H5        1.0  0.01751  0.83340  0.20720  1.0000
  H   H6        1.0  0.01798  0.75369  0.20690  1.0000
  H   H7        1.0  0.09280  0.15585  0.34484  1.0000
  H   H8        1.0  0.17476  0.00891  0.20435  1.0000
  H   H9        1.0  0.25431  0.00769  0.20425  1.0000
  H   H10       1.0  0.31943  0.05234  0.24150  1.0000
  H   H11       1.0  0.39876  0.05135  0.24059  1.0000
  H   H12       1.0  0.99981  0.17753  0.20221  1.0000
  H   H13       1.0  0.00078  0.25710  0.20147  1.0000
  H   H14       1.0  0.95724  0.40202  0.23723  1.0000
  H   H15       1.0  0.95624  0.32268  0.23790  1.0000
  H   H16       1.0  0.06355  0.68963  0.27160  1.0000
  H   H17       1.0  0.06403  0.61030  0.27177  1.0000
  C   C19       1.0  0.00400  0.55404  0.34485  1.0000
  C   C20       1.0  0.01292  0.52910  0.26567  1.0000
  C   C21       1.0  0.01259  0.48244  0.26576  1.0000
  C   C22       1.0  0.00394  0.45707  0.34416  1.0000
  N   N1        1.0  0.02265  0.46924  0.18255  1.0000
  O   O1        1.0  0.02188  0.54540  0.18189  1.0000
  C   C23       1.0  0.02805  0.50676  0.13469  1.0000
  H   H18       1.0  0.03677  0.50649  0.06823  1.0000
  C   C24       1.0  0.47884  0.99567  0.26731  1.0000
  C   C25       1.0  0.52551  0.99552  0.26780  1.0000
  N   N2        1.0  0.53842  0.98621  0.18400  1.0000
  O   O2        1.0  0.46226  0.98564  0.18431  1.0000
  C   C26       1.0  0.50084  0.98065  0.13639  1.0000
  H   H19       1.0  0.50106  0.97188  0.06995  1.0000
  C   C27       1.0  0.88708  0.08855  0.34192  1.0000
  C   C28       1.0  0.91962  0.12107  0.34209  1.0000
  C   C29       1.0  0.96124  0.10013  0.34418  1.0000
  N   N3        1.0  0.95230  0.05580  0.34563  1.0000
  C   C30       1.0  0.90796  0.04689  0.34445  1.0000
  C   C31       1.0  0.88538  0.00513  0.34482  1.0000
  C   C32       1.0  0.90694  0.96290  0.34522  1.0000
  N   N4        1.0  0.95120  0.95422  0.34542  1.0000
  C   C33       1.0  0.95991  0.90997  0.34567  1.0000
  C   C34       1.0  0.91843  0.88886  0.34530  1.0000
  C   C35       1.0  0.88587  0.92141  0.34569  1.0000
  C   C36       1.0  0.00215  0.88844  0.34600  1.0000
  C   C37       1.0  0.04388  0.91104  0.34633  1.0000
  N   N5        1.0  0.05276  0.95539  0.34510  1.0000
  C   C38       1.0  0.09709  0.96434  0.34649  1.0000
  C   C39       1.0  0.11805  0.92273  0.34861  1.0000
  C   C40       1.0  0.08556  0.89019  0.34889  1.0000
  C   C41       1.0  0.11962  0.00609  0.34600  1.0000
  N   N6        1.0  0.05389  0.05697  0.34527  1.0000
  C   C42       1.0  0.04523  0.10121  0.34511  1.0000
  C   C43       1.0  0.08669  0.12234  0.34507  1.0000
  C   C44       1.0  0.11926  0.08979  0.34536  1.0000
  C   C45       1.0  0.00298  0.12267  0.34456  1.0000
  C   C46       1.0  0.00262  0.17027  0.34423  1.0000
  C   C47       1.0  0.00447  0.19435  0.42584  1.0000
  C   C48       1.0  0.00460  0.24129  0.42543  1.0000
  C   C49       1.0  0.00299  0.26582  0.34376  1.0000
  C   C50       1.0  0.00335  0.31373  0.34357  1.0000
  C   C51       1.0  0.03019  0.38512  0.40533  1.0000
  C   C52       1.0  0.03009  0.33818  0.40486  1.0000
  C   C53       1.0  0.16721  0.00570  0.34629  1.0000
  C   C54       1.0  0.19112  0.00358  0.42808  1.0000
  C   C55       1.0  0.23807  0.00333  0.42805  1.0000
  C   C56       1.0  0.26275  0.00516  0.34660  1.0000
  C   C57       1.0  0.31067  0.00496  0.34671  1.0000
  C   C58       1.0  0.33522  0.97814  0.40781  1.0000
  C   C59       1.0  0.38217  0.97809  0.40822  1.0000
  C   C60       1.0  0.40652  0.00449  0.34664  1.0000
  C   C61       1.0  0.00260  0.84078  0.34615  1.0000
  C   C62       1.0  0.00330  0.74537  0.34609  1.0000
  C   C63       1.0  0.99426  0.76974  0.42584  1.0000
  C   C64       1.0  0.99415  0.81668  0.42610  1.0000
  C   C65       1.0  0.00354  0.69763  0.34598  1.0000
  C   C66       1.0  0.96951  0.67302  0.38936  1.0000
  C   C67       1.0  0.96959  0.62606  0.38876  1.0000
  C   C68       1.0  0.00387  0.60173  0.34533  1.0000
  C   C69       1.0  0.83772  0.00551  0.34462  1.0000
  C   C70       1.0  0.81371  0.01414  0.42462  1.0000
  C   C71       1.0  0.76677  0.01431  0.42452  1.0000
  C   C72       1.0  0.74230  0.00539  0.34487  1.0000
  C   C73       1.0  0.69456  0.00516  0.34511  1.0000
  C   C74       1.0  0.59865  0.00461  0.34588  1.0000
  C   C75       1.0  0.62299  0.03892  0.38900  1.0000
  C   C76       1.0  0.66994  0.03910  0.38895  1.0000
  H   H20       1.0  0.60671  0.06481  0.41956  1.0000
  H   H21       1.0  0.68603  0.06504  0.41967  1.0000
  H   H22       1.0  0.75057  0.02008  0.48407  1.0000
  H   H23       1.0  0.83028  0.02026  0.48363  1.0000
  H   H24       1.0  0.85364  0.09493  0.33976  1.0000
  H   H25       1.0  0.91330  0.15454  0.34031  1.0000
  H   H26       1.0  0.97492  0.03317  0.34805  1.0000
  H   H27       1.0  0.03013  0.97799  0.34264  1.0000
  H   H28       1.0  0.85239  0.91522  0.34594  1.0000
  H   H29       1.0  0.91227  0.85538  0.34509  1.0000
  H   H30       1.0  0.98780  0.83319  0.48509  1.0000
  H   H31       1.0  0.98849  0.75346  0.48529  1.0000
  H   H32       1.0  0.09197  0.85675  0.35104  1.0000
  H   H33       1.0  0.15152  0.91643  0.35033  1.0000
  H   H34       1.0  0.15276  0.09591  0.34557  1.0000
  H   H35       1.0  0.17449  0.00245  0.48827  1.0000
  H   H36       1.0  0.25407  0.00271  0.48889  1.0000
  H   H37       1.0  0.39847  0.95774  0.45275  1.0000
  H   H38       1.0  0.31911  0.95754  0.45198  1.0000
  H   H39       1.0  0.05060  0.32199  0.44918  1.0000
  H   H40       1.0  0.05042  0.40133  0.45015  1.0000
  H   H41       1.0  0.00515  0.25740  0.48614  1.0000
  H   H42       1.0  0.00566  0.17785  0.48617  1.0000
  H   H43       1.0  0.94358  0.68912  0.42022  1.0000
  H   H44       1.0  0.94363  0.60980  0.41896  1.0000
  C   C77       1.0  0.99536  0.48182  0.42346  1.0000
  C   C78       1.0  0.99519  0.52848  0.42320  1.0000
  N   N7        1.0  0.98583  0.54130  0.50704  1.0000
  O   O3        1.0  0.98526  0.46515  0.50636  1.0000
  C   C79       1.0  0.98042  0.50366  0.55455  1.0000
  H   H45       1.0  0.97129  0.50380  0.62078  1.0000
  C   C80       1.0  0.45399  0.00426  0.34648  1.0000
  C   C81       1.0  0.55096  0.00440  0.34625  1.0000
  C   C82       1.0  0.52591  0.01320  0.42535  1.0000
  C   C83       1.0  0.47926  0.01281  0.42505  1.0000
  N   N8        1.0  0.46595  0.02296  0.50815  1.0000
  O   O4        1.0  0.54211  0.02224  0.50919  1.0000
  C   C84       1.0  0.50340  0.02839  0.55620  1.0000
  H   H46       1.0  0.50305  0.03721  0.62260  1.0000
