data_image0
_chemical_formula_structural       C16H16C3HCH3CHC3HCH3CHC3NC3NC5NC5NC36H26N4CN2CHCN2CH
_chemical_formula_sum              "C82 H54 N12"
_cell_length_a       34.2813
_cell_length_b       34.2794
_cell_length_c       14.7129
_cell_angle_alpha    90
_cell_angle_beta     90
_cell_angle_gamma    89.934

_space_group_name_H-M_alt    "P 1"
_space_group_IT_number       1

loop_
  _space_group_symop_operation_xyz
  'x, y, z'

loop_
  _atom_site_type_symbol
  _atom_site_label
  _atom_site_symmetry_multiplicity
  _atom_site_fract_x
  _atom_site_fract_y
  _atom_site_fract_z
  _atom_site_occupancy
  C   C1        1.0  0.17797  0.01166  0.29309  1.0000
  C   C2        1.0  0.21906  0.01229  0.29148  1.0000
  C   C3        1.0  0.34441  0.03802  0.30929  1.0000
  C   C4        1.0  0.30335  0.03684  0.31230  1.0000
  C   C5        1.0  0.01067  0.17520  0.29696  1.0000
  C   C6        1.0  0.01088  0.21632  0.29742  1.0000
  C   C7        1.0  0.98899  0.30122  0.32509  1.0000
  C   C8        1.0  0.98859  0.34232  0.32556  1.0000
  C   C9        1.0  0.80640  0.00790  0.29774  1.0000
  C   C10       1.0  0.84752  0.00719  0.29711  1.0000
  C   C11       1.0  0.72136  0.98692  0.32574  1.0000
  C   C12       1.0  0.68026  0.98689  0.32651  1.0000
  C   C13       1.0  0.01528  0.84488  0.29291  1.0000
  C   C14       1.0  0.01578  0.80378  0.29110  1.0000
  C   C15       1.0  0.04011  0.67803  0.30810  1.0000
  C   C16       1.0  0.03939  0.71911  0.31139  1.0000
  H   H1        1.0  0.05899  0.66457  0.26417  1.0000
  H   H2        1.0  0.05842  0.73406  0.27075  1.0000
  H   H3        1.0  0.01803  0.79029  0.22930  1.0000
  H   H4        1.0  0.01777  0.85991  0.23308  1.0000
  H   H5        1.0  0.86181  0.00363  0.23659  1.0000
  H   H6        1.0  0.79215  0.00534  0.23695  1.0000
  H   H7        1.0  0.00734  0.16082  0.23649  1.0000
  H   H8        1.0  0.00817  0.23050  0.23657  1.0000
  H   H9        1.0  0.96845  0.35659  0.28648  1.0000
  H   H10       1.0  0.96887  0.28708  0.28571  1.0000
  H   H11       1.0  0.28820  0.05568  0.27150  1.0000
  H   H12       1.0  0.35768  0.05702  0.26539  1.0000
  H   H13       1.0  0.23259  0.01461  0.22976  1.0000
  H   H14       1.0  0.16297  0.01417  0.23320  1.0000
  H   H15       1.0  0.73531  0.96669  0.28624  1.0000
  H   H16       1.0  0.66580  0.96689  0.28748  1.0000
  C   C17       1.0  0.00992  0.46814  0.33619  1.0000
  C   C18       1.0  0.00972  0.49482  0.26299  1.0000
  C   C19       1.0  0.00854  0.53560  0.27849  1.0000
  H   H17       1.0  0.00997  0.48439  0.19774  1.0000
  C   C20       1.0  0.00714  0.56239  0.19895  1.0000
  H   H18       1.0  0.00592  0.54689  0.13420  1.0000
  H   H19       1.0  0.03318  0.58066  0.19804  1.0000
  H   H20       1.0  0.98130  0.58094  0.20321  1.0000
  C   C21       1.0  0.00914  0.42807  0.32142  1.0000
  H   H21       1.0  0.00385  0.41859  0.25866  1.0000
  C   C22       1.0  0.55469  0.00941  0.33763  1.0000
  C   C23       1.0  0.52797  0.01046  0.26454  1.0000
  C   C24       1.0  0.48719  0.00916  0.28001  1.0000
  H   H22       1.0  0.53838  0.01171  0.19933  1.0000
  C   C25       1.0  0.46040  0.00915  0.20041  1.0000
  H   H23       1.0  0.47590  0.00908  0.13558  1.0000
  H   H24       1.0  0.44207  0.03518  0.20198  1.0000
  H   H25       1.0  0.44194  0.98324  0.20219  1.0000
  C   C26       1.0  0.59474  0.00856  0.32270  1.0000
  H   H26       1.0  0.60416  0.00376  0.25967  1.0000
  C   C27       1.0  0.08463  0.90761  0.37764  1.0000
  C   C28       1.0  0.11345  0.93574  0.37750  1.0000
  C   C29       1.0  0.09562  0.97241  0.37824  1.0000
  N   N1        1.0  0.05670  0.96503  0.37875  1.0000
  C   C30       1.0  0.04837  0.92631  0.37802  1.0000
  C   C31       1.0  0.01159  0.90695  0.37780  1.0000
  C   C32       1.0  0.97486  0.92629  0.37811  1.0000
  N   N2        1.0  0.96770  0.96514  0.37821  1.0000
  C   C33       1.0  0.92904  0.97325  0.37814  1.0000
  C   C34       1.0  0.91016  0.93716  0.37824  1.0000
  C   C35       1.0  0.93832  0.90830  0.37788  1.0000
  C   C36       1.0  0.91060  0.01046  0.37831  1.0000
  C   C37       1.0  0.93088  0.04675  0.37834  1.0000
  N   N3        1.0  0.96979  0.05412  0.37818  1.0000
  C   C38       1.0  0.97812  0.09284  0.37820  1.0000
  C   C39       1.0  0.94189  0.11157  0.37841  1.0000
  C   C40       1.0  0.91306  0.08345  0.37816  1.0000
  C   C41       1.0  0.01490  0.11221  0.37836  1.0000
  C   C42       1.0  0.05162  0.09285  0.37841  1.0000
  N   N4        1.0  0.05876  0.05401  0.37849  1.0000
  C   C43       1.0  0.09740  0.04590  0.37805  1.0000
  C   C44       1.0  0.11630  0.08199  0.37783  1.0000
  C   C45       1.0  0.08816  0.11084  0.37780  1.0000
  C   C46       1.0  0.11586  0.00871  0.37788  1.0000
  C   C47       1.0  0.15760  0.00795  0.37606  1.0000
  C   C48       1.0  0.24135  0.00926  0.37245  1.0000
  C   C49       1.0  0.22051  0.00511  0.45518  1.0000
  C   C50       1.0  0.17940  0.00458  0.45714  1.0000
  C   C51       1.0  0.28329  0.01077  0.37068  1.0000
  C   C52       1.0  0.30638  0.98617  0.42657  1.0000
  C   C53       1.0  0.34750  0.98738  0.42381  1.0000
  C   C54       1.0  0.36715  0.01354  0.36530  1.0000
  C   C55       1.0  0.01510  0.15398  0.37859  1.0000
  C   C56       1.0  0.01565  0.23776  0.37916  1.0000
  C   C57       1.0  0.02023  0.21606  0.46056  1.0000
  C   C58       1.0  0.01991  0.17494  0.46046  1.0000
  C   C59       1.0  0.01552  0.27973  0.37955  1.0000
  C   C60       1.0  0.01494  0.36368  0.38027  1.0000
  C   C61       1.0  0.04100  0.34256  0.43587  1.0000
  C   C62       1.0  0.04145  0.30141  0.43509  1.0000
  C   C63       1.0  0.86885  0.01136  0.37865  1.0000
  C   C64       1.0  0.84799  0.01645  0.46059  1.0000
  C   C65       1.0  0.80688  0.01729  0.46085  1.0000
  C   C66       1.0  0.78507  0.01294  0.37956  1.0000
  C   C67       1.0  0.74310  0.01322  0.38015  1.0000
  C   C68       1.0  0.65915  0.01339  0.38148  1.0000
  C   C69       1.0  0.68050  0.03924  0.43699  1.0000
  C   C70       1.0  0.72165  0.03933  0.43589  1.0000
  C   C71       1.0  0.01147  0.86519  0.37594  1.0000
  C   C72       1.0  0.00792  0.84333  0.45688  1.0000
  C   C73       1.0  0.01245  0.78142  0.37188  1.0000
  C   C74       1.0  0.00833  0.80221  0.45471  1.0000
  C   C75       1.0  0.01352  0.73945  0.36985  1.0000
  C   C76       1.0  0.98862  0.71661  0.42546  1.0000
  C   C77       1.0  0.98940  0.67548  0.42246  1.0000
  C   C78       1.0  0.01536  0.65555  0.36390  1.0000
  H   H27       1.0  0.97015  0.66026  0.46187  1.0000
  H   H28       1.0  0.96866  0.72977  0.46711  1.0000
  H   H29       1.0  0.00653  0.78755  0.51512  1.0000
  H   H30       1.0  0.00531  0.85724  0.51814  1.0000
  H   H31       1.0  0.08984  0.87825  0.37715  1.0000
  H   H32       1.0  0.14269  0.92984  0.37678  1.0000
  H   H33       1.0  0.03712  0.98510  0.37917  1.0000
  H   H34       1.0  0.98936  0.03405  0.37812  1.0000
  H   H35       1.0  0.93260  0.87904  0.37765  1.0000
  H   H36       1.0  0.88078  0.93215  0.37841  1.0000
  H   H37       1.0  0.86263  0.01938  0.52083  1.0000
  H   H38       1.0  0.79296  0.02022  0.52198  1.0000
  H   H39       1.0  0.88384  0.08938  0.37799  1.0000
  H   H40       1.0  0.93668  0.14093  0.37865  1.0000
  H   H41       1.0  0.14568  0.08700  0.37754  1.0000
  H   H42       1.0  0.09389  0.14009  0.37727  1.0000
  H   H43       1.0  0.02306  0.16037  0.52075  1.0000
  H   H44       1.0  0.02303  0.23005  0.52162  1.0000
  H   H45       1.0  0.06154  0.28740  0.47485  1.0000
  H   H46       1.0  0.06030  0.35709  0.47672  1.0000
  H   H47       1.0  0.16543  0.00218  0.51839  1.0000
  H   H48       1.0  0.23512  0.00359  0.51570  1.0000
  H   H49       1.0  0.36293  0.96836  0.46348  1.0000
  H   H50       1.0  0.29343  0.96612  0.46825  1.0000
  H   H51       1.0  0.73585  0.05926  0.47566  1.0000
  H   H52       1.0  0.66615  0.05863  0.47803  1.0000
  N   N5        1.0  0.40581  0.01486  0.35454  1.0000
  N   N6        1.0  0.01627  0.61689  0.35299  1.0000
  N   N7        1.0  0.62014  0.01399  0.38600  1.0000
  N   N8        1.0  0.01529  0.40271  0.38449  1.0000
  C   C79       1.0  0.00766  0.54897  0.37026  1.0000
  N   N9        1.0  0.00780  0.52120  0.43657  1.0000
  N   N10       1.0  0.00892  0.48357  0.42121  1.0000
  C   C80       1.0  0.00376  0.58755  0.39910  1.0000
  H   H53       1.0  0.99079  0.59248  0.45845  1.0000
  C   C81       1.0  0.47386  0.00681  0.37168  1.0000
  N   N11       1.0  0.50167  0.00583  0.43786  1.0000
  N   N12       1.0  0.53929  0.00709  0.42253  1.0000
  C   C82       1.0  0.43530  0.00250  0.40043  1.0000
  H   H54       1.0  0.43050  0.98926  0.45949  1.0000
