data_image0
_chemical_formula_structural       C16H16C3HNO2NC3HNO2NC3NC3NC5NC5NC36H26C4H4C3H2NC3H2N
_chemical_formula_sum              "C84 H52 N10 O4"
_cell_length_a       34.3601
_cell_length_b       34.36
_cell_length_c       14.6649
_cell_angle_alpha    90
_cell_angle_beta     90
_cell_angle_gamma    89.8314

_space_group_name_H-M_alt    "P 1"
_space_group_IT_number       1

loop_
  _space_group_symop_operation_xyz
  'x, y, z'

loop_
  _atom_site_type_symbol
  _atom_site_label
  _atom_site_symmetry_multiplicity
  _atom_site_fract_x
  _atom_site_fract_y
  _atom_site_fract_z
  _atom_site_occupancy
  C   C1        1.0  0.01654  0.80400  0.29839  1.0000
  C   C2        1.0  0.01769  0.84504  0.29522  1.0000
  C   C3        1.0  0.03274  0.71742  0.33470  1.0000
  C   C4        1.0  0.03026  0.67646  0.34085  1.0000
  C   C5        1.0  0.80635  0.00909  0.29803  1.0000
  C   C6        1.0  0.84738  0.00775  0.29470  1.0000
  C   C7        1.0  0.67901  0.99494  0.34277  1.0000
  C   C8        1.0  0.71998  0.99278  0.33578  1.0000
  C   C9        1.0  0.01214  0.17816  0.29444  1.0000
  C   C10       1.0  0.01292  0.21920  0.29798  1.0000
  C   C11       1.0  0.99697  0.34660  0.33927  1.0000
  C   C12       1.0  0.99516  0.30562  0.33224  1.0000
  C   C13       1.0  0.18076  0.01530  0.29602  1.0000
  C   C14       1.0  0.22180  0.01422  0.29955  1.0000
  C   C15       1.0  0.30801  0.03112  0.33663  1.0000
  C   C16       1.0  0.34901  0.02911  0.34320  1.0000
  H   H1        1.0  0.36527  0.04894  0.30786  1.0000
  H   H2        1.0  0.29600  0.05253  0.29703  1.0000
  H   H3        1.0  0.23691  0.01703  0.23981  1.0000
  H   H4        1.0  0.16733  0.01940  0.23444  1.0000
  H   H5        1.0  0.00979  0.16468  0.23244  1.0000
  H   H6        1.0  0.01168  0.23428  0.23791  1.0000
  H   H7        1.0  0.86084  0.00334  0.23326  1.0000
  H   H8        1.0  0.79125  0.00610  0.23832  1.0000
  H   H9        1.0  0.73187  0.97102  0.29701  1.0000
  H   H10       1.0  0.66261  0.97487  0.30852  1.0000
  H   H11       1.0  0.02155  0.85855  0.23368  1.0000
  H   H12       1.0  0.01908  0.78896  0.23846  1.0000
  H   H13       1.0  0.04992  0.65992  0.30537  1.0000
  H   H14       1.0  0.05431  0.72915  0.29531  1.0000
  H   H15       1.0  0.97486  0.29374  0.28955  1.0000
  H   H16       1.0  0.97815  0.36300  0.30109  1.0000
  C   C17       1.0  0.01323  0.46981  0.35807  1.0000
  C   C18       1.0  0.01213  0.49067  0.27513  1.0000
  C   C19       1.0  0.01223  0.53204  0.27281  1.0000
  H   H17       1.0  0.01166  0.47560  0.21489  1.0000
  N   N1        1.0  0.01146  0.55264  0.18921  1.0000
  O   O1        1.0  0.04073  0.54475  0.14118  1.0000
  O   O2        1.0  0.98134  0.54496  0.14415  1.0000
  N   N2        1.0  0.01324  0.43073  0.35475  1.0000
  C   C20       1.0  0.55585  0.01280  0.35877  1.0000
  C   C21       1.0  0.53479  0.01149  0.27615  1.0000
  C   C22       1.0  0.49342  0.01153  0.27446  1.0000
  H   H18       1.0  0.54970  0.01086  0.21572  1.0000
  N   N3        1.0  0.47261  0.01058  0.19116  1.0000
  O   O3        1.0  0.48015  0.03977  0.14273  1.0000
  O   O4        1.0  0.48040  0.98039  0.14627  1.0000
  N   N4        1.0  0.59492  0.01270  0.35496  1.0000
  C   C23       1.0  0.11442  0.93825  0.37335  1.0000
  C   C24       1.0  0.08580  0.91009  0.37354  1.0000
  C   C25       1.0  0.04955  0.92862  0.37219  1.0000
  N   N5        1.0  0.05769  0.96729  0.37149  1.0000
  C   C26       1.0  0.09648  0.97481  0.37257  1.0000
  C   C27       1.0  0.11657  0.01110  0.37291  1.0000
  C   C28       1.0  0.09792  0.04813  0.37268  1.0000
  N   N6        1.0  0.05930  0.05609  0.37150  1.0000
  C   C29       1.0  0.05190  0.09482  0.37251  1.0000
  C   C30       1.0  0.08826  0.11289  0.37422  1.0000
  C   C31       1.0  0.11652  0.08421  0.37461  1.0000
  C   C32       1.0  0.01516  0.11405  0.37204  1.0000
  C   C33       1.0  0.97857  0.09457  0.37133  1.0000
  N   N7        1.0  0.97043  0.05590  0.37106  1.0000
  C   C34       1.0  0.93164  0.04840  0.37144  1.0000
  C   C35       1.0  0.91370  0.08496  0.37125  1.0000
  C   C36       1.0  0.94232  0.11312  0.37151  1.0000
  C   C37       1.0  0.91154  0.01212  0.37178  1.0000
  C   C38       1.0  0.93020  0.97509  0.37185  1.0000
  N   N8        1.0  0.96882  0.96711  0.37133  1.0000
  C   C39       1.0  0.97621  0.92838  0.37236  1.0000
  C   C40       1.0  0.93983  0.91034  0.37325  1.0000
  C   C41       1.0  0.91158  0.93902  0.37337  1.0000
  C   C42       1.0  0.01296  0.90913  0.37252  1.0000
  C   C43       1.0  0.01294  0.86742  0.37535  1.0000
  C   C44       1.0  0.00737  0.84761  0.45870  1.0000
  C   C45       1.0  0.00601  0.80665  0.46149  1.0000
  C   C46       1.0  0.01022  0.78384  0.38142  1.0000
  C   C47       1.0  0.00734  0.74208  0.38467  1.0000
  C   C48       1.0  0.00201  0.65838  0.39687  1.0000
  C   C49       1.0  0.97623  0.68300  0.44555  1.0000
  C   C50       1.0  0.97876  0.72379  0.43938  1.0000
  C   C51       1.0  0.86983  0.01287  0.37455  1.0000
  C   C52       1.0  0.85009  0.01905  0.45779  1.0000
  C   C53       1.0  0.80913  0.02058  0.46075  1.0000
  C   C54       1.0  0.78624  0.01590  0.38098  1.0000
  C   C55       1.0  0.74446  0.01864  0.38452  1.0000
  C   C56       1.0  0.72598  0.04740  0.43865  1.0000
  C   C57       1.0  0.68517  0.04961  0.44567  1.0000
  C   C58       1.0  0.66077  0.02331  0.39841  1.0000
  C   C59       1.0  0.01512  0.15574  0.37496  1.0000
  C   C60       1.0  0.01702  0.23933  0.38185  1.0000
  C   C61       1.0  0.01949  0.21644  0.46220  1.0000
  C   C62       1.0  0.01855  0.17547  0.45901  1.0000
  C   C63       1.0  0.01937  0.28112  0.38580  1.0000
  C   C64       1.0  0.04615  0.29961  0.44495  1.0000
  C   C65       1.0  0.04801  0.34042  0.45202  1.0000
  C   C66       1.0  0.02333  0.36485  0.39985  1.0000
  C   C67       1.0  0.15828  0.01038  0.37589  1.0000
  C   C68       1.0  0.17799  0.00468  0.45935  1.0000
  C   C69       1.0  0.21896  0.00342  0.46251  1.0000
  C   C70       1.0  0.24189  0.00791  0.38274  1.0000
  C   C71       1.0  0.28370  0.00548  0.38645  1.0000
  C   C72       1.0  0.36745  0.00116  0.39965  1.0000
  C   C73       1.0  0.34320  0.97515  0.44825  1.0000
  C   C74       1.0  0.30238  0.97719  0.44158  1.0000
  H   H19       1.0  0.35508  0.95432  0.48987  1.0000
  H   H20       1.0  0.28634  0.95738  0.47754  1.0000
  H   H21       1.0  0.23196  0.99959  0.52465  1.0000
  H   H22       1.0  0.16258  0.00126  0.51856  1.0000
  H   H23       1.0  0.14361  0.93242  0.37423  1.0000
  H   H24       1.0  0.09115  0.88081  0.37473  1.0000
  H   H25       1.0  0.03801  0.98727  0.37084  1.0000
  H   H26       1.0  0.99011  0.03591  0.37140  1.0000
  H   H27       1.0  0.14580  0.08933  0.37630  1.0000
  H   H28       1.0  0.09382  0.14209  0.37536  1.0000
  H   H29       1.0  0.02062  0.16009  0.51862  1.0000
  H   H30       1.0  0.02169  0.22946  0.52473  1.0000
  H   H31       1.0  0.93698  0.14240  0.37188  1.0000
  H   H32       1.0  0.88452  0.09081  0.37118  1.0000
  H   H33       1.0  0.93424  0.88114  0.37408  1.0000
  H   H34       1.0  0.88229  0.93390  0.37444  1.0000
  H   H35       1.0  0.86547  0.02268  0.51697  1.0000
  H   H36       1.0  0.79610  0.02479  0.52273  1.0000
  H   H37       1.0  0.67343  0.07072  0.48673  1.0000
  H   H38       1.0  0.74215  0.06736  0.47382  1.0000
  H   H39       1.0  0.95910  0.74011  0.47539  1.0000
  H   H40       1.0  0.95520  0.67140  0.48688  1.0000
  H   H41       1.0  0.00212  0.79357  0.52349  1.0000
  H   H42       1.0  0.00392  0.86295  0.51803  1.0000
  H   H43       1.0  0.06496  0.28345  0.48373  1.0000
  H   H44       1.0  0.06768  0.35214  0.49669  1.0000
  C   C75       1.0  0.99971  0.61810  0.40923  1.0000
  C   C76       1.0  0.62054  0.02511  0.41222  1.0000
  C   C77       1.0  0.02481  0.40512  0.41323  1.0000
  C   C78       1.0  0.40775  0.99932  0.41237  1.0000
  H   H45       1.0  0.98598  0.60850  0.46457  1.0000
  H   H46       1.0  0.41748  0.98614  0.46836  1.0000
  H   H47       1.0  0.03660  0.41458  0.47105  1.0000
  H   H48       1.0  0.61116  0.03784  0.46908  1.0000
  C   C79       1.0  0.01269  0.55348  0.35551  1.0000
  C   C80       1.0  0.01381  0.53253  0.43865  1.0000
  C   C81       1.0  0.01378  0.49158  0.43995  1.0000
  H   H49       1.0  0.01493  0.54697  0.49956  1.0000
  H   H50       1.0  0.01401  0.47784  0.50175  1.0000
  N   N9        1.0  0.01302  0.59261  0.35257  1.0000
  C   C82       1.0  0.47220  0.01213  0.35746  1.0000
  C   C83       1.0  0.49336  0.01347  0.44029  1.0000
  C   C84       1.0  0.53432  0.01352  0.44098  1.0000
  H   H51       1.0  0.47909  0.01467  0.50139  1.0000
  H   H52       1.0  0.54827  0.01389  0.50253  1.0000
  N   N10       1.0  0.43306  0.01221  0.35493  1.0000
