data_image0
_chemical_formula_structural       C4H2C4H2C4H2C4H2C4H2C4H2C2H2C2H2C2H2C2H2C2H2C2H2C4H2C4H2C4H2C4H2C4H2C4H2C6H3C6H3C6H3C6H3C6H3C6H3C6H3C6H3C6H3C6H3C6H3C6H3C2H2C2H2C2H2C2H2C2H2C2H2C4H2C4H2C4H2C4H2C4H2C4H2C2H2C2H2C2H2C2H2C2H2C2H2
_chemical_formula_sum              "C180 H108"
_cell_length_a       39.5996
_cell_length_b       39.5995
_cell_length_c       14.7947
_cell_angle_alpha    90
_cell_angle_beta     90
_cell_angle_gamma    120

_space_group_name_H-M_alt    "P 1"
_space_group_IT_number       1

loop_
  _space_group_symop_operation_xyz
  'x, y, z'

loop_
  _atom_site_type_symbol
  _atom_site_label
  _atom_site_symmetry_multiplicity
  _atom_site_fract_x
  _atom_site_fract_y
  _atom_site_fract_z
  _atom_site_occupancy
  C   C1        1.0  0.25449  0.45951  0.26475  1.0000
  C   C2        1.0  0.21888  0.45949  0.26477  1.0000
  C   C3        1.0  0.20071  0.45955  0.34697  1.0000
  C   C4        1.0  0.27271  0.45955  0.34693  1.0000
  H   H1        1.0  0.20724  0.46126  0.20438  1.0000
  H   H2        1.0  0.26786  0.46124  0.20434  1.0000
  C   C5        1.0  0.57641  0.81704  0.26478  1.0000
  C   C6        1.0  0.57645  0.78146  0.26476  1.0000
  C   C7        1.0  0.57640  0.76323  0.34694  1.0000
  C   C8        1.0  0.57641  0.83524  0.34697  1.0000
  H   H3        1.0  0.57472  0.76809  0.20436  1.0000
  H   H4        1.0  0.57472  0.82871  0.20439  1.0000
  C   C9        1.0  0.21888  0.78149  0.26478  1.0000
  C   C10       1.0  0.25448  0.81709  0.26478  1.0000
  C   C11       1.0  0.27272  0.83524  0.34697  1.0000
  C   C12       1.0  0.20070  0.76324  0.34695  1.0000
  H   H5        1.0  0.26787  0.82873  0.20439  1.0000
  H   H6        1.0  0.20724  0.76811  0.20439  1.0000
  C   C13       1.0  0.77876  0.57921  0.26473  1.0000
  C   C14       1.0  0.81437  0.57923  0.26475  1.0000
  C   C15       1.0  0.83254  0.57917  0.34693  1.0000
  C   C16       1.0  0.76052  0.57915  0.34689  1.0000
  H   H7        1.0  0.82600  0.57747  0.20437  1.0000
  H   H8        1.0  0.76539  0.57747  0.20432  1.0000
  C   C17       1.0  0.45678  0.22164  0.26478  1.0000
  C   C18       1.0  0.45677  0.25723  0.26479  1.0000
  C   C19       1.0  0.45682  0.27546  0.34698  1.0000
  C   C20       1.0  0.45682  0.20345  0.34697  1.0000
  H   H9        1.0  0.45853  0.27062  0.20440  1.0000
  H   H10       1.0  0.45852  0.21000  0.20438  1.0000
  C   C21       1.0  0.81431  0.25726  0.26474  1.0000
  C   C22       1.0  0.77873  0.22165  0.26473  1.0000
  C   C23       1.0  0.76050  0.20346  0.34690  1.0000
  C   C24       1.0  0.83251  0.27547  0.34693  1.0000
  H   H11       1.0  0.76536  0.21000  0.20433  1.0000
  H   H12       1.0  0.82598  0.27062  0.20435  1.0000
  C   C25       1.0  0.15115  0.60440  0.26486  1.0000
  C   C26       1.0  0.15121  0.56889  0.26484  1.0000
  H   H13       1.0  0.14947  0.61610  0.20450  1.0000
  H   H14       1.0  0.14947  0.55548  0.20449  1.0000
  C   C27       1.0  0.43155  0.56887  0.26488  1.0000
  C   C28       1.0  0.46710  0.60440  0.26492  1.0000
  H   H15       1.0  0.41990  0.55546  0.20451  1.0000
  H   H16       1.0  0.48051  0.61608  0.20456  1.0000
  C   C29       1.0  0.46710  0.88478  0.26481  1.0000
  C   C30       1.0  0.43157  0.88481  0.26484  1.0000
  H   H17       1.0  0.48048  0.88646  0.20444  1.0000
  H   H18       1.0  0.41984  0.88646  0.20448  1.0000
  C   C31       1.0  0.88208  0.43433  0.26488  1.0000
  C   C32       1.0  0.88203  0.46984  0.26488  1.0000
  H   H19       1.0  0.88374  0.42262  0.20451  1.0000
  H   H20       1.0  0.88375  0.48325  0.20454  1.0000
  C   C33       1.0  0.60164  0.46985  0.26489  1.0000
  C   C34       1.0  0.56612  0.43429  0.26488  1.0000
  H   H21       1.0  0.61333  0.48324  0.20452  1.0000
  H   H22       1.0  0.55270  0.42263  0.20454  1.0000
  C   C35       1.0  0.56612  0.15391  0.26489  1.0000
  C   C36       1.0  0.60165  0.15389  0.26493  1.0000
  H   H23       1.0  0.55271  0.15215  0.20452  1.0000
  H   H24       1.0  0.61334  0.15218  0.20458  1.0000
  C   C37       1.0  0.99607  0.38011  0.26488  1.0000
  C   C38       1.0  0.03717  0.40064  0.26488  1.0000
  C   C39       1.0  0.05824  0.41146  0.34705  1.0000
  C   C40       1.0  0.97499  0.36983  0.34703  1.0000
  H   H25       1.0  0.05150  0.41067  0.20467  1.0000
  H   H26       1.0  0.98177  0.37579  0.20463  1.0000
  C   C41       1.0  0.65587  0.63806  0.26480  1.0000
  C   C42       1.0  0.63538  0.65867  0.26472  1.0000
  C   C43       1.0  0.62451  0.66886  0.34685  1.0000
  C   C44       1.0  0.66614  0.62724  0.34693  1.0000
  H   H27       1.0  0.62545  0.66304  0.20446  1.0000
  H   H28       1.0  0.66032  0.62817  0.20455  1.0000
  C   C45       1.0  0.39780  0.03989  0.26478  1.0000
  C   C46       1.0  0.37724  0.99879  0.26473  1.0000
  C   C47       1.0  0.36708  0.97773  0.34687  1.0000
  C   C48       1.0  0.40869  0.06097  0.34693  1.0000
  H   H29       1.0  0.37292  0.98446  0.20451  1.0000
  H   H30       1.0  0.40780  0.05421  0.20457  1.0000
  C   C49       1.0  0.03714  0.65872  0.26467  1.0000
  C   C50       1.0  0.99604  0.63820  0.26468  1.0000
  C   C51       1.0  0.97501  0.62727  0.34687  1.0000
  C   C52       1.0  0.05823  0.66888  0.34678  1.0000
  H   H31       1.0  0.98170  0.62821  0.20448  1.0000
  H   H32       1.0  0.05145  0.66309  0.20440  1.0000
  C   C53       1.0  0.37734  0.40062  0.26484  1.0000
  C   C54       1.0  0.39786  0.38005  0.26480  1.0000
  C   C55       1.0  0.40870  0.36983  0.34696  1.0000
  C   C56       1.0  0.36708  0.41143  0.34701  1.0000
  H   H33       1.0  0.40789  0.37575  0.20458  1.0000
  H   H34       1.0  0.37300  0.41059  0.20460  1.0000
  C   C57       1.0  0.63529  0.99878  0.26484  1.0000
  C   C58       1.0  0.65590  0.03988  0.26478  1.0000
  C   C59       1.0  0.66614  0.06099  0.34687  1.0000
  C   C60       1.0  0.62451  0.97772  0.34701  1.0000
  H   H35       1.0  0.66026  0.05417  0.20450  1.0000
  H   H36       1.0  0.62539  0.98443  0.20461  1.0000
  C   C61       1.0  0.14434  0.51217  0.34715  1.0000
  C   C62       1.0  0.10572  0.48064  0.34712  1.0000
  C   C63       1.0  0.09786  0.44170  0.34697  1.0000
  C   C64       1.0  0.12945  0.43449  0.34691  1.0000
  C   C65       1.0  0.16844  0.46586  0.34693  1.0000
  C   C66       1.0  0.17555  0.50461  0.34704  1.0000
  H   H37       1.0  0.12405  0.40637  0.34687  1.0000
  H   H38       1.0  0.20363  0.52751  0.34707  1.0000
  H   H39       1.0  0.08303  0.48616  0.34718  1.0000
  C   C67       1.0  0.52379  0.65424  0.34722  1.0000
  C   C68       1.0  0.55532  0.64716  0.34713  1.0000
  C   C69       1.0  0.59427  0.67825  0.34696  1.0000
  C   C70       1.0  0.60147  0.71705  0.34687  1.0000
  C   C71       1.0  0.57010  0.72466  0.34697  1.0000
  C   C72       1.0  0.53135  0.69302  0.34713  1.0000
  H   H40       1.0  0.62960  0.73976  0.34675  1.0000
  H   H41       1.0  0.50845  0.69819  0.34718  1.0000
  H   H42       1.0  0.54980  0.61894  0.34717  1.0000
  C   C73       1.0  0.38172  0.89164  0.34722  1.0000
  C   C74       1.0  0.38880  0.93025  0.34714  1.0000
  C   C75       1.0  0.35770  0.93810  0.34698  1.0000
  C   C76       1.0  0.31891  0.90650  0.34689  1.0000
  C   C77       1.0  0.31130  0.86752  0.34699  1.0000
  C   C78       1.0  0.34294  0.86041  0.34714  1.0000
  H   H43       1.0  0.29619  0.91190  0.34679  1.0000
  H   H44       1.0  0.33778  0.83235  0.34718  1.0000
  H   H45       1.0  0.41701  0.95295  0.34715  1.0000
  C   C79       1.0  0.88891  0.52655  0.34724  1.0000
  C   C80       1.0  0.92753  0.55808  0.34717  1.0000
  C   C81       1.0  0.93539  0.59703  0.34700  1.0000
  C   C82       1.0  0.90379  0.60423  0.34689  1.0000
  C   C83       1.0  0.86481  0.57286  0.34699  1.0000
  C   C84       1.0  0.85769  0.53411  0.34714  1.0000
  H   H46       1.0  0.90920  0.63235  0.34676  1.0000
  H   H47       1.0  0.82962  0.51121  0.34717  1.0000
  H   H48       1.0  0.95022  0.55256  0.34720  1.0000
  C   C85       1.0  0.50942  0.38445  0.34716  1.0000
  C   C86       1.0  0.47789  0.39153  0.34710  1.0000
  C   C87       1.0  0.43894  0.36044  0.34694  1.0000
  C   C88       1.0  0.43174  0.32165  0.34687  1.0000
  C   C89       1.0  0.46312  0.31404  0.34693  1.0000
  C   C90       1.0  0.50186  0.34567  0.34707  1.0000
  H   H49       1.0  0.40362  0.29893  0.34681  1.0000
  H   H50       1.0  0.52477  0.34050  0.34713  1.0000
  H   H51       1.0  0.48341  0.41975  0.34716  1.0000
  C   C91       1.0  0.65150  0.14707  0.34722  1.0000
  C   C92       1.0  0.64443  0.10846  0.34714  1.0000
  C   C93       1.0  0.67552  0.10060  0.34696  1.0000
  C   C94       1.0  0.71432  0.13220  0.34685  1.0000
  C   C95       1.0  0.72192  0.17119  0.34695  1.0000
  C   C96       1.0  0.69028  0.17829  0.34713  1.0000
  H   H52       1.0  0.73704  0.12681  0.34672  1.0000
  H   H53       1.0  0.69544  0.20636  0.34718  1.0000
  H   H54       1.0  0.61621  0.08575  0.34720  1.0000
  C   C97       1.0  0.50941  0.14704  0.34714  1.0000
  C   C98       1.0  0.47787  0.10843  0.34707  1.0000
  C   C99       1.0  0.43893  0.10058  0.34691  1.0000
  C   C100      1.0  0.43174  0.13219  0.34685  1.0000
  C   C101      1.0  0.46311  0.17117  0.34691  1.0000
  C   C102      1.0  0.50186  0.17827  0.34705  1.0000
  H   H55       1.0  0.40361  0.12679  0.34679  1.0000
  H   H56       1.0  0.52476  0.20634  0.34712  1.0000
  H   H57       1.0  0.48338  0.08573  0.34714  1.0000
  C   C103      1.0  0.65152  0.52653  0.34716  1.0000
  C   C104      1.0  0.64444  0.55807  0.34710  1.0000
  C   C105      1.0  0.67553  0.59701  0.34693  1.0000
  C   C106      1.0  0.71433  0.60422  0.34686  1.0000
  C   C107      1.0  0.72194  0.57284  0.34693  1.0000
  C   C108      1.0  0.69030  0.53409  0.34706  1.0000
  H   H58       1.0  0.73704  0.63234  0.34677  1.0000
  H   H59       1.0  0.69547  0.51119  0.34710  1.0000
  H   H60       1.0  0.61622  0.55255  0.34716  1.0000
  C   C109      1.0  0.88890  0.38446  0.34711  1.0000
  C   C110      1.0  0.92751  0.39154  0.34708  1.0000
  C   C111      1.0  0.93537  0.36045  0.34693  1.0000
  C   C112      1.0  0.90377  0.32165  0.34687  1.0000
  C   C113      1.0  0.86479  0.31404  0.34689  1.0000
  C   C114      1.0  0.85768  0.34568  0.34701  1.0000
  H   H61       1.0  0.90917  0.29893  0.34683  1.0000
  H   H62       1.0  0.82961  0.34051  0.34705  1.0000
  H   H63       1.0  0.95021  0.41975  0.34717  1.0000
  C   C115      1.0  0.52380  0.89162  0.34712  1.0000
  C   C116      1.0  0.55533  0.93024  0.34708  1.0000
  C   C117      1.0  0.59428  0.93810  0.34695  1.0000
  C   C118      1.0  0.60148  0.90650  0.34692  1.0000
  C   C119      1.0  0.57011  0.86752  0.34694  1.0000
  C   C120      1.0  0.53136  0.86041  0.34703  1.0000
  H   H64       1.0  0.62960  0.91191  0.34689  1.0000
  H   H65       1.0  0.50846  0.83233  0.34706  1.0000
  H   H66       1.0  0.54981  0.95293  0.34714  1.0000
  C   C121      1.0  0.38170  0.51215  0.34712  1.0000
  C   C122      1.0  0.38879  0.48062  0.34708  1.0000
  C   C123      1.0  0.35770  0.44167  0.34693  1.0000
  C   C124      1.0  0.31890  0.43447  0.34685  1.0000
  C   C125      1.0  0.31129  0.46584  0.34689  1.0000
  C   C126      1.0  0.34293  0.50459  0.34701  1.0000
  H   H67       1.0  0.29618  0.40635  0.34681  1.0000
  H   H68       1.0  0.33776  0.52749  0.34706  1.0000
  H   H69       1.0  0.41700  0.48614  0.34717  1.0000
  C   C127      1.0  0.14432  0.65425  0.34720  1.0000
  C   C128      1.0  0.10571  0.64717  0.34709  1.0000
  C   C129      1.0  0.09785  0.67826  0.34693  1.0000
  C   C130      1.0  0.12945  0.71705  0.34685  1.0000
  C   C131      1.0  0.16843  0.72467  0.34697  1.0000
  C   C132      1.0  0.17554  0.69303  0.34714  1.0000
  H   H70       1.0  0.12404  0.73977  0.34672  1.0000
  H   H71       1.0  0.20361  0.69820  0.34720  1.0000
  H   H72       1.0  0.08301  0.61895  0.34710  1.0000
  C   C133      1.0  0.21893  0.45957  0.42914  1.0000
  C   C134      1.0  0.25454  0.45958  0.42912  1.0000
  H   H73       1.0  0.20730  0.46132  0.48953  1.0000
  H   H74       1.0  0.26792  0.46131  0.48950  1.0000
  C   C135      1.0  0.57637  0.78142  0.42913  1.0000
  C   C136      1.0  0.57642  0.81704  0.42915  1.0000
  H   H75       1.0  0.57464  0.76804  0.48953  1.0000
  H   H76       1.0  0.57464  0.82866  0.48953  1.0000
  C   C137      1.0  0.25455  0.81701  0.42915  1.0000
  C   C138      1.0  0.21893  0.78144  0.42914  1.0000
  H   H77       1.0  0.26794  0.82863  0.48954  1.0000
  H   H78       1.0  0.20732  0.76802  0.48952  1.0000
  C   C139      1.0  0.81431  0.57914  0.42911  1.0000
  C   C140      1.0  0.77869  0.57911  0.42908  1.0000
  H   H79       1.0  0.82590  0.57732  0.48950  1.0000
  H   H80       1.0  0.76529  0.57732  0.48946  1.0000
  C   C141      1.0  0.45684  0.25726  0.42915  1.0000
  C   C142      1.0  0.45686  0.22167  0.42914  1.0000
  H   H81       1.0  0.45859  0.27065  0.48954  1.0000
  H   H82       1.0  0.45858  0.21002  0.48953  1.0000
  C   C143      1.0  0.77868  0.22169  0.42908  1.0000
  C   C144      1.0  0.81430  0.25726  0.42911  1.0000
  H   H83       1.0  0.76530  0.21005  0.48948  1.0000
  H   H84       1.0  0.82592  0.27066  0.48949  1.0000
  C   C145      1.0  0.15099  0.56877  0.42957  1.0000
  C   C146      1.0  0.15099  0.60431  0.42959  1.0000
  C   C147      1.0  0.15086  0.62228  0.34722  1.0000
  C   C148      1.0  0.15088  0.55067  0.34720  1.0000
  H   H85       1.0  0.14909  0.61591  0.48992  1.0000
  H   H86       1.0  0.14909  0.55527  0.48989  1.0000
  C   C149      1.0  0.46719  0.60428  0.42962  1.0000
  C   C150      1.0  0.43164  0.56874  0.42960  1.0000
  C   C151      1.0  0.41367  0.55065  0.34722  1.0000
  C   C152      1.0  0.48529  0.62228  0.34728  1.0000
  H   H87       1.0  0.42004  0.55525  0.48992  1.0000
  H   H88       1.0  0.48065  0.61588  0.48997  1.0000
  C   C153      1.0  0.43169  0.88501  0.42956  1.0000
  C   C154      1.0  0.46722  0.88498  0.42954  1.0000
  C   C155      1.0  0.48530  0.88509  0.34715  1.0000
  C   C156      1.0  0.41369  0.88511  0.34720  1.0000
  H   H89       1.0  0.48071  0.88687  0.48986  1.0000
  H   H90       1.0  0.42008  0.88687  0.48991  1.0000
  C   C157      1.0  0.88232  0.46997  0.42961  1.0000
  C   C158      1.0  0.88228  0.43441  0.42961  1.0000
  C   C159      1.0  0.88237  0.41642  0.34724  1.0000
  C   C160      1.0  0.88238  0.48805  0.34725  1.0000
  H   H91       1.0  0.88412  0.42279  0.48994  1.0000
  H   H92       1.0  0.88413  0.48343  0.48995  1.0000
  C   C161      1.0  0.56603  0.43439  0.42961  1.0000
  C   C162      1.0  0.60158  0.46992  0.42961  1.0000
  C   C163      1.0  0.61956  0.48804  0.34724  1.0000
  C   C164      1.0  0.54792  0.41642  0.34726  1.0000
  H   H93       1.0  0.61319  0.48341  0.48993  1.0000
  H   H94       1.0  0.55255  0.42279  0.48994  1.0000
  C   C165      1.0  0.60154  0.15370  0.42966  1.0000
  C   C166      1.0  0.56600  0.15371  0.42964  1.0000
  C   C167      1.0  0.54791  0.15357  0.34725  1.0000
  C   C168      1.0  0.61953  0.15360  0.34731  1.0000
  H   H95       1.0  0.55250  0.15182  0.48995  1.0000
  H   H96       1.0  0.61315  0.15185  0.49001  1.0000
  C   C169      1.0  0.03716  0.40044  0.42917  1.0000
  C   C170      1.0  0.99607  0.37992  0.42915  1.0000
  H   H97       1.0  0.05150  0.41026  0.48944  1.0000
  H   H98       1.0  0.98173  0.37535  0.48942  1.0000
  C   C171      1.0  0.63542  0.65872  0.42902  1.0000
  C   C172      1.0  0.65605  0.63825  0.42904  1.0000
  H   H99       1.0  0.62559  0.66322  0.48930  1.0000
  H   H100      1.0  0.66047  0.62835  0.48930  1.0000
  C   C173      1.0  0.37722  0.99878  0.42903  1.0000
  C   C174      1.0  0.39769  0.03987  0.42905  1.0000
  H   H101      1.0  0.37274  0.98445  0.48931  1.0000
  H   H102      1.0  0.40762  0.05419  0.48930  1.0000
  C   C175      1.0  0.99607  0.63821  0.42902  1.0000
  C   C176      1.0  0.03717  0.65872  0.42896  1.0000
  H   H103      1.0  0.98177  0.62823  0.48928  1.0000
  H   H104      1.0  0.05149  0.66311  0.48921  1.0000
  C   C177      1.0  0.39772  0.37989  0.42913  1.0000
  C   C178      1.0  0.37720  0.40047  0.42912  1.0000
  H   H105      1.0  0.40756  0.37538  0.48938  1.0000
  H   H106      1.0  0.37265  0.41025  0.48940  1.0000
  C   C179      1.0  0.65600  0.03991  0.42900  1.0000
  C   C180      1.0  0.63553  0.99881  0.42911  1.0000
  H   H107      1.0  0.66051  0.05424  0.48928  1.0000
  H   H108      1.0  0.62565  0.98450  0.48937  1.0000
